MODEL 1
REMARK VINA RESULT:      77.9      0.000      0.000
REMARK  7 active torsions:
REMARK  status: ('A' for Active; 'I' for Inactive)
REMARK    1  A    between atoms: C_23  and  C_3 
REMARK    2  A    between atoms: S_18  and  C_5 
REMARK    3  A    between atoms: C_11  and  C_16 
REMARK       I    between atoms: N_14  and  C_11 
REMARK    4  A    between atoms: C_17  and  N_14 
REMARK    5  A    between atoms: C_16  and  C_21 
REMARK    6  A    between atoms: C_21  and  S_18 
REMARK    7  A    between atoms: O_24  and  C_22 
ROOT
ATOM      1  C   UNL d   1      59.885  49.705  51.444  0.00  0.00     0.092 A 
ATOM      2  C   UNL d   1      58.484  49.701  51.182  0.00  0.00     0.057 A 
ATOM      3  C   UNL d   1      59.109  49.703  51.719  0.00  0.00     0.016 A 
ATOM      4  N   UNL d   1      59.413  49.703  50.097  0.00  0.00    -0.239 NA
ATOM      5  C   UNL d   1      60.037  49.705  50.633  0.00  0.00     0.120 A 
ATOM      6  C   UNL d   1      58.636  49.701  50.371  0.00  0.00     0.081 A 
ATOM      7  C   UNL d   1      57.709  49.699  51.457  0.00  0.00     0.193 A 
ATOM      8  C   UNL d   1      60.521  49.706  51.987  0.00  0.00     0.103 C 
ATOM      9  N   UNL d   1      61.148  49.708  52.537  0.00  0.00    -0.191 NA
ATOM     10  C   UNL d   1      57.228  49.698  50.107  0.00  0.00     0.042 A 
ATOM     11  C   UNL d   1      57.076  49.697  50.918  0.00  0.00     0.019 A 
ATOM     12  C   UNL d   1      58.012  49.700  49.835  0.00  0.00    -0.003 A 
ATOM     13  O   UNL d   1      57.557  49.699  52.266  0.00  0.00    -0.287 OA
ATOM     14  C   UNL d   1      57.098  49.698  49.286  0.00  0.00     0.009 C 
ATOM     15  C   UNL d   1      56.449  49.696  50.372  0.00  0.00     0.009 C 
ENDROOT
BRANCH   3  16
ATOM     16  C   UNL d   1      58.958  49.702  52.529  0.00  0.00     0.001 C 
ATOM     17  C   UNL d   1      59.578  49.623  53.065  0.00  0.00     0.000 C 
ENDBRANCH   3  16
BRANCH   5  18
ATOM     18  S   UNL d   1      60.825  49.707  50.361  0.00  0.00    -0.067 SA
BRANCH  18  19
ATOM     19  C   UNL d   1      61.051  49.211  49.741  0.00  0.00     0.042 C 
BRANCH  19  20
ATOM     20  C   UNL d   1      61.690  48.697  49.839  0.00  0.00     0.070 C 
BRANCH  20  21
ATOM     21  C   UNL d   1      61.595  47.883  49.669  0.00  0.00     0.280 C 
ATOM     22  N   UNL d   1      61.970  47.324  50.144  0.00  0.00    -0.208 NA
ATOM     23  O   UNL d   1      61.128  47.651  49.029  0.00  0.00    -0.265 OA
BRANCH  22  24
ATOM     24  C   UNL d   1      61.876  46.506  49.975  0.00  0.00     0.087 A 
ATOM     25  C   UNL d   1      61.585  46.002  50.560  0.00  0.00     0.043 A 
ATOM     26  C   UNL d   1      61.494  45.201  50.390  0.00  0.00     0.096 A 
ATOM     27  C   UNL d   1      61.690  44.894  49.642  0.00  0.00     0.024 A 
ATOM     28  C   UNL d   1      61.980  45.402  49.061  0.00  0.00     0.004 A 
ATOM     29  C   UNL d   1      62.075  46.210  49.221  0.00  0.00     0.019 A 
BRANCH  26  30
ATOM     30  O   UNL d   1      61.203  44.696  50.974  0.00  0.00    -0.328 OA
ATOM     31  C   UNL d   1      60.388  44.655  51.114  0.00  0.00     0.181 C 
ENDBRANCH  26  30
ENDBRANCH  22  24
ENDBRANCH  20  21
ENDBRANCH  19  20
ENDBRANCH  18  19
ENDBRANCH   5  18
TORSDOF 7
ENDMDL
