MODEL 1
REMARK VINA RESULT:      -3.0      0.000      0.000
REMARK  2 active torsions:
REMARK  status: ('A' for Active; 'I' for Inactive)
REMARK    1  A    between atoms: C_10  and  C_1 
REMARK    2  A    between atoms: N_6  and  C_10 
ROOT
ATOM      1  C   UNL d   1      56.455  -0.572  32.872  0.00  0.00     0.025 A 
ATOM      2  C   UNL d   1      56.887  -0.595  32.169  0.00  0.00     0.025 A 
ATOM      3  C   UNL d   1      57.376   0.021  31.959  0.00  0.00     0.013 A 
ATOM      4  C   UNL d   1      56.817  -1.252  31.681  0.00  0.00     0.103 A 
ATOM      5  O   UNL d   1      56.324  -1.886  31.881  0.00  0.00    -0.273 OA
ATOM      6  C   UNL d   1      57.800  -0.008  31.264  0.00  0.00     0.058 A 
ATOM      7  C   UNL d   1      55.895  -1.854  32.586  0.00  0.00     0.300 A 
ATOM      8  C   UNL d   1      55.957  -1.203  33.082  0.00  0.00     0.070 A 
ATOM      9  C   UNL d   1      57.735  -0.665  30.769  0.00  0.00     0.013 A 
ATOM     10  C   UNL d   1      57.241  -1.287  30.981  0.00  0.00     0.026 A 
ATOM     11  O   UNL d   1      55.403  -2.478  32.794  0.00  0.00    -0.259 OA
ATOM     12 CL   UNL d   1      58.297   0.619  31.052  0.00  0.00    -0.082 Cl
ATOM     13  C   UNL d   1      57.441   0.677  32.455  0.00  0.00     0.001 C 
ATOM     14  C   UNL d   1      58.167  -0.694  30.061  0.00  0.00     0.001 C 
ENDROOT
BRANCH   1  15
ATOM     15  C   UNL d   1      56.520   0.085  33.367  0.00  0.00     0.080 C 
BRANCH  15  16
ATOM     16  N   UNL d   1      55.896   0.281  33.878  0.00  0.00    -0.304 N 
ATOM     17  C   UNL d   1      56.055   0.477  34.664  0.00  0.00     0.064 A 
ATOM     18  C   UNL d   1      56.829   0.480  34.949  0.00  0.00     0.019 C 
ATOM     19  C   UNL d   1      55.433   0.670  35.163  0.00  0.00     0.018 A 
ATOM     20  C   UNL d   1      54.660   0.670  34.887  0.00  0.00     0.003 A 
ATOM     21  C   UNL d   1      54.502   0.474  34.101  0.00  0.00     0.019 A 
ATOM     22  C   UNL d   1      55.117   0.279  33.592  0.00  0.00     0.080 A 
ENDBRANCH  15  16
ENDBRANCH   1  15
TORSDOF 2
ENDMDL
MODEL 2
REMARK VINA RESULT:      -2.9      2.890      5.401
REMARK  2 active torsions:
REMARK  status: ('A' for Active; 'I' for Inactive)
REMARK    1  A    between atoms: C_10  and  C_1 
REMARK    2  A    between atoms: N_6  and  C_10 
ROOT
ATOM      1  C   UNL d   1      58.722  -0.978  29.556  0.00  0.00     0.025 A 
ATOM      2  C   UNL d   1      58.252  -0.569  30.098  0.00  0.00     0.025 A 
ATOM      3  C   UNL d   1      57.783  -0.969  30.629  0.00  0.00     0.013 A 
ATOM      4  C   UNL d   1      58.265   0.252  30.093  0.00  0.00     0.103 A 
ATOM      5  O   UNL d   1      58.737   0.672  29.560  0.00  0.00    -0.273 OA
ATOM      6  C   UNL d   1      57.321  -0.560  31.161  0.00  0.00     0.058 A 
ATOM      7  C   UNL d   1      59.204   0.255  29.021  0.00  0.00     0.300 A 
ATOM      8  C   UNL d   1      59.200  -0.566  29.016  0.00  0.00     0.070 A 
ATOM      9  C   UNL d   1      57.329   0.265  31.163  0.00  0.00     0.013 A 
ATOM     10  C   UNL d   1      57.804   0.669  30.626  0.00  0.00     0.026 A 
ATOM     11  O   UNL d   1      59.676   0.663  28.488  0.00  0.00    -0.259 OA
ATOM     12 CL   UNL d   1      56.844  -0.968  31.701  0.00  0.00    -0.082 Cl
ATOM     13  C   UNL d   1      57.776  -1.794  30.626  0.00  0.00     0.001 C 
ATOM     14  C   UNL d   1      56.859   0.682  31.705  0.00  0.00     0.001 C 
ENDROOT
BRANCH   1  15
ATOM     15  C   UNL d   1      58.715  -1.803  29.554  0.00  0.00     0.080 C 
BRANCH  15  16
ATOM     16  N   UNL d   1      59.376  -2.223  29.280  0.00  0.00    -0.304 N 
ATOM     17  C   UNL d   1      59.279  -2.833  28.733  0.00  0.00     0.064 A 
ATOM     18  C   UNL d   1      58.529  -3.033  28.455  0.00  0.00     0.019 C 
ATOM     19  C   UNL d   1      59.938  -3.243  28.467  0.00  0.00     0.018 A 
ATOM     20  C   UNL d   1      60.688  -3.051  28.740  0.00  0.00     0.003 A 
ATOM     21  C   UNL d   1      60.785  -2.440  29.286  0.00  0.00     0.019 A 
ATOM     22  C   UNL d   1      60.132  -2.022  29.560  0.00  0.00     0.080 A 
ENDBRANCH  15  16
ENDBRANCH   1  15
TORSDOF 2
ENDMDL
MODEL 3
REMARK VINA RESULT:      -2.6      2.039      4.439
REMARK  2 active torsions:
REMARK  status: ('A' for Active; 'I' for Inactive)
REMARK    1  A    between atoms: C_10  and  C_1 
REMARK    2  A    between atoms: N_6  and  C_10 
ROOT
ATOM      1  C   UNL d   1      58.523  -0.534  30.514  0.00  0.00     0.025 A 
ATOM      2  C   UNL d   1      57.894  -0.531  31.049  0.00  0.00     0.025 A 
ATOM      3  C   UNL d   1      57.810   0.068  31.593  0.00  0.00     0.013 A 
ATOM      4  C   UNL d   1      57.350  -1.146  31.025  0.00  0.00     0.103 A 
ATOM      5  O   UNL d   1      57.421  -1.762  30.477  0.00  0.00    -0.273 OA
ATOM      6  C   UNL d   1      57.188   0.065  32.118  0.00  0.00     0.058 A 
ATOM      7  C   UNL d   1      58.053  -1.757  29.946  0.00  0.00     0.300 A 
ATOM      8  C   UNL d   1      58.604  -1.148  29.961  0.00  0.00     0.070 A 
ATOM      9  C   UNL d   1      56.637  -0.549  32.100  0.00  0.00     0.013 A 
ATOM     10  C   UNL d   1      56.721  -1.155  31.550  0.00  0.00     0.026 A 
ATOM     11  O   UNL d   1      58.133  -2.364  29.399  0.00  0.00    -0.259 OA
ATOM     12 CL   UNL d   1      57.104   0.676  32.671  0.00  0.00    -0.082 Cl
ATOM     13  C   UNL d   1      58.362   0.682  31.611  0.00  0.00     0.001 C 
ATOM     14  C   UNL d   1      56.002  -0.552  32.635  0.00  0.00     0.001 C 
ENDROOT
BRANCH   1  15
ATOM     15  C   UNL d   1      59.073   0.080  30.533  0.00  0.00     0.080 C 
BRANCH  15  16
ATOM     16  N   UNL d   1      59.492   0.282  29.845  0.00  0.00    -0.304 N 
ATOM     17  C   UNL d   1      60.312   0.367  29.873  0.00  0.00     0.064 A 
ATOM     18  C   UNL d   1      60.723   0.254  30.578  0.00  0.00     0.019 C 
ATOM     19  C   UNL d   1      60.718   0.567  29.188  0.00  0.00     0.018 A 
ATOM     20  C   UNL d   1      60.316   0.682  28.482  0.00  0.00     0.003 A 
ATOM     21  C   UNL d   1      59.496   0.596  28.455  0.00  0.00     0.019 A 
ATOM     22  C   UNL d   1      59.078   0.396  29.134  0.00  0.00     0.080 A 
ENDBRANCH  15  16
ENDBRANCH   1  15
TORSDOF 2
ENDMDL
MODEL 4
REMARK VINA RESULT:      -2.4      1.799      3.965
REMARK  2 active torsions:
REMARK  status: ('A' for Active; 'I' for Inactive)
REMARK    1  A    between atoms: C_10  and  C_1 
REMARK    2  A    between atoms: N_6  and  C_10 
ROOT
ATOM      1  C   UNL d   1      57.145   0.137  32.574  0.00  0.00     0.025 A 
ATOM      2  C   UNL d   1      56.632   0.271  33.208  0.00  0.00     0.025 A 
ATOM      3  C   UNL d   1      55.833   0.137  33.132  0.00  0.00     0.013 A 
ATOM      4  C   UNL d   1      56.941   0.542  33.918  0.00  0.00     0.103 A 
ATOM      5  O   UNL d   1      57.751   0.682  34.009  0.00  0.00    -0.273 OA
ATOM      6  C   UNL d   1      55.331   0.271  33.761  0.00  0.00     0.058 A 
ATOM      7  C   UNL d   1      58.257   0.546  33.371  0.00  0.00     0.300 A 
ATOM      8  C   UNL d   1      57.960   0.275  32.656  0.00  0.00     0.070 A 
ATOM      9  C   UNL d   1      55.635   0.543  34.478  0.00  0.00     0.013 A 
ATOM     10  C   UNL d   1      56.442   0.678  34.554  0.00  0.00     0.026 A 
ATOM     11  O   UNL d   1      59.063   0.682  33.452  0.00  0.00    -0.259 OA
ATOM     12 CL   UNL d   1      54.518   0.135  33.683  0.00  0.00    -0.082 Cl
ATOM     13  C   UNL d   1      55.530  -0.135  32.415  0.00  0.00     0.001 C 
ATOM     14  C   UNL d   1      55.124   0.680  35.118  0.00  0.00     0.001 C 
ENDROOT
BRANCH   1  15
ATOM     15  C   UNL d   1      56.842  -0.135  31.857  0.00  0.00     0.080 C 
BRANCH  15  16
ATOM     16  N   UNL d   1      57.306  -0.095  31.170  0.00  0.00    -0.304 N 
ATOM     17  C   UNL d   1      57.535  -0.790  30.788  0.00  0.00     0.064 A 
ATOM     18  C   UNL d   1      57.308  -1.526  31.082  0.00  0.00     0.019 C 
ATOM     19  C   UNL d   1      57.994  -0.742  30.109  0.00  0.00     0.018 A 
ATOM     20  C   UNL d   1      58.224  -0.013  29.810  0.00  0.00     0.003 A 
ATOM     21  C   UNL d   1      57.993   0.681  30.193  0.00  0.00     0.019 A 
ATOM     22  C   UNL d   1      57.534   0.646  30.874  0.00  0.00     0.080 A 
ENDBRANCH  15  16
ENDBRANCH   1  15
TORSDOF 2
ENDMDL
MODEL 5
REMARK VINA RESULT:      -2.3      3.482      5.019
REMARK  2 active torsions:
REMARK  status: ('A' for Active; 'I' for Inactive)
REMARK    1  A    between atoms: C_10  and  C_1 
REMARK    2  A    between atoms: N_6  and  C_10 
ROOT
ATOM      1  C   UNL d   1      59.359  -1.000  29.189  0.00  0.00     0.025 A 
ATOM      2  C   UNL d   1      59.696  -1.735  29.017  0.00  0.00     0.025 A 
ATOM      3  C   UNL d   1      59.228  -2.379  28.849  0.00  0.00     0.013 A 
ATOM      4  C   UNL d   1      60.514  -1.806  29.018  0.00  0.00     0.103 A 
ATOM      5  O   UNL d   1      61.002  -1.160  29.187  0.00  0.00    -0.273 OA
ATOM      6  C   UNL d   1      59.566  -3.101  28.680  0.00  0.00     0.058 A 
ATOM      7  C   UNL d   1      60.657  -0.429  29.358  0.00  0.00     0.300 A 
ATOM      8  C   UNL d   1      59.840  -0.345  29.360  0.00  0.00     0.070 A 
ATOM      9  C   UNL d   1      60.387  -3.181  28.680  0.00  0.00     0.013 A 
ATOM     10  C   UNL d   1      60.859  -2.529  28.850  0.00  0.00     0.026 A 
ATOM     11  O   UNL d   1      61.133   0.218  29.527  0.00  0.00    -0.259 OA
ATOM     12 CL   UNL d   1      59.089  -3.756  28.509  0.00  0.00    -0.082 Cl
ATOM     13  C   UNL d   1      58.407  -2.298  28.849  0.00  0.00     0.001 C 
ATOM     14  C   UNL d   1      60.731  -3.916  28.508  0.00  0.00     0.001 C 
ENDROOT
BRANCH   1  15
ATOM     15  C   UNL d   1      58.538  -0.920  29.189  0.00  0.00     0.080 C 
BRANCH  15  16
ATOM     16  N   UNL d   1      58.165  -0.482  29.788  0.00  0.00    -0.304 N 
ATOM     17  C   UNL d   1      57.838   0.255  29.615  0.00  0.00     0.064 A 
ATOM     18  C   UNL d   1      57.877   0.564  28.851  0.00  0.00     0.019 C 
ATOM     19  C   UNL d   1      57.471   0.682  30.212  0.00  0.00     0.018 A 
ATOM     20  C   UNL d   1      57.428   0.382  30.975  0.00  0.00     0.003 A 
ATOM     21  C   UNL d   1      57.755  -0.356  31.147  0.00  0.00     0.019 A 
ATOM     22  C   UNL d   1      58.126  -0.793  30.557  0.00  0.00     0.080 A 
ENDBRANCH  15  16
ENDBRANCH   1  15
TORSDOF 2
ENDMDL
MODEL 6
REMARK VINA RESULT:      -2.1      1.698      2.478
REMARK  2 active torsions:
REMARK  status: ('A' for Active; 'I' for Inactive)
REMARK    1  A    between atoms: C_10  and  C_1 
REMARK    2  A    between atoms: N_6  and  C_10 
ROOT
ATOM      1  C   UNL d   1      57.661   0.225  31.973  0.00  0.00     0.025 A 
ATOM      2  C   UNL d   1      58.155   0.337  31.321  0.00  0.00     0.025 A 
ATOM      3  C   UNL d   1      57.880   0.225  30.564  0.00  0.00     0.013 A 
ATOM      4  C   UNL d   1      58.934   0.564  31.449  0.00  0.00     0.103 A 
ATOM      5  O   UNL d   1      59.228   0.682  32.212  0.00  0.00    -0.273 OA
ATOM      6  C   UNL d   1      58.372   0.337  29.924  0.00  0.00     0.058 A 
ATOM      7  C   UNL d   1      58.726   0.568  32.858  0.00  0.00     0.300 A 
ATOM      8  C   UNL d   1      57.946   0.340  32.744  0.00  0.00     0.070 A 
ATOM      9  C   UNL d   1      59.156   0.566  30.045  0.00  0.00     0.013 A 
ATOM     10  C   UNL d   1      59.434   0.679  30.810  0.00  0.00     0.026 A 
ATOM     11  O   UNL d   1      59.009   0.682  33.621  0.00  0.00    -0.259 OA
ATOM     12 CL   UNL d   1      58.091   0.223  29.154  0.00  0.00    -0.082 Cl
ATOM     13  C   UNL d   1      57.096  -0.004  30.444  0.00  0.00     0.001 C 
ATOM     14  C   UNL d   1      59.658   0.680  29.394  0.00  0.00     0.001 C 
ENDROOT
BRANCH   1  15
ATOM     15  C   UNL d   1      56.877  -0.004  31.853  0.00  0.00     0.080 C 
BRANCH  15  16
ATOM     16  N   UNL d   1      56.349  -0.023  32.493  0.00  0.00    -0.304 N 
ATOM     17  C   UNL d   1      56.011  -0.739  32.726  0.00  0.00     0.064 A 
ATOM     18  C   UNL d   1      56.192  -1.438  32.329  0.00  0.00     0.019 C 
ATOM     19  C   UNL d   1      55.489  -0.749  33.359  0.00  0.00     0.018 A 
ATOM     20  C   UNL d   1      55.303  -0.057  33.759  0.00  0.00     0.003 A 
ATOM     21  C   UNL d   1      55.642   0.659  33.525  0.00  0.00     0.019 A 
ATOM     22  C   UNL d   1      56.166   0.682  32.892  0.00  0.00     0.080 A 
ENDBRANCH  15  16
ENDBRANCH   1  15
TORSDOF 2
ENDMDL
MODEL 7
REMARK VINA RESULT:      -2.1      2.237      4.607
REMARK  2 active torsions:
REMARK  status: ('A' for Active; 'I' for Inactive)
REMARK    1  A    between atoms: C_10  and  C_1 
REMARK    2  A    between atoms: N_6  and  C_10 
ROOT
ATOM      1  C   UNL d   1      58.517   0.330  31.055  0.00  0.00     0.025 A 
ATOM      2  C   UNL d   1      58.042   0.416  31.725  0.00  0.00     0.025 A 
ATOM      3  C   UNL d   1      57.234   0.330  31.679  0.00  0.00     0.013 A 
ATOM      4  C   UNL d   1      58.399   0.591  32.444  0.00  0.00     0.103 A 
ATOM      5  O   UNL d   1      59.219   0.682  32.507  0.00  0.00    -0.273 OA
ATOM      6  C   UNL d   1      56.771   0.416  32.344  0.00  0.00     0.058 A 
ATOM      7  C   UNL d   1      59.686   0.594  31.831  0.00  0.00     0.300 A 
ATOM      8  C   UNL d   1      59.340   0.419  31.107  0.00  0.00     0.070 A 
ATOM      9  C   UNL d   1      57.123   0.592  33.070  0.00  0.00     0.013 A 
ATOM     10  C   UNL d   1      57.939   0.679  33.116  0.00  0.00     0.026 A 
ATOM     11  O   UNL d   1      60.500   0.682  31.883  0.00  0.00    -0.259 OA
ATOM     12 CL   UNL d   1      55.950   0.328  32.296  0.00  0.00    -0.082 Cl
ATOM     13  C   UNL d   1      56.884   0.154  30.953  0.00  0.00     0.001 C 
ATOM     14  C   UNL d   1      56.651   0.680  33.747  0.00  0.00     0.001 C 
ENDROOT
BRANCH   1  15
ATOM     15  C   UNL d   1      58.165   0.154  30.330  0.00  0.00     0.080 C 
BRANCH  15  16
ATOM     16  N   UNL d   1      58.537  -0.372  29.806  0.00  0.00    -0.304 N 
ATOM     17  C   UNL d   1      58.728  -0.126  29.042  0.00  0.00     0.064 A 
ATOM     18  C   UNL d   1      58.552   0.639  28.791  0.00  0.00     0.019 C 
ATOM     19  C   UNL d   1      59.096  -0.652  28.531  0.00  0.00     0.018 A 
ATOM     20  C   UNL d   1      59.274  -1.416  28.774  0.00  0.00     0.003 A 
ATOM     21  C   UNL d   1      59.083  -1.661  29.538  0.00  0.00     0.019 A 
ATOM     22  C   UNL d   1      58.714  -1.143  30.060  0.00  0.00     0.080 A 
ENDBRANCH  15  16
ENDBRANCH   1  15
TORSDOF 2
ENDMDL
MODEL 8
REMARK VINA RESULT:      -0.9      2.407      4.848
REMARK  2 active torsions:
REMARK  status: ('A' for Active; 'I' for Inactive)
REMARK    1  A    between atoms: C_10  and  C_1 
REMARK    2  A    between atoms: N_6  and  C_10 
ROOT
ATOM      1  C   UNL d   1      58.755   0.331  30.320  0.00  0.00     0.025 A 
ATOM      2  C   UNL d   1      58.209   0.416  30.934  0.00  0.00     0.025 A 
ATOM      3  C   UNL d   1      58.439   0.338  31.710  0.00  0.00     0.013 A 
ATOM      4  C   UNL d   1      57.426   0.583  30.749  0.00  0.00     0.103 A 
ATOM      5  O   UNL d   1      57.178   0.665  29.964  0.00  0.00    -0.273 OA
ATOM      6  C   UNL d   1      57.896   0.424  32.312  0.00  0.00     0.058 A 
ATOM      7  C   UNL d   1      57.731   0.578  29.356  0.00  0.00     0.300 A 
ATOM      8  C   UNL d   1      58.516   0.412  29.529  0.00  0.00     0.070 A 
ATOM      9  C   UNL d   1      57.108   0.591  32.134  0.00  0.00     0.013 A 
ATOM     10  C   UNL d   1      56.876   0.670  31.348  0.00  0.00     0.026 A 
ATOM     11  O   UNL d   1      57.494   0.658  28.574  0.00  0.00    -0.259 OA
ATOM     12 CL   UNL d   1      58.131   0.344  33.102  0.00  0.00    -0.082 Cl
ATOM     13  C   UNL d   1      59.227   0.171  31.888  0.00  0.00     0.001 C 
ATOM     14  C   UNL d   1      56.554   0.678  32.746  0.00  0.00     0.001 C 
ENDROOT
BRANCH   1  15
ATOM     15  C   UNL d   1      59.543   0.163  30.498  0.00  0.00     0.080 C 
BRANCH  15  16
ATOM     16  N   UNL d   1      59.978  -0.346  30.008  0.00  0.00    -0.304 N 
ATOM     17  C   UNL d   1      60.681  -0.084  29.663  0.00  0.00     0.064 A 
ATOM     18  C   UNL d   1      60.955   0.682  29.800  0.00  0.00     0.019 C 
ATOM     19  C   UNL d   1      61.106  -0.593  29.181  0.00  0.00     0.018 A 
ATOM     20  C   UNL d   1      60.839  -1.356  29.040  0.00  0.00     0.003 A 
ATOM     21  C   UNL d   1      60.136  -1.618  29.385  0.00  0.00     0.019 A 
ATOM     22  C   UNL d   1      59.701  -1.117  29.871  0.00  0.00     0.080 A 
ENDBRANCH  15  16
ENDBRANCH   1  15
TORSDOF 2
ENDMDL
MODEL 9
REMARK VINA RESULT:      -0.0      2.310      3.475
REMARK  2 active torsions:
REMARK  status: ('A' for Active; 'I' for Inactive)
REMARK    1  A    between atoms: C_10  and  C_1 
REMARK    2  A    between atoms: N_6  and  C_10 
ROOT
ATOM      1  C   UNL d   1      58.175   0.496  30.276  0.00  0.00     0.025 A 
ATOM      2  C   UNL d   1      58.912   0.389  29.919  0.00  0.00     0.025 A 
ATOM      3  C   UNL d   1      59.584   0.293  30.368  0.00  0.00     0.013 A 
ATOM      4  C   UNL d   1      58.958   0.381  29.099  0.00  0.00     0.103 A 
ATOM      5  O   UNL d   1      58.284   0.478  28.630  0.00  0.00    -0.273 OA
ATOM      6  C   UNL d   1      60.308   0.188  30.010  0.00  0.00     0.058 A 
ATOM      7  C   UNL d   1      57.552   0.584  28.995  0.00  0.00     0.300 A 
ATOM      8  C   UNL d   1      57.493   0.594  29.814  0.00  0.00     0.070 A 
ATOM      9  C   UNL d   1      60.362   0.179  29.187  0.00  0.00     0.013 A 
ATOM     10  C   UNL d   1      59.683   0.276  28.733  0.00  0.00     0.026 A 
ATOM     11  O   UNL d   1      56.877   0.681  28.538  0.00  0.00    -0.259 OA
ATOM     12 CL   UNL d   1      60.991   0.090  30.468  0.00  0.00    -0.082 Cl
ATOM     13  C   UNL d   1      59.529   0.302  31.192  0.00  0.00     0.001 C 
ATOM     14  C   UNL d   1      61.100   0.072  28.822  0.00  0.00     0.001 C 
ENDROOT
BRANCH   1  15
ATOM     15  C   UNL d   1      58.121   0.505  31.099  0.00  0.00     0.080 C 
BRANCH  15  16
ATOM     16  N   UNL d   1      57.589  -0.001  31.485  0.00  0.00    -0.304 N 
ATOM     17  C   UNL d   1      57.445   0.090  32.292  0.00  0.00     0.064 A 
ATOM     18  C   UNL d   1      57.825   0.682  32.722  0.00  0.00     0.019 C 
ATOM     19  C   UNL d   1      56.917  -0.415  32.666  0.00  0.00     0.018 A 
ATOM     20  C   UNL d   1      56.534  -1.006  32.244  0.00  0.00     0.003 A 
ATOM     21  C   UNL d   1      56.679  -1.097  31.437  0.00  0.00     0.019 A 
ATOM     22  C   UNL d   1      57.205  -0.597  31.051  0.00  0.00     0.080 A 
ENDBRANCH  15  16
ENDBRANCH   1  15
TORSDOF 2
ENDMDL
