MODEL 1
REMARK VINA RESULT:      46.2      0.000      0.000
REMARK  6 active torsions:
REMARK  status: ('A' for Active; 'I' for Inactive)
REMARK    1  A    between atoms: N_2  and  S_1 
REMARK    2  A    between atoms: C_5  and  S_1 
REMARK    3  A    between atoms: S_8  and  C_3 
REMARK    4  A    between atoms: C_13  and  S_8 
REMARK    5  A    between atoms: C_17  and  C_13 
REMARK    6  A    between atoms: O_21  and  C_15 
ROOT
ATOM      1  N   UNL d   1     -55.462-100.012 -44.426  0.00  0.00    -0.208 N 
ATOM      2  C   UNL d   1     -56.048 -99.450 -44.246  0.00  0.00     0.189 A 
ATOM      3  N   UNL d   1     -55.672 -98.759 -43.990  0.00  0.00    -0.219 NA
ATOM      4  C   UNL d   1     -54.721 -99.664 -44.278  0.00  0.00     0.114 A 
ATOM      5  C   UNL d   1     -54.855 -98.895 -44.011  0.00  0.00     0.121 A 
ENDROOT
BRANCH   1   6
ATOM      6  S   UNL d   1     -55.597-100.780 -44.702  0.00  0.00     0.273 S 
ATOM      7  O   UNL d   1     -55.794-101.421 -45.188  0.00  0.00    -0.200 OA
ATOM      8  O   UNL d   1     -55.811-100.449 -45.417  0.00  0.00    -0.200 OA
BRANCH   6   9
ATOM      9  C   UNL d   1     -55.384-101.135 -43.986  0.00  0.00     0.104 A 
ATOM     10  C   UNL d   1     -54.923-100.714 -43.451  0.00  0.00     0.015 A 
ATOM     11  C   UNL d   1     -54.714-101.077 -42.737  0.00  0.00     0.025 A 
ATOM     12  C   UNL d   1     -54.969-101.848 -42.571  0.00  0.00     0.094 A 
ATOM     13  C   UNL d   1     -55.428-102.260 -43.110  0.00  0.00     0.025 A 
ATOM     14  C   UNL d   1     -55.637-101.899 -43.825  0.00  0.00     0.015 A 
BRANCH  12  15
ATOM     15  O   UNL d   1     -54.755-102.199 -41.856  0.00  0.00    -0.328 OA
ATOM     16  C   UNL d   1     -55.322-102.626 -41.428  0.00  0.00     0.181 C 
ENDBRANCH  12  15
ENDBRANCH   6   9
ENDBRANCH   1   6
BRANCH   2  17
ATOM     17  S   UNL d   1     -56.869 -99.564 -44.314  0.00  0.00    -0.049 SA
BRANCH  17  18
ATOM     18  C   UNL d   1     -57.387 -98.986 -44.034  0.00  0.00     0.038 C 
BRANCH  18  19
ATOM     19  C   UNL d   1     -58.135 -98.913 -44.367  0.00  0.00     0.009 A 
ATOM     20  C   UNL d   1     -58.220 -98.871 -45.202  0.00  0.00     0.030 A 
ATOM     21  C   UNL d   1     -58.964 -98.798 -45.539  0.00  0.00     0.140 A 
ATOM     22  F   UNL d   1     -59.043 -98.758 -46.362  0.00  0.00    -0.204 F 
ATOM     23  C   UNL d   1     -59.639 -98.765 -45.054  0.00  0.00     0.030 A 
ATOM     24  C   UNL d   1     -59.558 -98.805 -44.235  0.00  0.00     0.002 A 
ATOM     25  C   UNL d   1     -58.805 -98.879 -43.891  0.00  0.00     0.001 A 
ENDBRANCH  18  19
ENDBRANCH  17  18
ENDBRANCH   2  17
TORSDOF 6
ENDMDL
