MODEL 1
REMARK VINA RESULT:      11.0      0.000      0.000
REMARK  7 active torsions:
REMARK  status: ('A' for Active; 'I' for Inactive)
REMARK    1  A    between atoms: C_7  and  C_1 
REMARK    2  A    between atoms: C_9  and  N_2 
REMARK    3  A    between atoms: C_15  and  C_7 
REMARK    4  A    between atoms: C_8  and  C_9 
REMARK       I    between atoms: N_14  and  C_8 
REMARK    5  A    between atoms: C_20  and  N_14 
REMARK    6  A    between atoms: C_33  and  C_27 
REMARK    7  A    between atoms: C_34  and  C_32 
ROOT
ATOM      1  C   UNL d   1      56.465  -0.557  32.571  0.00  0.00     0.095 A 
ATOM      2  N   UNL d   1      57.463  -0.014  31.697  0.00  0.00    -0.300 N 
ATOM      3  C   UNL d   1      56.974  -0.383  33.234  0.00  0.00     0.202 A 
ATOM      4  C   UNL d   1      56.708  -0.374  31.811  0.00  0.00     0.087 A 
ATOM      5  C   UNL d   1      57.713  -0.029  33.096  0.00  0.00     0.055 A 
ATOM      6  C   UNL d   1      57.966   0.159  32.339  0.00  0.00     0.067 A 
ATOM      7  C   UNL d   1      58.708   0.513  32.230  0.00  0.00     0.018 A 
ATOM      8  C   UNL d   1      58.227   0.149  33.742  0.00  0.00     0.005 A 
ATOM      9  O   UNL d   1      56.735  -0.565  33.986  0.00  0.00    -0.286 OA
ATOM     10  C   UNL d   1      58.961   0.500  33.620  0.00  0.00     0.000 A 
ATOM     11  C   UNL d   1      59.202   0.682  32.863  0.00  0.00     0.002 A 
ENDROOT
BRANCH   2  12
ATOM     12  C   UNL d   1      57.704   0.168  30.941  0.00  0.00     0.144 C 
BRANCH  12  13
ATOM     13  C   UNL d   1      57.880  -0.435  30.408  0.00  0.00     0.297 C 
ATOM     14  N   UNL d   1      58.594  -0.833  30.460  0.00  0.00    -0.207 NA
ATOM     15  O   UNL d   1      57.337  -0.637  29.821  0.00  0.00    -0.264 OA
BRANCH  14  16
ATOM     16  C   UNL d   1      58.771  -1.437  29.926  0.00  0.00     0.087 A 
ATOM     17  C   UNL d   1      59.242  -2.057  30.164  0.00  0.00     0.045 A 
ATOM     18  C   UNL d   1      59.420  -2.661  29.634  0.00  0.00     0.121 A 
ATOM     19  O   UNL d   1      59.881  -3.352  29.726  0.00  0.00    -0.299 OA
ATOM     20  C   UNL d   1      59.119  -2.634  28.864  0.00  0.00     0.119 A 
ATOM     21  C   UNL d   1      59.868  -3.763  28.999  0.00  0.00     0.304 A 
ATOM     22  O   UNL d   1      59.395  -3.318  28.464  0.00  0.00    -0.300 OA
ATOM     23  C   UNL d   1      58.648  -2.014  28.626  0.00  0.00     0.028 A 
ATOM     24  C   UNL d   1      58.471  -1.410  29.160  0.00  0.00     0.021 A 
ENDBRANCH  14  16
ENDBRANCH  12  13
ENDBRANCH   2  12
BRANCH   1  25
ATOM     25  C   UNL d   1      55.731  -0.908  32.693  0.00  0.00     0.200 C 
ATOM     26  O   UNL d   1      55.584  -1.656  32.396  0.00  0.00    -0.286 OA
BRANCH  25  27
ATOM     27  C   UNL d   1      55.145  -0.511  33.113  0.00  0.00     0.039 A 
ATOM     28  C   UNL d   1      54.393  -0.855  33.225  0.00  0.00     0.003 A 
ATOM     29  C   UNL d   1      53.795  -0.458  33.649  0.00  0.00     0.000 A 
ATOM     30  C   UNL d   1      53.949   0.284  33.961  0.00  0.00     0.000 A 
ATOM     31  C   UNL d   1      54.710   0.618  33.841  0.00  0.00     0.000 A 
ATOM     32  C   UNL d   1      55.309   0.226  33.419  0.00  0.00     0.003 A 
BRANCH  30  33
ATOM     33  C   UNL d   1      53.350   0.681  34.385  0.00  0.00     0.000 C 
ATOM     34  C   UNL d   1      52.839   0.239  34.840  0.00  0.00     0.000 C 
ENDBRANCH  30  33
ENDBRANCH  25  27
ENDBRANCH   1  25
BRANCH  10  35
ATOM     35  C   UNL d   1      59.450   0.665  34.269  0.00  0.00     0.000 C 
ATOM     36  C   UNL d   1      60.280   0.661  34.176  0.00  0.00     0.000 C 
ENDBRANCH  10  35
TORSDOF 7
ENDMDL
MODEL 2
REMARK VINA RESULT:      12.7      7.398      9.168
REMARK  7 active torsions:
REMARK  status: ('A' for Active; 'I' for Inactive)
REMARK    1  A    between atoms: C_7  and  C_1 
REMARK    2  A    between atoms: C_9  and  N_2 
REMARK    3  A    between atoms: C_15  and  C_7 
REMARK    4  A    between atoms: C_8  and  C_9 
REMARK       I    between atoms: N_14  and  C_8 
REMARK    5  A    between atoms: C_20  and  N_14 
REMARK    6  A    between atoms: C_33  and  C_27 
REMARK    7  A    between atoms: C_34  and  C_32 
ROOT
ATOM      1  C   UNL d   1      58.369  -9.620  32.617  0.00  0.00     0.095 A 
ATOM      2  N   UNL d   1      59.126  -9.734  31.405  0.00  0.00    -0.300 N 
ATOM      3  C   UNL d   1      57.655  -9.617  32.151  0.00  0.00     0.202 A 
ATOM      4  C   UNL d   1      59.098  -9.678  32.248  0.00  0.00     0.087 A 
ATOM      5  C   UNL d   1      57.709  -9.673  31.324  0.00  0.00     0.055 A 
ATOM      6  C   UNL d   1      58.433  -9.732  30.944  0.00  0.00     0.067 A 
ATOM      7  C   UNL d   1      58.458  -9.787  30.116  0.00  0.00     0.018 A 
ATOM      8  C   UNL d   1      57.010  -9.671  30.850  0.00  0.00     0.005 A 
ATOM      9  O   UNL d   1      56.934  -9.559  32.517  0.00  0.00    -0.286 OA
ATOM     10  C   UNL d   1      57.050  -9.727  30.030  0.00  0.00     0.000 A 
ATOM     11  C   UNL d   1      57.775  -9.785  29.663  0.00  0.00     0.002 A 
ENDROOT
BRANCH   2  12
ATOM     12  C   UNL d   1      59.850  -9.792  31.038  0.00  0.00     0.144 C 
BRANCH  12  13
ATOM     13  C   UNL d   1      60.064  -9.246  30.458  0.00  0.00     0.297 C 
ATOM     14  N   UNL d   1      60.339  -8.505  30.673  0.00  0.00    -0.207 NA
ATOM     15  O   UNL d   1      60.000  -9.447  29.660  0.00  0.00    -0.264 OA
BRANCH  14  16
ATOM     16  C   UNL d   1      60.553  -7.960  30.092  0.00  0.00     0.087 A 
ATOM     17  C   UNL d   1      60.417  -7.167  30.218  0.00  0.00     0.045 A 
ATOM     18  C   UNL d   1      60.628  -6.620  29.641  0.00  0.00     0.121 A 
ATOM     19  O   UNL d   1      60.555  -5.787  29.623  0.00  0.00    -0.299 OA
ATOM     20  C   UNL d   1      60.978  -6.878  28.938  0.00  0.00     0.119 A 
ATOM     21  C   UNL d   1      60.864  -5.523  28.894  0.00  0.00     0.304 A 
ATOM     22  O   UNL d   1      61.127  -6.199  28.468  0.00  0.00    -0.300 OA
ATOM     23  C   UNL d   1      61.115  -7.672  28.812  0.00  0.00     0.028 A 
ATOM     24  C   UNL d   1      60.901  -8.217  29.393  0.00  0.00     0.021 A 
ENDBRANCH  14  16
ENDBRANCH  12  13
ENDBRANCH   2  12
BRANCH   1  25
ATOM     25  C   UNL d   1      58.330  -9.564  33.437  0.00  0.00     0.200 C 
ATOM     26  O   UNL d   1      57.651  -9.801  33.828  0.00  0.00    -0.286 OA
BRANCH  25  27
ATOM     27  C   UNL d   1      58.968  -9.272  33.866  0.00  0.00     0.039 A 
ATOM     28  C   UNL d   1      59.597  -9.773  34.090  0.00  0.00     0.003 A 
ATOM     29  C   UNL d   1      60.246  -9.482  34.524  0.00  0.00     0.000 A 
ATOM     30  C   UNL d   1      60.268  -8.691  34.735  0.00  0.00     0.000 A 
ATOM     31  C   UNL d   1      59.628  -8.198  34.503  0.00  0.00     0.000 A 
ATOM     32  C   UNL d   1      58.979  -8.483  34.070  0.00  0.00     0.003 A 
BRANCH  30  33
ATOM     33  C   UNL d   1      60.918  -8.401  35.170  0.00  0.00     0.000 C 
ATOM     34  C   UNL d   1      61.100  -8.757  35.879  0.00  0.00     0.000 C 
ENDBRANCH  30  33
ENDBRANCH  25  27
ENDBRANCH   1  25
BRANCH  10  35
ATOM     35  C   UNL d   1      56.351  -9.723  29.584  0.00  0.00     0.000 C 
ATOM     36  C   UNL d   1      56.357  -9.428  28.803  0.00  0.00     0.000 C 
ENDBRANCH  10  35
TORSDOF 7
ENDMDL
MODEL 3
REMARK VINA RESULT:      13.5      1.093      1.523
REMARK  7 active torsions:
REMARK  status: ('A' for Active; 'I' for Inactive)
REMARK    1  A    between atoms: C_7  and  C_1 
REMARK    2  A    between atoms: C_9  and  N_2 
REMARK    3  A    between atoms: C_15  and  C_7 
REMARK    4  A    between atoms: C_8  and  C_9 
REMARK       I    between atoms: N_14  and  C_8 
REMARK    5  A    between atoms: C_20  and  N_14 
REMARK    6  A    between atoms: C_33  and  C_27 
REMARK    7  A    between atoms: C_34  and  C_32 
ROOT
ATOM      1  C   UNL d   1      56.736   0.227  32.563  0.00  0.00     0.095 A 
ATOM      2  N   UNL d   1      57.940   0.465  31.821  0.00  0.00    -0.300 N 
ATOM      3  C   UNL d   1      57.192   0.263  33.283  0.00  0.00     0.202 A 
ATOM      4  C   UNL d   1      57.106   0.327  31.839  0.00  0.00     0.087 A 
ATOM      5  C   UNL d   1      58.011   0.400  33.239  0.00  0.00     0.055 A 
ATOM      6  C   UNL d   1      58.391   0.502  32.520  0.00  0.00     0.067 A 
ATOM      7  C   UNL d   1      59.210   0.637  32.505  0.00  0.00     0.018 A 
ATOM      8  C   UNL d   1      58.474   0.438  33.944  0.00  0.00     0.005 A 
ATOM      9  O   UNL d   1      56.826   0.165  33.998  0.00  0.00    -0.286 OA
ATOM     10  C   UNL d   1      59.285   0.573  33.914  0.00  0.00     0.000 A 
ATOM     11  C   UNL d   1      59.654   0.673  33.194  0.00  0.00     0.002 A 
ENDROOT
BRANCH   2  12
ATOM     12  C   UNL d   1      58.308   0.564  31.102  0.00  0.00     0.144 C 
BRANCH  12  13
ATOM     13  C   UNL d   1      58.302  -0.046  30.547  0.00  0.00     0.297 C 
ATOM     14  N   UNL d   1      58.864  -0.641  30.586  0.00  0.00    -0.207 NA
ATOM     15  O   UNL d   1      57.729  -0.057  29.954  0.00  0.00    -0.264 OA
BRANCH  14  16
ATOM     16  C   UNL d   1      58.858  -1.251  30.032  0.00  0.00     0.087 A 
ATOM     17  C   UNL d   1      58.282  -1.825  30.073  0.00  0.00     0.045 A 
ATOM     18  C   UNL d   1      58.273  -2.436  29.522  0.00  0.00     0.121 A 
ATOM     19  O   UNL d   1      57.757  -3.087  29.434  0.00  0.00    -0.299 OA
ATOM     20  C   UNL d   1      58.849  -2.462  28.929  0.00  0.00     0.119 A 
ATOM     21  C   UNL d   1      58.016  -3.527  28.773  0.00  0.00     0.304 A 
ATOM     22  O   UNL d   1      58.694  -3.140  28.460  0.00  0.00    -0.300 OA
ATOM     23  C   UNL d   1      59.426  -1.888  28.887  0.00  0.00     0.028 A 
ATOM     24  C   UNL d   1      59.431  -1.278  29.442  0.00  0.00     0.021 A 
ENDBRANCH  14  16
ENDBRANCH  12  13
ENDBRANCH   2  12
BRANCH   1  25
ATOM     25  C   UNL d   1      55.925   0.092  32.592  0.00  0.00     0.200 C 
ATOM     26  O   UNL d   1      55.406   0.680  32.356  0.00  0.00    -0.286 OA
BRANCH  25  27
ATOM     27  C   UNL d   1      55.632  -0.630  32.857  0.00  0.00     0.039 A 
ATOM     28  C   UNL d   1      55.147  -0.672  33.533  0.00  0.00     0.003 A 
ATOM     29  C   UNL d   1      54.848  -1.400  33.806  0.00  0.00     0.000 A 
ATOM     30  C   UNL d   1      55.034  -2.088  33.402  0.00  0.00     0.000 A 
ATOM     31  C   UNL d   1      55.524  -2.032  32.722  0.00  0.00     0.000 A 
ATOM     32  C   UNL d   1      55.824  -1.307  32.446  0.00  0.00     0.003 A 
BRANCH  30  33
ATOM     33  C   UNL d   1      54.734  -2.817  33.675  0.00  0.00     0.000 C 
ATOM     34  C   UNL d   1      54.427  -3.338  33.131  0.00  0.00     0.000 C 
ENDBRANCH  30  33
ENDBRANCH  25  27
ENDBRANCH   1  25
BRANCH  10  35
ATOM     35  C   UNL d   1      59.721   0.607  34.619  0.00  0.00     0.000 C 
ATOM     36  C   UNL d   1      59.324   0.645  35.352  0.00  0.00     0.000 C 
ENDBRANCH  10  35
TORSDOF 7
ENDMDL
