MODEL 1
REMARK VINA RESULT:      -6.4      0.000      0.000
REMARK  4 active torsions:
REMARK  status: ('A' for Active; 'I' for Inactive)
REMARK    1  A    between atoms: C_6  and  C_2 
REMARK    2  A    between atoms: C_7  and  C_5 
REMARK    3  A    between atoms: O_8  and  C_7 
REMARK    4  A    between atoms: C_9  and  O_8 
ROOT
ATOM      1  N   UNL d   1     -41.305-121.790 -50.638  0.00  0.00    -0.121 NA
ATOM      2  C   UNL d   1     -41.683-122.516 -50.592  0.00  0.00     0.204 A 
ATOM      3  O   UNL d   1     -41.737-122.822 -51.363  0.00  0.00    -0.267 OA
ATOM      4  N   UNL d   1     -41.123-121.640 -51.428  0.00  0.00    -0.119 NA
ATOM      5  C   UNL d   1     -41.390-122.279 -51.877  0.00  0.00     0.230 A 
ENDROOT
BRANCH   5   6
ATOM      6  C   UNL d   1     -41.320-122.354 -52.695  0.00  0.00     0.169 C 
BRANCH   6   7
ATOM      7  O   UNL d   1     -41.997-122.417 -53.168  0.00  0.00    -0.301 OA
BRANCH   7   8
ATOM      8  C   UNL d   1     -41.929-122.346 -53.990  0.00  0.00     0.100 A 
ATOM      9  C   UNL d   1     -41.379-122.803 -54.401  0.00  0.00     0.025 A 
ATOM     10  C   UNL d   1     -41.316-122.727 -55.218  0.00  0.00     0.002 A 
ATOM     11  C   UNL d   1     -41.799-122.198 -55.626  0.00  0.00     0.000 A 
ATOM     12  C   UNL d   1     -42.350-121.741 -55.210  0.00  0.00     0.002 A 
ATOM     13  C   UNL d   1     -42.421-121.809 -54.390  0.00  0.00     0.025 A 
ENDBRANCH   7   8
ENDBRANCH   6   7
ENDBRANCH   5   6
BRANCH   2  14
ATOM     14  C   UNL d   1     -41.962-122.882 -49.907  0.00  0.00     0.043 A 
ATOM     15  C   UNL d   1     -42.722-122.714 -49.628  0.00  0.00     0.004 A 
ATOM     16  C   UNL d   1     -43.000-123.080 -48.943  0.00  0.00     0.000 A 
ATOM     17  C   UNL d   1     -42.520-123.614 -48.538  0.00  0.00     0.000 A 
ATOM     18  C   UNL d   1     -41.760-123.782 -48.817  0.00  0.00     0.000 A 
ATOM     19  C   UNL d   1     -41.482-123.416 -49.502  0.00  0.00     0.004 A 
ENDBRANCH   2  14
TORSDOF 4
ENDMDL
MODEL 2
REMARK VINA RESULT:      -4.6      0.918      5.003
REMARK  4 active torsions:
REMARK  status: ('A' for Active; 'I' for Inactive)
REMARK    1  A    between atoms: C_6  and  C_2 
REMARK    2  A    between atoms: C_7  and  C_5 
REMARK    3  A    between atoms: O_8  and  C_7 
REMARK    4  A    between atoms: C_9  and  O_8 
ROOT
ATOM      1  N   UNL d   1     -41.612-121.917 -51.845  0.00  0.00    -0.121 NA
ATOM      2  C   UNL d   1     -41.575-122.666 -52.174  0.00  0.00     0.204 A 
ATOM      3  O   UNL d   1     -41.700-123.217 -51.565  0.00  0.00    -0.267 OA
ATOM      4  N   UNL d   1     -41.759-121.994 -51.036  0.00  0.00    -0.119 NA
ATOM      5  C   UNL d   1     -41.814-122.799 -50.863  0.00  0.00     0.230 A 
ENDROOT
BRANCH   5   6
ATOM      6  C   UNL d   1     -41.956-123.122 -50.118  0.00  0.00     0.169 C 
BRANCH   6   7
ATOM      7  O   UNL d   1     -41.593-122.800 -49.448  0.00  0.00    -0.301 OA
BRANCH   7   8
ATOM      8  C   UNL d   1     -41.756-123.121 -48.701  0.00  0.00     0.100 A 
ATOM      9  C   UNL d   1     -42.537-123.216 -48.453  0.00  0.00     0.025 A 
ATOM     10  C   UNL d   1     -42.692-123.536 -47.711  0.00  0.00     0.002 A 
ATOM     11  C   UNL d   1     -42.072-123.760 -47.216  0.00  0.00     0.000 A 
ATOM     12  C   UNL d   1     -41.289-123.663 -47.468  0.00  0.00     0.002 A 
ATOM     13  C   UNL d   1     -41.123-123.343 -48.211  0.00  0.00     0.025 A 
ENDBRANCH   7   8
ENDBRANCH   6   7
ENDBRANCH   5   6
BRANCH   2  14
ATOM     14  C   UNL d   1     -41.438-122.847 -52.967  0.00  0.00     0.043 A 
ATOM     15  C   UNL d   1     -41.336-123.634 -53.201  0.00  0.00     0.004 A 
ATOM     16  C   UNL d   1     -41.199-123.815 -53.994  0.00  0.00     0.000 A 
ATOM     17  C   UNL d   1     -41.165-123.211 -54.554  0.00  0.00     0.000 A 
ATOM     18  C   UNL d   1     -41.267-122.424 -54.320  0.00  0.00     0.000 A 
ATOM     19  C   UNL d   1     -41.404-122.243 -53.527  0.00  0.00     0.004 A 
ENDBRANCH   2  14
TORSDOF 4
ENDMDL
