MODEL 1
REMARK VINA RESULT:       8.6      0.000      0.000
REMARK  4 active torsions:
REMARK  status: ('A' for Active; 'I' for Inactive)
REMARK    1  A    between atoms: C_6  and  C_1 
REMARK    2  A    between atoms: C_7  and  C_4 
REMARK       I    between atoms: N_9  and  C_6 
REMARK    3  A    between atoms: C_23  and  N_9 
REMARK    4  A    between atoms: C_11  and  C_23 
ROOT
ATOM      1  C   UNL d   1      45.611 -16.579  44.451  0.00  0.00     0.168 A 
ATOM      2  N   UNL d   1      44.958 -16.426  44.913  0.00  0.00    -0.121 NA
ATOM      3  C   UNL d   1      45.899 -15.852  44.171  0.00  0.00     0.053 A 
ATOM      4  C   UNL d   1      45.415 -15.263  44.467  0.00  0.00     0.127 A 
ATOM      5  O   UNL d   1      44.834 -15.623  44.926  0.00  0.00    -0.211 OA
ENDROOT
BRANCH   1   6
ATOM      6  C   UNL d   1      46.284 -18.007  44.098  0.00  0.00     0.299 C 
ATOM      7  N   UNL d   1      46.293 -18.265  43.280  0.00  0.00    -0.203 NA
ATOM      8  O   UNL d   1      46.616 -18.496  44.665  0.00  0.00    -0.263 OA
BRANCH   7   9
ATOM      9  C   UNL d   1      46.647 -19.023  43.072  0.00  0.00     0.127 C 
BRANCH   9  10
ATOM     10  C   UNL d   1      46.580 -19.329  42.269  0.00  0.00     0.119 A 
ATOM     11  O   UNL d   1      46.442 -20.142  42.044  0.00  0.00    -0.304 OA
ATOM     12  C   UNL d   1      46.418 -20.181  41.195  0.00  0.00     0.123 A 
ATOM     13  C   UNL d   1      46.545 -19.377  40.882  0.00  0.00     0.029 A 
ATOM     14  C   UNL d   1      46.645 -18.849  41.559  0.00  0.00     0.028 A 
ENDBRANCH   9  10
ENDBRANCH   7   9
ENDBRANCH   1   6
BRANCH   4  15
ATOM     15  C   UNL d   1      45.467 -14.467  44.352  0.00  0.00     0.027 A 
ATOM     16  C   UNL d   1      45.238 -14.138  43.637  0.00  0.00     0.028 A 
ATOM     17  C   UNL d   1      45.293 -13.339  43.529  0.00  0.00     0.119 A 
ATOM     18  O   UNL d   1      45.110 -12.867  42.890  0.00  0.00    -0.300 OA
ATOM     19  C   UNL d   1      45.573 -12.848  44.115  0.00  0.00     0.119 A 
ATOM     20  C   UNL d   1      45.275 -12.096  43.083  0.00  0.00     0.304 A 
ATOM     21  O   UNL d   1      45.562 -12.082  43.842  0.00  0.00    -0.300 OA
ATOM     22  C   UNL d   1      45.805 -13.172  44.836  0.00  0.00     0.026 A 
ATOM     23  C   UNL d   1      45.752 -13.966  44.948  0.00  0.00     0.004 A 
ENDBRANCH   4  15
TORSDOF 4
ENDMDL
