MODEL 1
REMARK VINA RESULT:      33.6      0.000      0.000
REMARK  7 active torsions:
REMARK  status: ('A' for Active; 'I' for Inactive)
REMARK    1  A    between atoms: C_14  and  N_1 
REMARK    2  A    between atoms: C_2  and  C_5 
REMARK    3  A    between atoms: C_6  and  C_2 
REMARK    4  A    between atoms: C_7  and  C_3 
REMARK    5  A    between atoms: C_5  and  C_7 
REMARK    6  A    between atoms: O_15  and  C_6 
REMARK    7  A    between atoms: C_18  and  O_15 
ROOT
ATOM      1  C   UNL d   1      60.926  48.983  50.887  0.00  0.00     0.132 C 
ATOM      2  C   UNL d   1      61.139  49.266  51.625  0.00  0.00     0.106 C 
ATOM      3  N   UNL d   1      61.342  49.547  52.344  0.00  0.00    -0.191 NA
ENDROOT
BRANCH   1   4
ATOM      4  C   UNL d   1      60.405  49.400  50.403  0.00  0.00     0.017 C 
BRANCH   4   5
ATOM      5  C   UNL d   1      59.744  49.707  50.711  0.00  0.00     0.018 C 
BRANCH   5   6
ATOM      6  C   UNL d   1      59.052  49.706  50.271  0.00  0.00     0.064 A 
ATOM      7  N   UNL d   1      58.303  49.704  50.657  0.00  0.00    -0.305 N 
ATOM      8  C   UNL d   1      57.607  49.703  50.199  0.00  0.00     0.064 A 
ATOM      9  C   UNL d   1      57.645  49.704  49.377  0.00  0.00     0.016 A 
ATOM     10  C   UNL d   1      56.876  49.701  50.586  0.00  0.00     0.018 A 
ATOM     11  C   UNL d   1      58.388  49.707  48.992  0.00  0.00     0.003 A 
ATOM     12  C   UNL d   1      56.952  49.704  48.936  0.00  0.00     0.001 A 
ATOM     13  C   UNL d   1      59.081  49.708  49.433  0.00  0.00     0.018 A 
ATOM     14  C   UNL d   1      56.211  49.701  49.312  0.00  0.00     0.000 A 
ATOM     15  C   UNL d   1      56.183  49.700  50.146  0.00  0.00     0.002 A 
BRANCH   7  16
ATOM     16  C   UNL d   1      58.257  49.702  51.483  0.00  0.00     0.080 C 
ATOM     17  C   UNL d   1      57.529  49.527  51.849  0.00  0.00     0.021 C 
ENDBRANCH   7  16
ENDBRANCH   5   6
ENDBRANCH   4   5
ENDBRANCH   1   4
BRANCH   1  18
ATOM     18  C   UNL d   1      61.243  48.287  50.650  0.00  0.00     0.310 C 
ATOM     19  O   UNL d   1      61.609  48.243  49.944  0.00  0.00    -0.258 OA
BRANCH  18  20
ATOM     20  O   UNL d   1      61.206  47.694  51.062  0.00  0.00    -0.271 OA
BRANCH  20  21
ATOM     21  C   UNL d   1      60.960  46.921  50.727  0.00  0.00     0.126 C 
ATOM     22  C   UNL d   1      60.615  46.325  51.198  0.00  0.00     0.029 C 
ENDBRANCH  20  21
ENDBRANCH  18  20
ENDBRANCH   1  18
TORSDOF 7
ENDMDL
