MODEL 1
REMARK VINA RESULT:      42.5      0.000      0.000
REMARK  4 active torsions:
REMARK  status: ('A' for Active; 'I' for Inactive)
REMARK    1  A    between atoms: N_9  and  C_3 
REMARK    2  A    between atoms: C_11  and  C_5 
REMARK    3  A    between atoms: C_15  and  C_10 
REMARK    4  A    between atoms: C_18  and  C_15 
ROOT
ATOM      1  N   UNL d   1      45.902 -17.130  43.229  0.00  0.00    -0.196 N 
ATOM      2  C   UNL d   1      46.100 -17.895  42.956  0.00  0.00     0.167 A 
ATOM      3  C   UNL d   1      45.949 -16.979  44.029  0.00  0.00     0.152 A 
ATOM      4  N   UNL d   1      45.628 -16.725  41.895  0.00  0.00    -0.163 NA
ATOM      5  C   UNL d   1      46.060 -18.066  42.165  0.00  0.00     0.055 A 
ATOM      6  C   UNL d   1      45.826 -17.491  41.623  0.00  0.00     0.104 A 
ATOM      7  N   UNL d   1      46.334 -18.470  43.498  0.00  0.00    -0.227 NA
ATOM      8  C   UNL d   1      46.178 -17.536  44.569  0.00  0.00     0.057 A 
ATOM      9  C   UNL d   1      46.376 -18.301  44.297  0.00  0.00     0.086 A 
ATOM     10  C   UNL d   1      45.784 -17.655  40.825  0.00  0.00     0.023 C 
ENDROOT
BRANCH   5  11
ATOM     11  C   UNL d   1      46.255 -18.820  41.896  0.00  0.00     0.004 A 
ATOM     12  C   UNL d   1      46.452 -18.930  41.106  0.00  0.00     0.000 A 
ATOM     13  C   UNL d   1      46.647 -19.683  40.837  0.00  0.00     0.000 A 
ATOM     14  C   UNL d   1      46.645 -20.326  41.359  0.00  0.00     0.000 A 
ATOM     15  C   UNL d   1      46.447 -20.217  42.152  0.00  0.00     0.000 A 
ATOM     16  C   UNL d   1      46.249 -19.452  42.425  0.00  0.00     0.000 A 
ENDBRANCH   5  11
BRANCH   3  17
ATOM     17  N   UNL d   1      45.745 -16.190  44.310  0.00  0.00    -0.289 N 
ATOM     18  C   UNL d   1      45.037 -16.027  44.501  0.00  0.00     0.082 A 
ATOM     19  C   UNL d   1      44.860 -15.345  44.744  0.00  0.00     0.021 A 
ATOM     20  C   UNL d   1      46.094 -14.978  44.610  0.00  0.00     0.021 A 
ATOM     21  C   UNL d   1      46.273 -15.672  44.363  0.00  0.00     0.082 A 
ENDBRANCH   3  17
BRANCH   9  22
ATOM     22  C   UNL d   1      46.621 -18.904  44.857  0.00  0.00     0.019 C 
BRANCH  22  23
ATOM     23  C   UNL d   1      46.380 -19.730  44.751  0.00  0.00     0.002 C 
ATOM     24  C   UNL d   1      45.591 -19.977  44.954  0.00  0.00     0.000 C 
ENDBRANCH  22  23
ENDBRANCH   9  22
TORSDOF 4
ENDMDL
