MODEL 1
REMARK VINA RESULT:     -10.1      0.000      0.000
REMARK  2 active torsions:
REMARK  status: ('A' for Active; 'I' for Inactive)
REMARK    1  A    between atoms: C_9  and  N_2 
REMARK    2  A    between atoms: C_7  and  C_4 
ROOT
ATOM      1  C   UNL d   1      53.431  31.852  53.630  0.00  0.00     0.136 A 
ATOM      2  N   UNL d   1      53.415  32.657  53.816  0.00  0.00    -0.281 N 
ATOM      3  C   UNL d   1      52.825  31.528  53.169  0.00  0.00     0.152 A 
ATOM      4  C   UNL d   1      52.792  33.136  53.539  0.00  0.00     0.175 A 
ATOM      5  N   UNL d   1      52.190  32.805  53.078  0.00  0.00    -0.188 NA
ATOM      6  C   UNL d   1      52.208  32.002  52.894  0.00  0.00     0.292 A 
ATOM      7  C   UNL d   1      52.842  30.725  52.985  0.00  0.00     0.108 C 
ATOM      8  N   UNL d   1      52.855  29.917  52.797  0.00  0.00    -0.191 NA
ATOM      9  S   UNL d   1      54.044  31.371  53.901  0.00  0.00    -0.058 SA
ATOM     10  O   UNL d   1      51.604  31.667  52.432  0.00  0.00    -0.264 OA
ENDROOT
BRANCH   2  11
ATOM     11  C   UNL d   1      54.014  32.983  54.273  0.00  0.00     0.066 A 
ATOM     12  C   UNL d   1      54.687  33.287  53.905  0.00  0.00     0.020 A 
ATOM     13  C   UNL d   1      55.286  33.613  54.366  0.00  0.00     0.031 A 
ATOM     14  C   UNL d   1      55.216  33.636  55.191  0.00  0.00     0.140 A 
ATOM     15  C   UNL d   1      54.538  33.329  55.556  0.00  0.00     0.031 A 
ATOM     16  F   UNL d   1      55.823  33.965  55.648  0.00  0.00    -0.204 F 
ATOM     17  C   UNL d   1      53.938  33.003  55.095  0.00  0.00     0.020 A 
ENDBRANCH   2  11
BRANCH   4  18
ATOM     18  C   UNL d   1      52.775  33.939  53.723  0.00  0.00     0.135 A 
ATOM     19  O   UNL d   1      52.510  34.266  54.428  0.00  0.00    -0.302 OA
ATOM     20  C   UNL d   1      52.592  35.080  54.370  0.00  0.00     0.123 A 
ATOM     21  C   UNL d   1      52.907  35.256  53.631  0.00  0.00     0.029 A 
ATOM     22  C   UNL d   1      53.022  34.562  53.226  0.00  0.00     0.030 A 
ENDBRANCH   4  18
TORSDOF 2
ENDMDL
MODEL 2
REMARK VINA RESULT:      -9.5      1.999      2.884
REMARK  2 active torsions:
REMARK  status: ('A' for Active; 'I' for Inactive)
REMARK    1  A    between atoms: C_9  and  N_2 
REMARK    2  A    between atoms: C_7  and  C_4 
ROOT
ATOM      1  C   UNL d   1      52.703  32.260  53.266  0.00  0.00     0.136 A 
ATOM      2  N   UNL d   1      52.592  33.063  53.428  0.00  0.00    -0.281 N 
ATOM      3  C   UNL d   1      53.367  31.871  53.571  0.00  0.00     0.152 A 
ATOM      4  C   UNL d   1      53.146  33.474  53.895  0.00  0.00     0.175 A 
ATOM      5  N   UNL d   1      53.807  33.079  54.196  0.00  0.00    -0.188 NA
ATOM      6  C   UNL d   1      53.916  32.278  54.034  0.00  0.00     0.292 A 
ATOM      7  C   UNL d   1      53.477  31.071  53.409  0.00  0.00     0.108 C 
ATOM      8  N   UNL d   1      53.590  30.265  53.248  0.00  0.00    -0.191 NA
ATOM      9  S   UNL d   1      52.159  31.846  52.804  0.00  0.00    -0.058 SA
ATOM     10  O   UNL d   1      54.579  31.879  54.335  0.00  0.00    -0.264 OA
ENDROOT
BRANCH   2  11
ATOM     11  C   UNL d   1      51.936  33.453  53.127  0.00  0.00     0.066 A 
ATOM     12  C   UNL d   1      51.230  33.451  53.554  0.00  0.00     0.020 A 
ATOM     13  C   UNL d   1      50.572  33.843  53.250  0.00  0.00     0.031 A 
ATOM     14  C   UNL d   1      50.617  34.235  52.523  0.00  0.00     0.140 A 
ATOM     15  C   UNL d   1      51.328  34.235  52.097  0.00  0.00     0.031 A 
ATOM     16  F   UNL d   1      49.952  34.627  52.224  0.00  0.00    -0.204 F 
ATOM     17  C   UNL d   1      51.987  33.843  52.400  0.00  0.00     0.020 A 
ENDBRANCH   2  11
BRANCH   4  18
ATOM     18  C   UNL d   1      53.037  34.275  54.057  0.00  0.00     0.135 A 
ATOM     19  O   UNL d   1      52.601  34.585  54.679  0.00  0.00    -0.302 OA
ATOM     20  C   UNL d   1      52.642  35.402  54.628  0.00  0.00     0.123 A 
ATOM     21  C   UNL d   1      53.102  35.598  53.975  0.00  0.00     0.029 A 
ATOM     22  C   UNL d   1      53.349  34.911  53.618  0.00  0.00     0.030 A 
ENDBRANCH   4  18
TORSDOF 2
ENDMDL
MODEL 3
REMARK VINA RESULT:      -9.4      1.545      2.487
REMARK  2 active torsions:
REMARK  status: ('A' for Active; 'I' for Inactive)
REMARK    1  A    between atoms: C_9  and  N_2 
REMARK    2  A    between atoms: C_7  and  C_4 
ROOT
ATOM      1  C   UNL d   1      52.802  31.651  53.255  0.00  0.00     0.136 A 
ATOM      2  N   UNL d   1      53.216  32.271  53.612  0.00  0.00    -0.281 N 
ATOM      3  C   UNL d   1      53.076  30.875  53.343  0.00  0.00     0.152 A 
ATOM      4  C   UNL d   1      53.903  32.112  54.055  0.00  0.00     0.175 A 
ATOM      5  N   UNL d   1      54.171  31.334  54.138  0.00  0.00    -0.188 NA
ATOM      6  C   UNL d   1      53.757  30.717  53.782  0.00  0.00     0.292 A 
ATOM      7  C   UNL d   1      52.663  30.257  52.987  0.00  0.00     0.108 C 
ATOM      8  N   UNL d   1      52.249  29.633  52.630  0.00  0.00    -0.191 NA
ATOM      9  S   UNL d   1      52.121  31.800  52.814  0.00  0.00    -0.058 SA
ATOM     10  O   UNL d   1      54.024  29.935  53.864  0.00  0.00    -0.264 OA
ENDROOT
BRANCH   2  11
ATOM     11  C   UNL d   1      52.948  33.042  53.528  0.00  0.00     0.066 A 
ATOM     12  C   UNL d   1      52.418  33.352  54.079  0.00  0.00     0.020 A 
ATOM     13  C   UNL d   1      52.151  34.126  53.992  0.00  0.00     0.031 A 
ATOM     14  C   UNL d   1      52.410  34.590  53.358  0.00  0.00     0.140 A 
ATOM     15  C   UNL d   1      52.943  34.276  52.806  0.00  0.00     0.031 A 
ATOM     16  F   UNL d   1      52.137  35.368  53.277  0.00  0.00    -0.204 F 
ATOM     17  C   UNL d   1      53.211  33.501  52.892  0.00  0.00     0.020 A 
ENDBRANCH   2  11
BRANCH   4  18
ATOM     18  C   UNL d   1      54.317  32.729  54.411  0.00  0.00     0.135 A 
ATOM     19  O   UNL d   1      54.891  33.195  54.053  0.00  0.00    -0.302 OA
ATOM     20  C   UNL d   1      55.154  33.738  54.608  0.00  0.00     0.123 A 
ATOM     21  C   UNL d   1      54.743  33.609  55.310  0.00  0.00     0.029 A 
ATOM     22  C   UNL d   1      54.227  32.991  55.197  0.00  0.00     0.030 A 
ENDBRANCH   4  18
TORSDOF 2
ENDMDL
MODEL 4
REMARK VINA RESULT:      -9.2      1.792      2.881
REMARK  2 active torsions:
REMARK  status: ('A' for Active; 'I' for Inactive)
REMARK    1  A    between atoms: C_9  and  N_2 
REMARK    2  A    between atoms: C_7  and  C_4 
ROOT
ATOM      1  C   UNL d   1      52.067  33.269  53.232  0.00  0.00     0.136 A 
ATOM      2  N   UNL d   1      52.787  33.125  53.611  0.00  0.00    -0.281 N 
ATOM      3  C   UNL d   1      51.742  34.030  53.251  0.00  0.00     0.152 A 
ATOM      4  C   UNL d   1      53.180  33.743  54.007  0.00  0.00     0.175 A 
ATOM      5  N   UNL d   1      52.849  34.500  54.021  0.00  0.00    -0.188 NA
ATOM      6  C   UNL d   1      52.131  34.643  53.643  0.00  0.00     0.292 A 
ATOM      7  C   UNL d   1      51.024  34.172  52.873  0.00  0.00     0.108 C 
ATOM      8  N   UNL d   1      50.301  34.320  52.494  0.00  0.00    -0.191 NA
ATOM      9  S   UNL d   1      51.671  32.662  52.837  0.00  0.00    -0.058 SA
ATOM     10  O   UNL d   1      51.797  35.403  53.656  0.00  0.00    -0.264 OA
ENDROOT
BRANCH   2  11
ATOM     11  C   UNL d   1      53.113  32.372  53.595  0.00  0.00     0.066 A 
ATOM     12  C   UNL d   1      53.614  32.158  52.975  0.00  0.00     0.020 A 
ATOM     13  C   UNL d   1      53.940  31.401  52.961  0.00  0.00     0.031 A 
ATOM     14  C   UNL d   1      53.767  30.859  53.563  0.00  0.00     0.140 A 
ATOM     15  C   UNL d   1      53.263  31.078  54.183  0.00  0.00     0.031 A 
ATOM     16  F   UNL d   1      54.098  30.101  53.542  0.00  0.00    -0.204 F 
ATOM     17  C   UNL d   1      52.936  31.835  54.198  0.00  0.00     0.020 A 
ENDBRANCH   2  11
BRANCH   4  18
ATOM     18  C   UNL d   1      53.898  33.601  54.385  0.00  0.00     0.135 A 
ATOM     19  O   UNL d   1      54.637  33.593  54.027  0.00  0.00    -0.302 OA
ATOM     20  C   UNL d   1      55.193  33.429  54.608  0.00  0.00     0.123 A 
ATOM     21  C   UNL d   1      54.798  33.336  55.324  0.00  0.00     0.029 A 
ATOM     22  C   UNL d   1      54.003  33.440  55.196  0.00  0.00     0.030 A 
ENDBRANCH   4  18
TORSDOF 2
ENDMDL
MODEL 5
REMARK VINA RESULT:      -8.9      1.400      2.593
REMARK  2 active torsions:
REMARK  status: ('A' for Active; 'I' for Inactive)
REMARK    1  A    between atoms: C_9  and  N_2 
REMARK    2  A    between atoms: C_7  and  C_4 
ROOT
ATOM      1  C   UNL d   1      52.292  33.812  53.590  0.00  0.00     0.136 A 
ATOM      2  N   UNL d   1      52.774  33.146  53.674  0.00  0.00    -0.281 N 
ATOM      3  C   UNL d   1      51.537  33.729  53.261  0.00  0.00     0.152 A 
ATOM      4  C   UNL d   1      52.499  32.399  53.428  0.00  0.00     0.175 A 
ATOM      5  N   UNL d   1      51.744  32.324  53.101  0.00  0.00    -0.188 NA
ATOM      6  C   UNL d   1      51.264  32.989  53.017  0.00  0.00     0.292 A 
ATOM      7  C   UNL d   1      51.057  34.394  53.178  0.00  0.00     0.108 C 
ATOM      8  N   UNL d   1      50.571  35.060  53.092  0.00  0.00    -0.191 NA
ATOM      9  S   UNL d   1      52.557  34.555  53.831  0.00  0.00    -0.058 SA
ATOM     10  O   UNL d   1      50.504  32.917  52.688  0.00  0.00    -0.264 OA
ENDROOT
BRANCH   2  11
ATOM     11  C   UNL d   1      53.523  33.223  54.000  0.00  0.00     0.066 A 
ATOM     12  C   UNL d   1      54.174  33.334  53.504  0.00  0.00     0.020 A 
ATOM     13  C   UNL d   1      54.924  33.411  53.833  0.00  0.00     0.031 A 
ATOM     14  C   UNL d   1      55.027  33.379  54.654  0.00  0.00     0.140 A 
ATOM     15  C   UNL d   1      54.372  33.267  55.149  0.00  0.00     0.031 A 
ATOM     16  F   UNL d   1      55.785  33.457  54.978  0.00  0.00    -0.204 F 
ATOM     17  C   UNL d   1      53.620  33.190  54.820  0.00  0.00     0.020 A 
ENDBRANCH   2  11
BRANCH   4  18
ATOM     18  C   UNL d   1      52.979  31.734  53.511  0.00  0.00     0.135 A 
ATOM     19  O   UNL d   1      53.083  31.299  54.199  0.00  0.00    -0.302 OA
ATOM     20  C   UNL d   1      53.605  30.689  54.031  0.00  0.00     0.123 A 
ATOM     21  C   UNL d   1      53.822  30.746  53.239  0.00  0.00     0.029 A 
ATOM     22  C   UNL d   1      53.442  31.386  52.913  0.00  0.00     0.030 A 
ENDBRANCH   4  18
TORSDOF 2
ENDMDL
MODEL 6
REMARK VINA RESULT:      -8.9      1.835      3.158
REMARK  2 active torsions:
REMARK  status: ('A' for Active; 'I' for Inactive)
REMARK    1  A    between atoms: C_9  and  N_2 
REMARK    2  A    between atoms: C_7  and  C_4 
ROOT
ATOM      1  C   UNL d   1      53.825  33.207  54.358  0.00  0.00     0.136 A 
ATOM      2  N   UNL d   1      53.130  33.110  53.922  0.00  0.00    -0.281 N 
ATOM      3  C   UNL d   1      53.981  33.935  54.720  0.00  0.00     0.152 A 
ATOM      4  C   UNL d   1      52.593  33.743  53.849  0.00  0.00     0.175 A 
ATOM      5  N   UNL d   1      52.756  34.467  54.213  0.00  0.00    -0.188 NA
ATOM      6  C   UNL d   1      53.450  34.562  54.647  0.00  0.00     0.292 A 
ATOM      7  C   UNL d   1      54.675  34.030  55.154  0.00  0.00     0.108 C 
ATOM      8  N   UNL d   1      55.372  34.130  55.592  0.00  0.00    -0.191 NA
ATOM      9  S   UNL d   1      54.362  32.585  54.436  0.00  0.00    -0.058 SA
ATOM     10  O   UNL d   1      53.616  35.289  55.014  0.00  0.00    -0.264 OA
ENDROOT
BRANCH   2  11
ATOM     11  C   UNL d   1      52.971  32.390  53.562  0.00  0.00     0.066 A 
ATOM     12  C   UNL d   1      53.218  32.259  52.786  0.00  0.00     0.020 A 
ATOM     13  C   UNL d   1      53.057  31.536  52.427  0.00  0.00     0.031 A 
ATOM     14  C   UNL d   1      52.652  30.944  52.840  0.00  0.00     0.140 A 
ATOM     15  C   UNL d   1      52.405  31.079  53.620  0.00  0.00     0.031 A 
ATOM     16  F   UNL d   1      52.493  30.219  52.473  0.00  0.00    -0.204 F 
ATOM     17  C   UNL d   1      52.566  31.803  53.980  0.00  0.00     0.020 A 
ENDBRANCH   2  11
BRANCH   4  18
ATOM     18  C   UNL d   1      51.899  33.648  53.415  0.00  0.00     0.135 A 
ATOM     19  O   UNL d   1      51.205  33.303  53.686  0.00  0.00    -0.302 OA
ATOM     20  C   UNL d   1      50.661  33.325  53.072  0.00  0.00     0.123 A 
ATOM     21  C   UNL d   1      51.018  33.683  52.423  0.00  0.00     0.029 A 
ATOM     22  C   UNL d   1      51.778  33.884  52.625  0.00  0.00     0.030 A 
ENDBRANCH   4  18
TORSDOF 2
ENDMDL
MODEL 7
REMARK VINA RESULT:      -8.1      2.155      3.756
REMARK  2 active torsions:
REMARK  status: ('A' for Active; 'I' for Inactive)
REMARK    1  A    between atoms: C_9  and  N_2 
REMARK    2  A    between atoms: C_7  and  C_4 
ROOT
ATOM      1  C   UNL d   1      53.258  34.053  54.257  0.00  0.00     0.136 A 
ATOM      2  N   UNL d   1      52.929  33.448  53.800  0.00  0.00    -0.281 N 
ATOM      3  C   UNL d   1      53.937  33.901  54.706  0.00  0.00     0.152 A 
ATOM      4  C   UNL d   1      53.280  32.693  53.794  0.00  0.00     0.175 A 
ATOM      5  N   UNL d   1      53.957  32.549  54.246  0.00  0.00    -0.188 NA
ATOM      6  C   UNL d   1      54.284  33.153  54.700  0.00  0.00     0.292 A 
ATOM      7  C   UNL d   1      54.264  34.505  55.161  0.00  0.00     0.108 C 
ATOM      8  N   UNL d   1      54.597  35.111  55.620  0.00  0.00    -0.191 NA
ATOM      9  S   UNL d   1      52.917  34.804  54.268  0.00  0.00    -0.058 SA
ATOM     10  O   UNL d   1      54.965  33.010  55.155  0.00  0.00    -0.264 OA
ENDROOT
BRANCH   2  11
ATOM     11  C   UNL d   1      52.256  33.595  53.353  0.00  0.00     0.066 A 
ATOM     12  C   UNL d   1      52.332  33.901  52.591  0.00  0.00     0.020 A 
ATOM     13  C   UNL d   1      51.655  34.047  52.145  0.00  0.00     0.031 A 
ATOM     14  C   UNL d   1      50.905  33.888  52.457  0.00  0.00     0.140 A 
ATOM     15  C   UNL d   1      50.833  33.580  53.223  0.00  0.00     0.031 A 
ATOM     16  F   UNL d   1      50.229  34.037  52.002  0.00  0.00    -0.204 F 
ATOM     17  C   UNL d   1      51.510  33.434  53.670  0.00  0.00     0.020 A 
ENDBRANCH   2  11
BRANCH   4  18
ATOM     18  C   UNL d   1      52.952  32.089  53.340  0.00  0.00     0.135 A 
ATOM     19  O   UNL d   1      53.067  31.976  52.534  0.00  0.00    -0.302 OA
ATOM     20  C   UNL d   1      52.639  31.312  52.313  0.00  0.00     0.123 A 
ATOM     21  C   UNL d   1      52.260  31.014  52.980  0.00  0.00     0.029 A 
ATOM     22  C   UNL d   1      52.447  31.485  53.615  0.00  0.00     0.030 A 
ENDBRANCH   4  18
TORSDOF 2
ENDMDL
