MODEL 1
REMARK VINA RESULT:      -6.9      0.000      0.000
REMARK  5 active torsions:
REMARK  status: ('A' for Active; 'I' for Inactive)
REMARK       I    between atoms: N_2  and  C_1 
REMARK       I    between atoms: N_4  and  C_1 
REMARK    1  A    between atoms: C_8  and  N_2 
REMARK    2  A    between atoms: C_3  and  C_5 
REMARK    3  A    between atoms: O_11  and  C_3 
REMARK    4  A    between atoms: C_14  and  N_4 
REMARK    5  A    between atoms: C_15  and  N_4 
ROOT
ATOM      1  C   UNL d   1     -46.243  13.327  22.751  0.00  0.00     0.063 A 
ATOM      2  C   UNL d   1     -47.706  14.030  23.049  0.00  0.00     0.086 A 
ATOM      3  C   UNL d   1     -46.335  14.144  22.666  0.00  0.00     0.007 A 
ATOM      4  C   UNL d   1     -46.876  12.863  22.982  0.00  0.00     0.007 A 
ATOM      5  C   UNL d   1     -47.073  14.493  22.817  0.00  0.00     0.019 A 
ATOM      6  C   UNL d   1     -47.608  13.212  23.132  0.00  0.00     0.019 A 
ENDROOT
BRANCH   2   7
ATOM      7  N   UNL d   1     -48.435  14.375  23.199  0.00  0.00    -0.192 NA
ATOM      8  C   UNL d   1     -48.991  14.426  22.588  0.00  0.00     0.354 C 
ATOM      9  N   UNL d   1     -49.720  14.768  22.727  0.00  0.00    -0.256 N 
ATOM     10  O   UNL d   1     -48.811  14.130  21.834  0.00  0.00    -0.244 OA
BRANCH   9  11
ATOM     11  C   UNL d   1     -49.895  15.061  23.481  0.00  0.00     0.085 C 
ATOM     12  C   UNL d   1     -50.279  15.788  23.563  0.00  0.00     0.021 C 
ENDBRANCH   9  11
BRANCH   9  13
ATOM     13  C   UNL d   1     -50.273  14.816  22.113  0.00  0.00     0.085 C 
ATOM     14  C   UNL d   1     -50.981  14.396  22.171  0.00  0.00     0.021 C 
ENDBRANCH   9  13
ENDBRANCH   2   7
BRANCH   1  15
ATOM     15  C   UNL d   1     -45.520  12.976  22.603  0.00  0.00     0.296 C 
ATOM     16  O   UNL d   1     -45.265  12.345  23.059  0.00  0.00    -0.259 OA
BRANCH  15  17
ATOM     17  O   UNL d   1     -45.044  13.261  21.990  0.00  0.00    -0.296 OA
ATOM     18  C   UNL d   1     -44.365  12.853  21.786  0.00  0.00     0.185 C 
ENDBRANCH  15  17
ENDBRANCH   1  15
TORSDOF 5
ENDMDL
MODEL 2
REMARK VINA RESULT:      -5.1      1.477      4.354
REMARK  5 active torsions:
REMARK  status: ('A' for Active; 'I' for Inactive)
REMARK       I    between atoms: N_2  and  C_1 
REMARK       I    between atoms: N_4  and  C_1 
REMARK    1  A    between atoms: C_8  and  N_2 
REMARK    2  A    between atoms: C_3  and  C_5 
REMARK    3  A    between atoms: O_11  and  C_3 
REMARK    4  A    between atoms: C_14  and  N_4 
REMARK    5  A    between atoms: C_15  and  N_4 
ROOT
ATOM      1  C   UNL d   1     -49.587  14.482  22.851  0.00  0.00     0.063 A 
ATOM      2  C   UNL d   1     -48.083  13.865  22.566  0.00  0.00     0.086 A 
ATOM      3  C   UNL d   1     -48.915  14.887  23.115  0.00  0.00     0.007 A 
ATOM      4  C   UNL d   1     -49.509  13.775  22.448  0.00  0.00     0.007 A 
ATOM      5  C   UNL d   1     -48.162  14.572  22.969  0.00  0.00     0.019 A 
ATOM      6  C   UNL d   1     -48.758  13.464  22.305  0.00  0.00     0.019 A 
ENDROOT
BRANCH   2   7
ATOM      7  N   UNL d   1     -47.338  13.554  22.423  0.00  0.00    -0.192 NA
ATOM      8  C   UNL d   1     -47.015  13.014  22.960  0.00  0.00     0.354 C 
ATOM      9  N   UNL d   1     -46.273  12.699  22.826  0.00  0.00    -0.256 N 
ATOM     10  O   UNL d   1     -47.441  12.792  23.636  0.00  0.00    -0.244 OA
BRANCH   9  11
ATOM     11  C   UNL d   1     -45.851  12.924  22.149  0.00  0.00     0.085 C 
ATOM     12  C   UNL d   1     -45.100  13.261  22.224  0.00  0.00     0.021 C 
ENDBRANCH   9  11
BRANCH   9  13
ATOM     13  C   UNL d   1     -45.953  12.160  23.366  0.00  0.00     0.085 C 
ATOM     14  C   UNL d   1     -45.728  11.409  23.105  0.00  0.00     0.021 C 
ENDBRANCH   9  13
ENDBRANCH   2   7
BRANCH   1  15
ATOM     15  C   UNL d   1     -50.332  14.786  22.991  0.00  0.00     0.296 C 
ATOM     16  O   UNL d   1     -50.966  14.284  23.122  0.00  0.00    -0.259 OA
BRANCH  15  17
ATOM     17  O   UNL d   1     -50.445  15.605  23.000  0.00  0.00    -0.296 OA
ATOM     18  C   UNL d   1     -51.064  15.920  23.433  0.00  0.00     0.185 C 
ENDBRANCH  15  17
ENDBRANCH   1  15
TORSDOF 5
ENDMDL
MODEL 3
REMARK VINA RESULT:      -4.9      8.443      9.298
REMARK  5 active torsions:
REMARK  status: ('A' for Active; 'I' for Inactive)
REMARK       I    between atoms: N_2  and  C_1 
REMARK       I    between atoms: N_4  and  C_1 
REMARK    1  A    between atoms: C_8  and  N_2 
REMARK    2  A    between atoms: C_3  and  C_5 
REMARK    3  A    between atoms: O_11  and  C_3 
REMARK    4  A    between atoms: C_14  and  N_4 
REMARK    5  A    between atoms: C_15  and  N_4 
ROOT
ATOM      1  C   UNL d   1     -40.655  15.321  17.815  0.00  0.00     0.063 A 
ATOM      2  C   UNL d   1     -40.205  14.872  19.337  0.00  0.00     0.086 A 
ATOM      3  C   UNL d   1     -40.196  14.642  17.928  0.00  0.00     0.007 A 
ATOM      4  C   UNL d   1     -40.888  15.772  18.456  0.00  0.00     0.007 A 
ATOM      5  C   UNL d   1     -39.972  14.421  18.696  0.00  0.00     0.019 A 
ATOM      6  C   UNL d   1     -40.664  15.550  19.218  0.00  0.00     0.019 A 
ENDROOT
BRANCH   2   7
ATOM      7  N   UNL d   1     -39.984  14.653  20.096  0.00  0.00    -0.192 NA
ATOM      8  C   UNL d   1     -39.334  15.023  20.450  0.00  0.00     0.354 C 
ATOM      9  N   UNL d   1     -39.105  14.812  21.206  0.00  0.00    -0.256 N 
ATOM     10  O   UNL d   1     -38.913  15.609  20.041  0.00  0.00    -0.244 OA
BRANCH   9  11
ATOM     11  C   UNL d   1     -39.529  14.226  21.611  0.00  0.00     0.085 C 
ATOM     12  C   UNL d   1     -39.127  13.665  22.065  0.00  0.00     0.021 C 
ENDBRANCH   9  11
BRANCH   9  13
ATOM     13  C   UNL d   1     -38.455  15.185  21.556  0.00  0.00     0.085 C 
ATOM     14  C   UNL d   1     -38.571  15.661  22.221  0.00  0.00     0.021 C 
ENDBRANCH   9  13
ENDBRANCH   2   7
BRANCH   1  15
ATOM     15  C   UNL d   1     -40.879  15.545  17.062  0.00  0.00     0.296 C 
ATOM     16  O   UNL d   1     -40.314  15.714  16.494  0.00  0.00    -0.259 OA
BRANCH  15  17
ATOM     17  O   UNL d   1     -41.682  15.602  16.873  0.00  0.00    -0.296 OA
ATOM     18  C   UNL d   1     -41.905  15.922  16.154  0.00  0.00     0.185 C 
ENDBRANCH  15  17
ENDBRANCH   1  15
TORSDOF 5
ENDMDL
MODEL 4
REMARK VINA RESULT:      -4.8      7.426      9.469
REMARK  5 active torsions:
REMARK  status: ('A' for Active; 'I' for Inactive)
REMARK       I    between atoms: N_2  and  C_1 
REMARK       I    between atoms: N_4  and  C_1 
REMARK    1  A    between atoms: C_8  and  N_2 
REMARK    2  A    between atoms: C_3  and  C_5 
REMARK    3  A    between atoms: O_11  and  C_3 
REMARK    4  A    between atoms: C_14  and  N_4 
REMARK    5  A    between atoms: C_15  and  N_4 
ROOT
ATOM      1  C   UNL d   1     -38.965  14.278  16.893  0.00  0.00     0.063 A 
ATOM      2  C   UNL d   1     -39.841  14.220  18.290  0.00  0.00     0.086 A 
ATOM      3  C   UNL d   1     -38.633  13.952  17.577  0.00  0.00     0.007 A 
ATOM      4  C   UNL d   1     -39.728  14.573  16.905  0.00  0.00     0.007 A 
ATOM      5  C   UNL d   1     -39.078  13.925  18.277  0.00  0.00     0.019 A 
ATOM      6  C   UNL d   1     -40.168  14.545  17.602  0.00  0.00     0.019 A 
ENDROOT
BRANCH   2   7
ATOM      7  N   UNL d   1     -40.281  14.194  18.982  0.00  0.00    -0.192 NA
ATOM      8  C   UNL d   1     -40.197  14.801  19.537  0.00  0.00     0.354 C 
ATOM      9  N   UNL d   1     -40.630  14.784  20.230  0.00  0.00    -0.256 N 
ATOM     10  O   UNL d   1     -39.673  15.429  19.393  0.00  0.00    -0.244 OA
BRANCH   9  11
ATOM     11  C   UNL d   1     -41.151  14.156  20.369  0.00  0.00     0.085 C 
ATOM     12  C   UNL d   1     -41.352  13.948  21.143  0.00  0.00     0.021 C 
ENDBRANCH   9  11
BRANCH   9  13
ATOM     13  C   UNL d   1     -40.542  15.394  20.782  0.00  0.00     0.085 C 
ATOM     14  C   UNL d   1     -41.178  15.900  20.931  0.00  0.00     0.021 C 
ENDBRANCH   9  13
ENDBRANCH   2   7
BRANCH   1  15
ATOM     15  C   UNL d   1     -38.532  14.307  16.200  0.00  0.00     0.296 C 
ATOM     16  O   UNL d   1     -38.204  15.013  15.946  0.00  0.00    -0.259 OA
BRANCH  15  17
ATOM     17  O   UNL d   1     -38.427  13.619  15.754  0.00  0.00    -0.296 OA
ATOM     18  C   UNL d   1     -37.943  13.639  15.094  0.00  0.00     0.185 C 
ENDBRANCH  15  17
ENDBRANCH   1  15
TORSDOF 5
ENDMDL
MODEL 5
REMARK VINA RESULT:      -4.5      8.233      8.973
REMARK  5 active torsions:
REMARK  status: ('A' for Active; 'I' for Inactive)
REMARK       I    between atoms: N_2  and  C_1 
REMARK       I    between atoms: N_4  and  C_1 
REMARK    1  A    between atoms: C_8  and  N_2 
REMARK    2  A    between atoms: C_3  and  C_5 
REMARK    3  A    between atoms: O_11  and  C_3 
REMARK    4  A    between atoms: C_14  and  N_4 
REMARK    5  A    between atoms: C_15  and  N_4 
ROOT
ATOM      1  C   UNL d   1     -39.453  15.060  21.480  0.00  0.00     0.063 A 
ATOM      2  C   UNL d   1     -39.971  15.387  19.948  0.00  0.00     0.086 A 
ATOM      3  C   UNL d   1     -38.992  15.528  20.977  0.00  0.00     0.007 A 
ATOM      4  C   UNL d   1     -40.167  14.758  21.220  0.00  0.00     0.007 A 
ATOM      5  C   UNL d   1     -39.257  15.690  20.208  0.00  0.00     0.019 A 
ATOM      6  C   UNL d   1     -40.428  14.920  20.455  0.00  0.00     0.019 A 
ENDROOT
BRANCH   2   7
ATOM      7  N   UNL d   1     -40.233  15.547  19.187  0.00  0.00    -0.192 NA
ATOM      8  C   UNL d   1     -40.041  15.023  18.576  0.00  0.00     0.354 C 
ATOM      9  N   UNL d   1     -40.297  15.173  17.814  0.00  0.00    -0.256 N 
ATOM     10  O   UNL d   1     -39.589  14.346  18.733  0.00  0.00    -0.244 OA
BRANCH   9  11
ATOM     11  C   UNL d   1     -40.747  15.852  17.662  0.00  0.00     0.085 C 
ATOM     12  C   UNL d   1     -41.333  15.837  17.080  0.00  0.00     0.021 C 
ENDBRANCH   9  11
BRANCH   9  13
ATOM     13  C   UNL d   1     -40.102  14.647  17.206  0.00  0.00     0.085 C 
ATOM     14  C   UNL d   1     -39.552  14.874  16.634  0.00  0.00     0.021 C 
ENDBRANCH   9  13
ENDBRANCH   2   7
BRANCH   1  15
ATOM     15  C   UNL d   1     -39.199  14.897  22.240  0.00  0.00     0.296 C 
ATOM     16  O   UNL d   1     -39.078  14.123  22.479  0.00  0.00    -0.259 OA
BRANCH  15  17
ATOM     17  O   UNL d   1     -39.063  15.518  22.768  0.00  0.00    -0.296 OA
ATOM     18  C   UNL d   1     -38.770  15.354  23.514  0.00  0.00     0.185 C 
ENDBRANCH  15  17
ENDBRANCH   1  15
TORSDOF 5
ENDMDL
MODEL 6
REMARK VINA RESULT:      -4.1      2.048      4.651
REMARK  5 active torsions:
REMARK  status: ('A' for Active; 'I' for Inactive)
REMARK       I    between atoms: N_2  and  C_1 
REMARK       I    between atoms: N_4  and  C_1 
REMARK    1  A    between atoms: C_8  and  N_2 
REMARK    2  A    between atoms: C_3  and  C_5 
REMARK    3  A    between atoms: O_11  and  C_3 
REMARK    4  A    between atoms: C_14  and  N_4 
REMARK    5  A    between atoms: C_15  and  N_4 
ROOT
ATOM      1  C   UNL d   1     -47.629  13.793  22.971  0.00  0.00     0.063 A 
ATOM      2  C   UNL d   1     -46.300  12.816  22.951  0.00  0.00     0.086 A 
ATOM      3  C   UNL d   1     -46.872  14.124  22.937  0.00  0.00     0.007 A 
ATOM      4  C   UNL d   1     -47.722  12.980  22.995  0.00  0.00     0.007 A 
ATOM      5  C   UNL d   1     -46.206  13.628  22.927  0.00  0.00     0.019 A 
ATOM      6  C   UNL d   1     -47.059  12.490  22.985  0.00  0.00     0.019 A 
ENDROOT
BRANCH   2   7
ATOM      7  N   UNL d   1     -45.642  12.326  22.942  0.00  0.00    -0.192 NA
ATOM      8  C   UNL d   1     -45.680  11.590  23.317  0.00  0.00     0.354 C 
ATOM      9  N   UNL d   1     -45.030  11.094  23.314  0.00  0.00    -0.256 N 
ATOM     10  O   UNL d   1     -46.378  11.352  23.698  0.00  0.00    -0.244 OA
BRANCH   9  11
ATOM     11  C   UNL d   1     -44.336  11.337  22.932  0.00  0.00     0.085 C 
ATOM     12  C   UNL d   1     -43.603  11.052  23.187  0.00  0.00     0.021 C 
ENDBRANCH   9  11
BRANCH   9  13
ATOM     13  C   UNL d   1     -45.074  10.359  23.690  0.00  0.00     0.085 C 
ATOM     14  C   UNL d   1     -44.425   9.850  23.661  0.00  0.00     0.021 C 
ENDBRANCH   9  13
ENDBRANCH   2   7
BRANCH   1  15
ATOM     15  C   UNL d   1     -48.289  14.275  22.980  0.00  0.00     0.296 C 
ATOM     16  O   UNL d   1     -48.876  14.162  23.540  0.00  0.00    -0.259 OA
BRANCH  15  17
ATOM     17  O   UNL d   1     -48.363  14.879  22.421  0.00  0.00    -0.296 OA
ATOM     18  C   UNL d   1     -49.024  15.360  22.435  0.00  0.00     0.185 C 
ENDBRANCH  15  17
ENDBRANCH   1  15
TORSDOF 5
ENDMDL
MODEL 7
REMARK VINA RESULT:      -4.0      7.386     10.078
REMARK  5 active torsions:
REMARK  status: ('A' for Active; 'I' for Inactive)
REMARK       I    between atoms: N_2  and  C_1 
REMARK       I    between atoms: N_4  and  C_1 
REMARK    1  A    between atoms: C_8  and  N_2 
REMARK    2  A    between atoms: C_3  and  C_5 
REMARK    3  A    between atoms: O_11  and  C_3 
REMARK    4  A    between atoms: C_14  and  N_4 
REMARK    5  A    between atoms: C_15  and  N_4 
ROOT
ATOM      1  C   UNL d   1     -40.472  14.863  19.617  0.00  0.00     0.063 A 
ATOM      2  C   UNL d   1     -39.711  15.088  18.170  0.00  0.00     0.086 A 
ATOM      3  C   UNL d   1     -40.849  14.650  18.913  0.00  0.00     0.007 A 
ATOM      4  C   UNL d   1     -39.720  15.186  19.600  0.00  0.00     0.007 A 
ATOM      5  C   UNL d   1     -40.463  14.765  18.188  0.00  0.00     0.019 A 
ATOM      6  C   UNL d   1     -39.338  15.299  18.878  0.00  0.00     0.019 A 
ENDROOT
BRANCH   2   7
ATOM      7  N   UNL d   1     -39.329  15.202  17.453  0.00  0.00    -0.192 NA
ATOM      8  C   UNL d   1     -38.827  14.611  17.165  0.00  0.00     0.354 C 
ATOM      9  N   UNL d   1     -38.442  14.715  16.451  0.00  0.00    -0.256 N 
ATOM     10  O   UNL d   1     -38.713  13.912  17.597  0.00  0.00    -0.244 OA
BRANCH   9  11
ATOM     11  C   UNL d   1     -38.560  15.414  16.023  0.00  0.00     0.085 C 
ATOM     12  C   UNL d   1     -37.952  15.718  15.553  0.00  0.00     0.021 C 
ENDBRANCH   9  11
BRANCH   9  13
ATOM     13  C   UNL d   1     -37.941  14.121  16.167  0.00  0.00     0.085 C 
ATOM     14  C   UNL d   1     -38.128  13.737  15.460  0.00  0.00     0.021 C 
ENDBRANCH   9  13
ENDBRANCH   2   7
BRANCH   1  15
ATOM     15  C   UNL d   1     -40.846  14.752  20.335  0.00  0.00     0.296 C 
ATOM     16  O   UNL d   1     -41.024  15.393  20.813  0.00  0.00    -0.259 OA
BRANCH  15  17
ATOM     17  O   UNL d   1     -41.046  13.988  20.579  0.00  0.00    -0.296 OA
ATOM     18  C   UNL d   1     -41.478  13.886  21.267  0.00  0.00     0.185 C 
ENDBRANCH  15  17
ENDBRANCH   1  15
TORSDOF 5
ENDMDL
