MODEL 1
REMARK VINA RESULT:       1.4      0.000      0.000
REMARK  6 active torsions:
REMARK  status: ('A' for Active; 'I' for Inactive)
REMARK       I    between atoms: C_6  and  N_1 
REMARK    1  A    between atoms: C_7  and  C_3 
REMARK    2  A    between atoms: C_8  and  C_4 
REMARK    3  A    between atoms: C_11  and  C_6 
REMARK    4  A    between atoms: C_9  and  C_17 
REMARK    5  A    between atoms: C_17  and  C_11 
REMARK    6  A    between atoms: O_26  and  C_19 
ROOT
ATOM      1  N   UNL d   1      58.391  -0.945  29.837  0.00  0.00    -0.195 N 
ATOM      2  N   UNL d   1      57.997  -0.459  30.366  0.00  0.00    -0.163 NA
ATOM      3  C   UNL d   1      57.517  -0.898  30.838  0.00  0.00     0.103 A 
ATOM      4  C   UNL d   1      58.150  -1.706  29.984  0.00  0.00     0.088 A 
ATOM      5  C   UNL d   1      57.621  -1.693  30.587  0.00  0.00     0.040 A 
ATOM      6  C   UNL d   1      58.934  -0.689  29.263  0.00  0.00     0.281 C 
ATOM      7  O   UNL d   1      59.292  -1.272  28.758  0.00  0.00    -0.265 OA
ENDROOT
BRANCH   3   8
ATOM      8  C   UNL d   1      57.069  -0.543  31.408  0.00  0.00     0.019 A 
ATOM      9  C   UNL d   1      56.982   0.289  31.389  0.00  0.00     0.004 A 
ATOM     10  C   UNL d   1      56.516   0.669  31.978  0.00  0.00     0.024 A 
ATOM     11  C   UNL d   1      56.148   0.228  32.570  0.00  0.00     0.094 A 
ATOM     12  C   UNL d   1      56.234  -0.603  32.588  0.00  0.00     0.024 A 
ATOM     13  C   UNL d   1      56.700  -0.982  31.999  0.00  0.00     0.004 A 
BRANCH  11  14
ATOM     14  O   UNL d   1      55.697   0.630  33.134  0.00  0.00    -0.328 OA
ATOM     15  C   UNL d   1      55.391   0.241  33.807  0.00  0.00     0.181 C 
ENDBRANCH  11  14
ENDBRANCH   3   8
BRANCH   4  16
ATOM     16  C   UNL d   1      58.390  -2.417  29.592  0.00  0.00     0.018 A 
ATOM     17  C   UNL d   1      59.081  -2.810  29.832  0.00  0.00     0.002 A 
ATOM     18  C   UNL d   1      59.316  -3.502  29.452  0.00  0.00     0.007 A 
ATOM     19  C   UNL d   1      58.865  -3.801  28.836  0.00  0.00     0.035 A 
ATOM     20  C   UNL d   1      58.173  -3.408  28.596  0.00  0.00     0.007 A 
ATOM     21 BR   UNL d   1      59.099  -4.493  28.456  0.00  0.00    -0.049 Br
ATOM     22  C   UNL d   1      57.929  -2.714  28.970  0.00  0.00     0.002 A 
ENDBRANCH   4  16
BRANCH   6  23
ATOM     23  C   UNL d   1      59.138   0.095  29.161  0.00  0.00     0.069 C 
BRANCH  23  24
ATOM     24  C   UNL d   1      59.767   0.314  28.691  0.00  0.00     0.075 C 
BRANCH  24  25
ATOM     25  C   UNL d   1      60.478   0.555  29.012  0.00  0.00     0.211 C 
ATOM     26  O   UNL d   1      60.563   0.680  29.823  0.00  0.00    -0.644 OA
ATOM     27  O   UNL d   1      61.134   0.680  28.536  0.00  0.00    -0.644 OA
ENDBRANCH  24  25
ENDBRANCH  23  24
ENDBRANCH   6  23
TORSDOF 6
ENDMDL
