MODEL 1
REMARK VINA RESULT:      -0.4      0.000      0.000
REMARK  5 active torsions:
REMARK  status: ('A' for Active; 'I' for Inactive)
REMARK    1  A    between atoms: S_10  and  C_5 
REMARK    2  A    between atoms: C_14  and  N_9 
REMARK    3  A    between atoms: C_17  and  S_10 
REMARK    4  A    between atoms: C_15  and  C_14 
REMARK    5  A    between atoms: C_19  and  C_17 
ROOT
ATOM      1  C   UNL d   1     -41.837-122.817 -53.280  0.00  0.00     0.174 A 
ATOM      2  N   UNL d   1     -41.828-123.216 -52.570  0.00  0.00    -0.203 NA
ATOM      3  C   UNL d   1     -41.582-122.045 -53.140  0.00  0.00     0.159 A 
ATOM      4  N   UNL d   1     -42.040-123.040 -54.040  0.00  0.00    -0.239 N 
ATOM      5  C   UNL d   1     -41.567-122.685 -51.994  0.00  0.00     0.181 A 
ATOM      6  C   UNL d   1     -41.998-122.510 -54.687  0.00  0.00     0.358 A 
ATOM      7  N   UNL d   1     -41.743-121.737 -54.548  0.00  0.00    -0.152 NA
ATOM      8  C   UNL d   1     -41.530-121.496 -53.760  0.00  0.00     0.302 A 
ATOM      9  N   UNL d   1     -41.391-121.926 -52.274  0.00  0.00    -0.279 N 
ATOM     10  O   UNL d   1     -42.202-122.730 -55.459  0.00  0.00    -0.244 OA
ATOM     11  O   UNL d   1     -41.275-120.724 -53.621  0.00  0.00    -0.263 OA
ATOM     12  C   UNL d   1     -42.295-123.813 -54.179  0.00  0.00     0.105 C 
ENDROOT
BRANCH   5  13
ATOM     13  S   UNL d   1     -41.545-123.050 -51.266  0.00  0.00    -0.049 SA
BRANCH  13  14
ATOM     14  C   UNL d   1     -42.036-123.572 -50.859  0.00  0.00     0.038 C 
BRANCH  14  15
ATOM     15  C   UNL d   1     -41.984-123.633 -50.038  0.00  0.00     0.007 A 
ATOM     16  C   UNL d   1     -41.247-123.685 -49.674  0.00  0.00     0.003 A 
ATOM     17  C   UNL d   1     -41.192-123.746 -48.857  0.00  0.00     0.030 A 
ATOM     18  C   UNL d   1     -41.881-123.755 -48.395  0.00  0.00     0.140 A 
ATOM     19  C   UNL d   1     -42.617-123.703 -48.760  0.00  0.00     0.030 A 
ATOM     20  F   UNL d   1     -41.829-123.816 -47.574  0.00  0.00    -0.204 F 
ATOM     21  C   UNL d   1     -42.669-123.642 -49.581  0.00  0.00     0.003 A 
ENDBRANCH  14  15
ENDBRANCH  13  14
ENDBRANCH   5  13
BRANCH   9  22
ATOM     22  C   UNL d   1     -41.123-121.257 -51.887  0.00  0.00     0.082 C 
BRANCH  22  23
ATOM     23  C   UNL d   1     -41.618-120.878 -51.346  0.00  0.00     0.019 C 
ATOM     24  C   UNL d   1     -41.361-120.201 -50.957  0.00  0.00     0.002 C 
ENDBRANCH  22  23
ENDBRANCH   9  22
TORSDOF 5
ENDMDL
MODEL 2
REMARK VINA RESULT:       1.6      2.786      4.530
REMARK  5 active torsions:
REMARK  status: ('A' for Active; 'I' for Inactive)
REMARK    1  A    between atoms: S_10  and  C_5 
REMARK    2  A    between atoms: C_14  and  N_9 
REMARK    3  A    between atoms: C_17  and  S_10 
REMARK    4  A    between atoms: C_15  and  C_14 
REMARK    5  A    between atoms: C_19  and  C_17 
ROOT
ATOM      1  C   UNL d   1     -42.587-122.805 -50.261  0.00  0.00     0.174 A 
ATOM      2  N   UNL d   1     -42.562-122.851 -51.074  0.00  0.00    -0.203 NA
ATOM      3  C   UNL d   1     -42.069-122.207 -50.026  0.00  0.00     0.159 A 
ATOM      4  N   UNL d   1     -43.005-123.218 -49.693  0.00  0.00    -0.239 N 
ATOM      5  C   UNL d   1     -42.027-122.280 -51.336  0.00  0.00     0.181 A 
ATOM      6  C   UNL d   1     -42.926-123.056 -48.874  0.00  0.00     0.358 A 
ATOM      7  N   UNL d   1     -42.408-122.458 -48.639  0.00  0.00    -0.152 NA
ATOM      8  C   UNL d   1     -41.969-122.023 -49.223  0.00  0.00     0.302 A 
ATOM      9  N   UNL d   1     -41.674-121.832 -50.737  0.00  0.00    -0.279 N 
ATOM     10  O   UNL d   1     -43.347-123.471 -48.295  0.00  0.00    -0.244 OA
ATOM     11  O   UNL d   1     -41.451-121.425 -48.988  0.00  0.00    -0.263 OA
ATOM     12  C   UNL d   1     -43.523-123.815 -49.928  0.00  0.00     0.105 C 
ENDROOT
BRANCH   5  13
ATOM     13  S   UNL d   1     -41.976-122.297 -52.150  0.00  0.00    -0.049 SA
BRANCH  13  14
ATOM     14  C   UNL d   1     -41.702-122.839 -52.706  0.00  0.00     0.038 C 
BRANCH  14  15
ATOM     15  C   UNL d   1     -41.750-122.664 -53.511  0.00  0.00     0.007 A 
ATOM     16  C   UNL d   1     -42.348-122.173 -53.792  0.00  0.00     0.003 A 
ATOM     17  C   UNL d   1     -42.399-121.998 -54.592  0.00  0.00     0.030 A 
ATOM     18  C   UNL d   1     -41.845-122.316 -55.121  0.00  0.00     0.140 A 
ATOM     19  C   UNL d   1     -41.247-122.806 -54.840  0.00  0.00     0.030 A 
ATOM     20  F   UNL d   1     -41.893-122.142 -55.926  0.00  0.00    -0.204 F 
ATOM     21  C   UNL d   1     -41.199-122.981 -54.035  0.00  0.00     0.003 A 
ENDBRANCH  14  15
ENDBRANCH  13  14
ENDBRANCH   5  13
BRANCH   9  22
ATOM     22  C   UNL d   1     -41.126-121.225 -50.768  0.00  0.00     0.082 C 
BRANCH  22  23
ATOM     23  C   UNL d   1     -41.220-120.625 -51.327  0.00  0.00     0.019 C 
ATOM     24  C   UNL d   1     -41.123-119.839 -51.106  0.00  0.00     0.002 C 
ENDBRANCH  22  23
ENDBRANCH   9  22
TORSDOF 5
ENDMDL
