MODEL 1
REMARK VINA RESULT:      35.1      0.000      0.000
REMARK  5 active torsions:
REMARK  status: ('A' for Active; 'I' for Inactive)
REMARK    1  A    between atoms: O_8  and  C_2 
REMARK    2  A    between atoms: C_9  and  C_5 
REMARK    3  A    between atoms: C_14  and  O_8 
REMARK    4  A    between atoms: N_11  and  C_9 
REMARK    5  A    between atoms: O_20  and  C_17 
ROOT
ATOM      1  C   UNL d   1      45.712 -15.677  44.114  0.00  0.00     0.108 A 
ATOM      2  C   UNL d   1      45.458 -14.032  44.134  0.00  0.00     0.161 A 
ATOM      3  C   UNL d   1      45.055 -15.358  44.527  0.00  0.00     0.064 A 
ATOM      4  C   UNL d   1      44.931 -14.538  44.535  0.00  0.00     0.222 A 
ATOM      5  C   UNL d   1      45.838 -16.484  44.104  0.00  0.00     0.079 A 
ATOM      6  O   UNL d   1      46.236 -15.169  43.715  0.00  0.00    -0.305 OA
ATOM      7  C   UNL d   1      46.109 -14.348  43.725  0.00  0.00     0.126 A 
ATOM      8  C   UNL d   1      44.545 -15.872  44.918  0.00  0.00     0.009 A 
ATOM      9  C   UNL d   1      45.324 -16.992  44.496  0.00  0.00     0.199 A 
ATOM     10  O   UNL d   1      44.283 -14.224  44.942  0.00  0.00    -0.284 OA
ATOM     11  C   UNL d   1      44.676 -16.683  44.904  0.00  0.00     0.042 A 
ATOM     12  O   UNL d   1      45.455 -17.807  44.483  0.00  0.00    -0.286 OA
ATOM     13  C   UNL d   1      46.634 -13.846  43.325  0.00  0.00     0.029 C 
ENDROOT
BRANCH   2  14
ATOM     14  O   UNL d   1      45.327 -13.218  44.147  0.00  0.00    -0.302 OA
BRANCH  14  15
ATOM     15  C   UNL d   1      44.960 -12.840  43.511  0.00  0.00     0.102 A 
ATOM     16  C   UNL d   1      45.393 -12.651  42.843  0.00  0.00     0.049 A 
ATOM     17  C   UNL d   1      45.023 -12.273  42.208  0.00  0.00     0.096 A 
ATOM     18  C   UNL d   1      44.216 -12.085  42.247  0.00  0.00     0.024 A 
ATOM     19  C   UNL d   1      43.785 -12.280  42.927  0.00  0.00     0.004 A 
ATOM     20  C   UNL d   1      44.157 -12.656  43.556  0.00  0.00     0.025 A 
BRANCH  17  21
ATOM     21  O   UNL d   1      45.456 -12.084  41.539  0.00  0.00    -0.328 OA
ATOM     22  C   UNL d   1      45.142 -12.217  40.785  0.00  0.00     0.181 C 
ENDBRANCH  17  21
ENDBRANCH  14  15
ENDBRANCH   2  14
BRANCH   5  23
ATOM     23  C   UNL d   1      46.476 -16.790  43.702  0.00  0.00     0.085 C 
BRANCH  23  24
ATOM     24  N   UNL d   1      46.527 -17.530  43.364  0.00  0.00    -0.302 N 
ATOM     25  C   UNL d   1      46.625 -18.233  43.763  0.00  0.00     0.080 A 
ATOM     26  C   UNL d   1      46.647 -18.825  43.218  0.00  0.00     0.021 A 
ATOM     27  C   UNL d   1      46.565 -18.504  42.493  0.00  0.00     0.021 A 
ATOM     28  C   UNL d   1      46.489 -17.691  42.579  0.00  0.00     0.080 A 
ENDBRANCH  23  24
ENDBRANCH   5  23
TORSDOF 5
ENDMDL
