MODEL 1
REMARK VINA RESULT:      47.0      0.000      0.000
REMARK  4 active torsions:
REMARK  status: ('A' for Active; 'I' for Inactive)
REMARK    1  A    between atoms: C_12  and  C_2 
REMARK    2  A    between atoms: N_9  and  C_3 
REMARK       I    between atoms: C_7  and  N_8 
REMARK    3  A    between atoms: C_10  and  C_7 
REMARK    4  A    between atoms: N_8  and  N_9 
ROOT
ATOM      1  C   UNL d   1      13.556  13.187  -4.176  0.00  0.00     0.037 A 
ATOM      2  C   UNL d   1      13.864  13.835  -3.763  0.00  0.00     0.101 A 
ATOM      3  C   UNL d   1      14.011  13.009  -2.574  0.00  0.00     0.768 A 
ATOM      4  N   UNL d   1      14.085  13.739  -2.975  0.00  0.00    -0.058 NA
ATOM      5  N   UNL d   1      13.694  12.356  -3.010  0.00  0.00    -0.058 NA
ATOM      6  C   UNL d   1      13.473  12.444  -3.793  0.00  0.00     0.101 A 
ATOM      7  C   UNL d   1      13.323  13.243  -4.965  0.00  0.00     0.010 A 
ATOM      8  C   UNL d   1      13.158  11.781  -4.215  0.00  0.00     0.020 A 
ATOM      9  C   UNL d   1      13.019  12.612  -5.380  0.00  0.00     0.035 A 
ATOM     10  C   UNL d   1      12.941  11.887  -4.995  0.00  0.00     0.008 A 
ATOM     11 BR   UNL d   1      12.784  12.695  -6.200  0.00  0.00    -0.049 Br
ENDROOT
BRANCH   3  12
ATOM     12  N   UNL d   1      14.232  12.905  -1.781  0.00  0.00     0.049 NA
BRANCH  12  13
ATOM     13  N   UNL d   1      13.787  12.437  -1.273  0.00  0.00    -0.094 NA
ATOM     14  C   UNL d   1      14.054  12.256  -0.540  0.00  0.00     0.273 C 
ATOM     15  O   UNL d   1      13.578  11.780  -0.054  0.00  0.00    -0.269 OA
BRANCH  14  16
ATOM     16  C   UNL d   1      14.780  12.534  -0.279  0.00  0.00     0.075 C 
ATOM     17  C   UNL d   1      15.155  11.817  -0.561  0.00  0.00     0.009 C 
ATOM     18  C   UNL d   1      14.397  13.221  -0.014  0.00  0.00     0.009 C 
ATOM     19  C   UNL d   1      15.506  12.814  -0.018  0.00  0.00     0.009 C 
ENDBRANCH  14  16
ENDBRANCH  12  13
ENDBRANCH   3  12
BRANCH   2  20
ATOM     20  C   UNL d   1      13.954  14.563  -4.113  0.00  0.00     0.018 A 
ATOM     21  C   UNL d   1      14.649  14.787  -4.461  0.00  0.00     0.002 A 
ATOM     22  C   UNL d   1      14.736  15.511  -4.808  0.00  0.00     0.000 A 
ATOM     23  C   UNL d   1      14.097  16.034  -4.806  0.00  0.00     0.000 A 
ATOM     24  C   UNL d   1      13.420  15.835  -4.476  0.00  0.00     0.000 A 
ATOM     25  C   UNL d   1      13.315  15.094  -4.115  0.00  0.00     0.002 A 
ENDBRANCH   2  20
TORSDOF 4
ENDMDL
