MODEL 1
REMARK VINA RESULT:      24.9      0.000      0.000
REMARK  4 active torsions:
REMARK  status: ('A' for Active; 'I' for Inactive)
REMARK    1  A    between atoms: O_2  and  C_1 
REMARK       I    between atoms: N_6  and  C_1 
REMARK    2  A    between atoms: C_3  and  O_2 
REMARK    3  A    between atoms: C_14  and  N_6 
REMARK    4  A    between atoms: C_15  and  N_6 
ROOT
ATOM      1  C   UNL d   1     -57.639 -98.756 -44.187  0.00  0.00     0.105 A 
ATOM      2  C   UNL d   1     -58.293 -98.756 -44.691  0.00  0.00     0.024 A 
ATOM      3  C   UNL d   1     -59.048 -98.756 -44.397  0.00  0.00     0.013 A 
ATOM      4  C   UNL d   1     -59.173 -98.756 -43.591  0.00  0.00     0.058 A 
ATOM      5  C   UNL d   1     -57.779 -98.755 -43.368  0.00  0.00     0.026 A 
ATOM      6  C   UNL d   1     -58.534 -98.755 -43.075  0.00  0.00     0.013 A 
ATOM      7 CL   UNL d   1     -59.942 -98.756 -43.284  0.00  0.00    -0.082 Cl
ATOM      8  C   UNL d   1     -58.153 -98.756 -45.509  0.00  0.00     0.002 A 
ATOM      9  C   UNL d   1     -59.686 -98.756 -44.913  0.00  0.00     0.001 A 
ATOM     10  C   UNL d   1     -59.569 -98.757 -45.738  0.00  0.00     0.000 A 
ATOM     11  C   UNL d   1     -58.814 -98.757 -46.032  0.00  0.00     0.000 A 
ENDROOT
BRANCH   1  12
ATOM     12  O   UNL d   1     -56.875 -98.756 -44.476  0.00  0.00    -0.259 OA
BRANCH  12  13
ATOM     13  C   UNL d   1     -56.299 -99.237 -44.119  0.00  0.00     0.377 C 
ATOM     14  N   UNL d   1     -55.550 -99.347 -44.509  0.00  0.00    -0.252 N 
ATOM     15  O   UNL d   1     -56.430 -99.610 -43.402  0.00  0.00    -0.237 OA
BRANCH  14  16
ATOM     16  C   UNL d   1     -54.978 -99.824 -44.158  0.00  0.00     0.085 C 
ATOM     17  C   UNL d   1     -54.788-100.557 -44.502  0.00  0.00     0.021 C 
ENDBRANCH  14  16
BRANCH  14  18
ATOM     18  C   UNL d   1     -55.406 -98.984 -45.220  0.00  0.00     0.085 C 
ATOM     19  C   UNL d   1     -54.761 -99.225 -45.686  0.00  0.00     0.021 C 
ENDBRANCH  14  18
ENDBRANCH  12  13
ENDBRANCH   1  12
TORSDOF 4
ENDMDL
MODEL 2
REMARK VINA RESULT:      25.6      0.833      1.697
REMARK  4 active torsions:
REMARK  status: ('A' for Active; 'I' for Inactive)
REMARK    1  A    between atoms: O_2  and  C_1 
REMARK       I    between atoms: N_6  and  C_1 
REMARK    2  A    between atoms: C_3  and  O_2 
REMARK    3  A    between atoms: C_14  and  N_6 
REMARK    4  A    between atoms: C_15  and  N_6 
ROOT
ATOM      1  C   UNL d   1     -57.477 -98.756 -44.763  0.00  0.00     0.105 A 
ATOM      2  C   UNL d   1     -58.075 -98.758 -44.195  0.00  0.00     0.024 A 
ATOM      3  C   UNL d   1     -58.856 -98.759 -44.408  0.00  0.00     0.013 A 
ATOM      4  C   UNL d   1     -59.063 -98.758 -45.197  0.00  0.00     0.058 A 
ATOM      5  C   UNL d   1     -57.700 -98.755 -45.564  0.00  0.00     0.026 A 
ATOM      6  C   UNL d   1     -58.482 -98.756 -45.777  0.00  0.00     0.013 A 
ATOM      7 CL   UNL d   1     -59.860 -98.758 -45.423  0.00  0.00    -0.082 Cl
ATOM      8  C   UNL d   1     -57.850 -98.760 -43.395  0.00  0.00     0.002 A 
ATOM      9  C   UNL d   1     -59.437 -98.761 -43.829  0.00  0.00     0.001 A 
ATOM     10  C   UNL d   1     -59.235 -98.762 -43.020  0.00  0.00     0.000 A 
ATOM     11  C   UNL d   1     -58.454 -98.762 -42.807  0.00  0.00     0.000 A 
ENDROOT
BRANCH   1  12
ATOM     12  O   UNL d   1     -56.686 -98.756 -44.556  0.00  0.00    -0.259 OA
BRANCH  12  13
ATOM     13  C   UNL d   1     -56.264 -99.471 -44.537  0.00  0.00     0.377 C 
ATOM     14  N   UNL d   1     -55.470 -99.477 -44.228  0.00  0.00    -0.252 N 
ATOM     15  O   UNL d   1     -56.588-100.172 -44.807  0.00  0.00    -0.237 OA
BRANCH  14  16
ATOM     16  C   UNL d   1     -55.049-100.184 -44.208  0.00  0.00     0.085 C 
ATOM     17  C   UNL d   1     -54.766-100.512 -44.919  0.00  0.00     0.021 C 
ENDBRANCH  14  16
BRANCH  14  18
ATOM     18  C   UNL d   1     -55.136 -98.789 -43.957  0.00  0.00     0.085 C 
ATOM     19  C   UNL d   1     -54.728 -98.783 -43.232  0.00  0.00     0.021 C 
ENDBRANCH  14  18
ENDBRANCH  12  13
ENDBRANCH   1  12
TORSDOF 4
ENDMDL
