MODEL 1
REMARK VINA RESULT:      -8.3      0.000      0.000
REMARK  6 active torsions:
REMARK  status: ('A' for Active; 'I' for Inactive)
REMARK    1  A    between atoms: N_3  and  C_1 
REMARK       I    between atoms: C_4  and  N_3 
REMARK       I    between atoms: N_10  and  C_4 
REMARK    2  A    between atoms: C_7  and  C_5 
REMARK    3  A    between atoms: C_9  and  C_7 
REMARK       I    between atoms: N_12  and  C_9 
REMARK    4  A    between atoms: C_14  and  N_10 
REMARK    5  A    between atoms: C_19  and  N_12 
REMARK    6  A    between atoms: C_17  and  C_19 
ROOT
ATOM      1  C   UNL d   1      52.823  33.489  53.358  0.00  0.00     0.199 A 
ATOM      2  N   UNL d   1      52.271  33.630  52.758  0.00  0.00    -0.220 NA
ATOM      3  C   UNL d   1      51.828  34.287  52.974  0.00  0.00     0.095 A 
ATOM      4  S   UNL d   1      52.725  34.049  53.936  0.00  0.00    -0.046 SA
ATOM      5  C   UNL d   1      52.111  34.548  53.707  0.00  0.00     0.058 A 
ENDROOT
BRANCH   1   6
ATOM      6  N   UNL d   1      53.390  32.874  53.372  0.00  0.00    -0.166 NA
ATOM      7  C   UNL d   1      53.141  32.080  53.439  0.00  0.00     0.370 C 
ATOM      8  N   UNL d   1      53.694  31.464  53.454  0.00  0.00    -0.191 NA
ATOM      9  O   UNL d   1      52.331  31.900  53.492  0.00  0.00    -0.242 OA
BRANCH   8  10
ATOM     10  C   UNL d   1      53.456  30.683  53.520  0.00  0.00     0.087 A 
ATOM     11  C   UNL d   1      53.541  30.274  54.230  0.00  0.00     0.031 A 
ATOM     12  C   UNL d   1      53.307  29.499  54.298  0.00  0.00     0.059 A 
ATOM     13 CL   UNL d   1      53.396  29.093  55.015  0.00  0.00    -0.082 Cl
ATOM     14  C   UNL d   1      52.973  29.111  53.639  0.00  0.00     0.011 A 
ATOM     15  C   UNL d   1      52.888  29.520  52.929  0.00  0.00     0.002 A 
ATOM     16  C   UNL d   1      53.129  30.307  52.868  0.00  0.00     0.019 A 
ENDBRANCH   8  10
ENDBRANCH   1   6
BRANCH   3  17
ATOM     17  C   UNL d   1      51.211  34.626  52.534  0.00  0.00     0.082 C 
BRANCH  17  18
ATOM     18  C   UNL d   1      50.410  34.473  52.732  0.00  0.00     0.281 C 
ATOM     19  N   UNL d   1      49.850  35.079  52.726  0.00  0.00    -0.205 NA
ATOM     20  O   UNL d   1      50.195  33.702  52.933  0.00  0.00    -0.265 OA
BRANCH  19  21
ATOM     21  C   UNL d   1      49.068  34.920  52.922  0.00  0.00     0.121 C 
BRANCH  21  22
ATOM     22  C   UNL d   1      48.512  35.506  52.916  0.00  0.00     0.101 A 
ATOM     23  N   UNL d   1      48.419  36.005  53.582  0.00  0.00    -0.242 NA
ATOM     24  C   UNL d   1      47.849  36.600  53.567  0.00  0.00     0.099 A 
ATOM     25  C   UNL d   1      47.371  36.709  52.907  0.00  0.00     0.021 A 
ATOM     26  C   UNL d   1      47.461  36.216  52.249  0.00  0.00     0.003 A 
ATOM     27  C   UNL d   1      48.036  35.616  52.264  0.00  0.00     0.021 A 
ENDBRANCH  21  22
ENDBRANCH  19  21
ENDBRANCH  17  18
ENDBRANCH   3  17
TORSDOF 6
ENDMDL
MODEL 2
REMARK VINA RESULT:      -7.9      1.673      2.649
REMARK  6 active torsions:
REMARK  status: ('A' for Active; 'I' for Inactive)
REMARK    1  A    between atoms: N_3  and  C_1 
REMARK       I    between atoms: C_4  and  N_3 
REMARK       I    between atoms: N_10  and  C_4 
REMARK    2  A    between atoms: C_7  and  C_5 
REMARK    3  A    between atoms: C_9  and  C_7 
REMARK       I    between atoms: N_12  and  C_9 
REMARK    4  A    between atoms: C_14  and  N_10 
REMARK    5  A    between atoms: C_19  and  N_12 
REMARK    6  A    between atoms: C_17  and  C_19 
ROOT
ATOM      1  C   UNL d   1      50.887  34.478  52.629  0.00  0.00     0.199 A 
ATOM      2  N   UNL d   1      50.368  34.805  53.183  0.00  0.00    -0.220 NA
ATOM      3  C   UNL d   1      49.603  34.694  52.905  0.00  0.00     0.095 A 
ATOM      4  S   UNL d   1      50.453  34.170  52.018  0.00  0.00    -0.046 SA
ATOM      5  C   UNL d   1      49.656  34.299  52.180  0.00  0.00     0.058 A 
ENDROOT
BRANCH   1   6
ATOM      6  N   UNL d   1      51.722  34.465  52.684  0.00  0.00    -0.166 NA
ATOM      7  C   UNL d   1      52.101  33.863  53.123  0.00  0.00     0.370 C 
ATOM      8  N   UNL d   1      52.925  33.841  53.184  0.00  0.00    -0.191 NA
ATOM      9  O   UNL d   1      51.649  33.279  53.505  0.00  0.00    -0.242 OA
BRANCH   8  10
ATOM     10  C   UNL d   1      53.303  33.254  53.613  0.00  0.00     0.087 A 
ATOM     11  C   UNL d   1      53.660  33.422  54.336  0.00  0.00     0.031 A 
ATOM     12  C   UNL d   1      54.035  32.843  54.764  0.00  0.00     0.059 A 
ATOM     13 CL   UNL d   1      54.392  33.020  55.491  0.00  0.00    -0.082 Cl
ATOM     14  C   UNL d   1      54.059  32.063  54.466  0.00  0.00     0.011 A 
ATOM     15  C   UNL d   1      53.702  31.895  53.743  0.00  0.00     0.002 A 
ATOM     16  C   UNL d   1      53.323  32.490  53.315  0.00  0.00     0.019 A 
ENDBRANCH   8  10
ENDBRANCH   1   6
BRANCH   3  17
ATOM     17  C   UNL d   1      48.905  34.935  53.285  0.00  0.00     0.082 C 
BRANCH  17  18
ATOM     18  C   UNL d   1      48.519  35.647  53.061  0.00  0.00     0.281 C 
ATOM     19  N   UNL d   1      47.775  35.630  52.704  0.00  0.00    -0.205 NA
ATOM     20  O   UNL d   1      48.901  36.364  53.207  0.00  0.00    -0.265 OA
BRANCH  19  21
ATOM     21  C   UNL d   1      47.406  36.331  52.489  0.00  0.00     0.121 C 
BRANCH  21  22
ATOM     22  C   UNL d   1      46.650  36.330  52.203  0.00  0.00     0.101 A 
ATOM     23  N   UNL d   1      46.473  35.944  51.481  0.00  0.00    -0.242 NA
ATOM     24  C   UNL d   1      45.700  35.949  51.198  0.00  0.00     0.099 A 
ATOM     25  C   UNL d   1      45.100  36.328  51.614  0.00  0.00     0.021 A 
ATOM     26  C   UNL d   1      45.274  36.709  52.327  0.00  0.00     0.003 A 
ATOM     27  C   UNL d   1      46.054  36.705  52.613  0.00  0.00     0.021 A 
ENDBRANCH  21  22
ENDBRANCH  19  21
ENDBRANCH  17  18
ENDBRANCH   3  17
TORSDOF 6
ENDMDL
MODEL 3
REMARK VINA RESULT:      -7.9      2.551      6.358
REMARK  6 active torsions:
REMARK  status: ('A' for Active; 'I' for Inactive)
REMARK    1  A    between atoms: N_3  and  C_1 
REMARK       I    between atoms: C_4  and  N_3 
REMARK       I    between atoms: N_10  and  C_4 
REMARK    2  A    between atoms: C_7  and  C_5 
REMARK    3  A    between atoms: C_9  and  C_7 
REMARK       I    between atoms: N_12  and  C_9 
REMARK    4  A    between atoms: C_14  and  N_10 
REMARK    5  A    between atoms: C_19  and  N_12 
REMARK    6  A    between atoms: C_17  and  C_19 
ROOT
ATOM      1  C   UNL d   1      50.428  34.537  52.956  0.00  0.00     0.199 A 
ATOM      2  N   UNL d   1      50.668  33.880  53.396  0.00  0.00    -0.220 NA
ATOM      3  C   UNL d   1      51.075  33.375  52.892  0.00  0.00     0.095 A 
ATOM      4  S   UNL d   1      50.681  34.443  52.192  0.00  0.00    -0.046 SA
ATOM      5  C   UNL d   1      51.083  33.726  52.142  0.00  0.00     0.058 A 
ENDROOT
BRANCH   1   6
ATOM      6  N   UNL d   1      49.996  35.193  53.244  0.00  0.00    -0.166 NA
ATOM      7  C   UNL d   1      49.192  35.285  53.037  0.00  0.00     0.370 C 
ATOM      8  N   UNL d   1      48.756  35.930  53.317  0.00  0.00    -0.191 NA
ATOM      9  O   UNL d   1      48.822  34.727  52.545  0.00  0.00    -0.242 OA
BRANCH   8  10
ATOM     10  C   UNL d   1      47.967  36.027  53.117  0.00  0.00     0.087 A 
ATOM     11  C   UNL d   1      47.372  35.897  53.672  0.00  0.00     0.031 A 
ATOM     12  C   UNL d   1      46.589  35.992  53.478  0.00  0.00     0.059 A 
ATOM     13 CL   UNL d   1      45.996  35.860  54.041  0.00  0.00    -0.082 Cl
ATOM     14  C   UNL d   1      46.384  36.225  52.703  0.00  0.00     0.011 A 
ATOM     15  C   UNL d   1      46.979  36.355  52.148  0.00  0.00     0.002 A 
ATOM     16  C   UNL d   1      47.772  36.256  52.354  0.00  0.00     0.019 A 
ENDBRANCH   8  10
ENDBRANCH   1   6
BRANCH   3  17
ATOM     17  C   UNL d   1      51.415  32.647  53.099  0.00  0.00     0.082 C 
BRANCH  17  18
ATOM     18  C   UNL d   1      52.246  32.534  53.057  0.00  0.00     0.281 C 
ATOM     19  N   UNL d   1      52.729  32.701  53.705  0.00  0.00    -0.205 NA
ATOM     20  O   UNL d   1      52.569  32.252  52.351  0.00  0.00    -0.265 OA
BRANCH  19  21
ATOM     21  C   UNL d   1      53.541  32.588  53.654  0.00  0.00     0.121 C 
BRANCH  21  22
ATOM     22  C   UNL d   1      54.039  32.901  54.207  0.00  0.00     0.101 A 
ATOM     23  N   UNL d   1      53.872  32.811  55.024  0.00  0.00    -0.242 NA
ATOM     24  C   UNL d   1      54.386  33.134  55.581  0.00  0.00     0.099 A 
ATOM     25  C   UNL d   1      55.060  33.544  55.345  0.00  0.00     0.021 A 
ATOM     26  C   UNL d   1      55.225  33.633  54.540  0.00  0.00     0.003 A 
ATOM     27  C   UNL d   1      54.707  33.307  53.978  0.00  0.00     0.021 A 
ENDBRANCH  21  22
ENDBRANCH  19  21
ENDBRANCH  17  18
ENDBRANCH   3  17
TORSDOF 6
ENDMDL
MODEL 4
REMARK VINA RESULT:      -7.6      1.779      2.442
REMARK  6 active torsions:
REMARK  status: ('A' for Active; 'I' for Inactive)
REMARK    1  A    between atoms: N_3  and  C_1 
REMARK       I    between atoms: C_4  and  N_3 
REMARK       I    between atoms: N_10  and  C_4 
REMARK    2  A    between atoms: C_7  and  C_5 
REMARK    3  A    between atoms: C_9  and  C_7 
REMARK       I    between atoms: N_12  and  C_9 
REMARK    4  A    between atoms: C_14  and  N_10 
REMARK    5  A    between atoms: C_19  and  N_12 
REMARK    6  A    between atoms: C_17  and  C_19 
ROOT
ATOM      1  C   UNL d   1      54.432  33.048  54.355  0.00  0.00     0.199 A 
ATOM      2  N   UNL d   1      53.760  33.527  54.325  0.00  0.00    -0.220 NA
ATOM      3  C   UNL d   1      53.867  34.141  54.860  0.00  0.00     0.095 A 
ATOM      4  S   UNL d   1      54.948  33.358  54.897  0.00  0.00    -0.046 SA
ATOM      5  C   UNL d   1      54.606  34.036  55.216  0.00  0.00     0.058 A 
ENDROOT
BRANCH   1   6
ATOM      6  N   UNL d   1      54.565  32.356  53.902  0.00  0.00    -0.166 NA
ATOM      7  C   UNL d   1      54.038  31.711  53.964  0.00  0.00     0.370 C 
ATOM      8  N   UNL d   1      54.160  31.023  53.521  0.00  0.00    -0.191 NA
ATOM      9  O   UNL d   1      53.383  31.755  54.473  0.00  0.00    -0.242 OA
BRANCH   8  10
ATOM     10  C   UNL d   1      53.647  30.386  53.576  0.00  0.00     0.087 A 
ATOM     11  C   UNL d   1      53.770  29.792  54.133  0.00  0.00     0.031 A 
ATOM     12  C   UNL d   1      53.263  29.160  54.191  0.00  0.00     0.059 A 
ATOM     13 CL   UNL d   1      53.393  28.566  54.754  0.00  0.00    -0.082 Cl
ATOM     14  C   UNL d   1      52.607  29.112  53.678  0.00  0.00     0.011 A 
ATOM     15  C   UNL d   1      52.484  29.706  53.121  0.00  0.00     0.002 A 
ATOM     16  C   UNL d   1      53.004  30.345  53.069  0.00  0.00     0.019 A 
ENDBRANCH   8  10
ENDBRANCH   1   6
BRANCH   3  17
ATOM     17  C   UNL d   1      53.329  34.755  55.014  0.00  0.00     0.082 C 
BRANCH  17  18
ATOM     18  C   UNL d   1      52.924  35.137  54.385  0.00  0.00     0.281 C 
ATOM     19  N   UNL d   1      52.285  34.773  54.011  0.00  0.00    -0.205 NA
ATOM     20  O   UNL d   1      53.180  35.886  54.150  0.00  0.00    -0.265 OA
BRANCH  19  21
ATOM     21  C   UNL d   1      51.895  35.155  53.397  0.00  0.00     0.121 C 
BRANCH  21  22
ATOM     22  C   UNL d   1      51.329  34.773  52.965  0.00  0.00     0.101 A 
ATOM     23  N   UNL d   1      50.536  34.753  53.234  0.00  0.00    -0.242 NA
ATOM     24  C   UNL d   1      49.965  34.362  52.786  0.00  0.00     0.099 A 
ATOM     25  C   UNL d   1      50.165  33.991  52.079  0.00  0.00     0.021 A 
ATOM     26  C   UNL d   1      50.948  34.010  51.814  0.00  0.00     0.003 A 
ATOM     27  C   UNL d   1      51.523  34.404  52.265  0.00  0.00     0.021 A 
ENDBRANCH  21  22
ENDBRANCH  19  21
ENDBRANCH  17  18
ENDBRANCH   3  17
TORSDOF 6
ENDMDL
MODEL 5
REMARK VINA RESULT:      -7.6      2.023      6.312
REMARK  6 active torsions:
REMARK  status: ('A' for Active; 'I' for Inactive)
REMARK    1  A    between atoms: N_3  and  C_1 
REMARK       I    between atoms: C_4  and  N_3 
REMARK       I    between atoms: N_10  and  C_4 
REMARK    2  A    between atoms: C_7  and  C_5 
REMARK    3  A    between atoms: C_9  and  C_7 
REMARK       I    between atoms: N_12  and  C_9 
REMARK    4  A    between atoms: C_14  and  N_10 
REMARK    5  A    between atoms: C_19  and  N_12 
REMARK    6  A    between atoms: C_17  and  C_19 
ROOT
ATOM      1  C   UNL d   1      50.868  34.113  52.659  0.00  0.00     0.199 A 
ATOM      2  N   UNL d   1      51.201  33.735  53.314  0.00  0.00    -0.220 NA
ATOM      3  C   UNL d   1      52.012  33.866  53.293  0.00  0.00     0.095 A 
ATOM      4  S   UNL d   1      51.460  34.471  52.237  0.00  0.00    -0.046 SA
ATOM      5  C   UNL d   1      52.173  34.324  52.623  0.00  0.00     0.058 A 
ENDROOT
BRANCH   1   6
ATOM      6  N   UNL d   1      50.055  34.126  52.458  0.00  0.00    -0.166 NA
ATOM      7  C   UNL d   1      49.581  34.775  52.685  0.00  0.00     0.370 C 
ATOM      8  N   UNL d   1      48.777  34.798  52.492  0.00  0.00    -0.191 NA
ATOM      9  O   UNL d   1      49.915  35.406  53.110  0.00  0.00    -0.242 OA
BRANCH   8  10
ATOM     10  C   UNL d   1      48.306  35.431  52.712  0.00  0.00     0.087 A 
ATOM     11  C   UNL d   1      48.108  35.556  53.501  0.00  0.00     0.031 A 
ATOM     12  C   UNL d   1      47.641  36.183  53.723  0.00  0.00     0.059 A 
ATOM     13 CL   UNL d   1      47.446  36.302  54.519  0.00  0.00    -0.082 Cl
ATOM     14  C   UNL d   1      47.357  36.709  53.141  0.00  0.00     0.011 A 
ATOM     15  C   UNL d   1      47.556  36.585  52.351  0.00  0.00     0.002 A 
ATOM     16  C   UNL d   1      48.030  35.945  52.135  0.00  0.00     0.019 A 
ENDBRANCH   8  10
ENDBRANCH   1   6
BRANCH   3  17
ATOM     17  C   UNL d   1      52.566  33.588  53.845  0.00  0.00     0.082 C 
BRANCH  17  18
ATOM     18  C   UNL d   1      53.128  33.003  53.630  0.00  0.00     0.281 C 
ATOM     19  N   UNL d   1      52.982  32.203  53.774  0.00  0.00    -0.205 NA
ATOM     20  O   UNL d   1      53.831  33.245  53.271  0.00  0.00    -0.265 OA
BRANCH  19  21
ATOM     21  C   UNL d   1      53.538  31.638  53.560  0.00  0.00     0.121 C 
BRANCH  21  22
ATOM     22  C   UNL d   1      53.371  30.849  53.620  0.00  0.00     0.101 A 
ATOM     23  N   UNL d   1      53.477  30.450  54.348  0.00  0.00    -0.242 NA
ATOM     24  C   UNL d   1      53.304  29.646  54.399  0.00  0.00     0.099 A 
ATOM     25  C   UNL d   1      53.029  29.232  53.743  0.00  0.00     0.021 A 
ATOM     26  C   UNL d   1      52.924  29.625  53.024  0.00  0.00     0.003 A 
ATOM     27  C   UNL d   1      53.098  30.436  52.973  0.00  0.00     0.021 A 
ENDBRANCH  21  22
ENDBRANCH  19  21
ENDBRANCH  17  18
ENDBRANCH   3  17
TORSDOF 6
ENDMDL
MODEL 6
REMARK VINA RESULT:      -7.4      2.839      6.757
REMARK  6 active torsions:
REMARK  status: ('A' for Active; 'I' for Inactive)
REMARK    1  A    between atoms: N_3  and  C_1 
REMARK       I    between atoms: C_4  and  N_3 
REMARK       I    between atoms: N_10  and  C_4 
REMARK    2  A    between atoms: C_7  and  C_5 
REMARK    3  A    between atoms: C_9  and  C_7 
REMARK       I    between atoms: N_12  and  C_9 
REMARK    4  A    between atoms: C_14  and  N_10 
REMARK    5  A    between atoms: C_19  and  N_12 
REMARK    6  A    between atoms: C_17  and  C_19 
ROOT
ATOM      1  C   UNL d   1      49.200  35.318  52.887  0.00  0.00     0.199 A 
ATOM      2  N   UNL d   1      49.759  34.863  53.292  0.00  0.00    -0.220 NA
ATOM      3  C   UNL d   1      50.046  34.297  52.769  0.00  0.00     0.095 A 
ATOM      4  S   UNL d   1      49.140  35.041  52.128  0.00  0.00    -0.046 SA
ATOM      5  C   UNL d   1      49.661  34.408  52.046  0.00  0.00     0.058 A 
ENDROOT
BRANCH   1   6
ATOM      6  N   UNL d   1      48.765  35.960  53.203  0.00  0.00    -0.166 NA
ATOM      7  C   UNL d   1      47.933  35.911  53.260  0.00  0.00     0.370 C 
ATOM      8  N   UNL d   1      47.494  36.539  53.570  0.00  0.00    -0.191 NA
ATOM      9  O   UNL d   1      47.538  35.226  53.004  0.00  0.00    -0.242 OA
BRANCH   8  10
ATOM     10  C   UNL d   1      46.677  36.497  53.629  0.00  0.00     0.087 A 
ATOM     11  C   UNL d   1      46.316  36.247  54.326  0.00  0.00     0.031 A 
ATOM     12  C   UNL d   1      45.507  36.204  54.388  0.00  0.00     0.059 A 
ATOM     13 CL   UNL d   1      45.151  35.952  55.092  0.00  0.00    -0.082 Cl
ATOM     14  C   UNL d   1      45.034  36.417  53.734  0.00  0.00     0.011 A 
ATOM     15  C   UNL d   1      45.395  36.667  53.037  0.00  0.00     0.002 A 
ATOM     16  C   UNL d   1      46.218  36.708  52.983  0.00  0.00     0.019 A 
ENDBRANCH   8  10
ENDBRANCH   1   6
BRANCH   3  17
ATOM     17  C   UNL d   1      50.618  33.720  52.941  0.00  0.00     0.082 C 
BRANCH  17  18
ATOM     18  C   UNL d   1      51.436  33.898  52.884  0.00  0.00     0.281 C 
ATOM     19  N   UNL d   1      51.964  33.651  53.469  0.00  0.00    -0.205 NA
ATOM     20  O   UNL d   1      51.701  34.326  52.230  0.00  0.00    -0.265 OA
BRANCH  19  21
ATOM     21  C   UNL d   1      52.763  33.830  53.404  0.00  0.00     0.121 C 
BRANCH  21  22
ATOM     22  C   UNL d   1      53.289  33.582  53.965  0.00  0.00     0.101 A 
ATOM     23  N   UNL d   1      53.529  34.102  54.577  0.00  0.00    -0.242 NA
ATOM     24  C   UNL d   1      54.066  33.840  55.144  0.00  0.00     0.099 A 
ATOM     25  C   UNL d   1      54.370  33.075  55.116  0.00  0.00     0.021 A 
ATOM     26  C   UNL d   1      54.134  32.562  54.513  0.00  0.00     0.003 A 
ATOM     27  C   UNL d   1      53.592  32.826  53.941  0.00  0.00     0.021 A 
ENDBRANCH  21  22
ENDBRANCH  19  21
ENDBRANCH  17  18
ENDBRANCH   3  17
TORSDOF 6
ENDMDL
MODEL 7
REMARK VINA RESULT:      -5.8      9.795     11.427
REMARK  6 active torsions:
REMARK  status: ('A' for Active; 'I' for Inactive)
REMARK    1  A    between atoms: N_3  and  C_1 
REMARK       I    between atoms: C_4  and  N_3 
REMARK       I    between atoms: N_10  and  C_4 
REMARK    2  A    between atoms: C_7  and  C_5 
REMARK    3  A    between atoms: C_9  and  C_7 
REMARK       I    between atoms: N_12  and  C_9 
REMARK    4  A    between atoms: C_14  and  N_10 
REMARK    5  A    between atoms: C_19  and  N_12 
REMARK    6  A    between atoms: C_17  and  C_19 
ROOT
ATOM      1  C   UNL d   1      45.208  25.877  56.490  0.00  0.00     0.199 A 
ATOM      2  N   UNL d   1      45.009  25.618  55.730  0.00  0.00    -0.220 NA
ATOM      3  C   UNL d   1      44.618  24.898  55.806  0.00  0.00     0.095 A 
ATOM      4  S   UNL d   1      44.947  25.330  57.027  0.00  0.00    -0.046 SA
ATOM      5  C   UNL d   1      44.580  24.720  56.613  0.00  0.00     0.058 A 
ENDROOT
BRANCH   1   6
ATOM      6  N   UNL d   1      45.612  26.585  56.679  0.00  0.00    -0.166 NA
ATOM      7  C   UNL d   1      45.181  27.259  56.919  0.00  0.00     0.370 C 
ATOM      8  N   UNL d   1      45.571  27.964  57.108  0.00  0.00    -0.191 NA
ATOM      9  O   UNL d   1      44.352  27.226  56.970  0.00  0.00    -0.242 OA
BRANCH   8  10
ATOM     10  C   UNL d   1      45.154  28.628  57.344  0.00  0.00     0.087 A 
ATOM     11  C   UNL d   1      44.982  29.231  56.810  0.00  0.00     0.031 A 
ATOM     12  C   UNL d   1      44.569  29.892  57.040  0.00  0.00     0.059 A 
ATOM     13 CL   UNL d   1      44.400  30.494  56.497  0.00  0.00    -0.082 Cl
ATOM     14  C   UNL d   1      44.314  29.960  57.832  0.00  0.00     0.011 A 
ATOM     15  C   UNL d   1      44.486  29.357  58.367  0.00  0.00     0.002 A 
ATOM     16  C   UNL d   1      44.906  28.690  58.124  0.00  0.00     0.019 A 
ENDBRANCH   8  10
ENDBRANCH   1   6
BRANCH   3  17
ATOM     17  C   UNL d   1      44.318  24.438  55.184  0.00  0.00     0.082 C 
BRANCH  17  18
ATOM     18  C   UNL d   1      44.824  23.935  54.741  0.00  0.00     0.281 C 
ATOM     19  N   UNL d   1      44.725  23.848  53.926  0.00  0.00    -0.205 NA
ATOM     20  O   UNL d   1      45.422  23.528  55.139  0.00  0.00    -0.265 OA
BRANCH  19  21
ATOM     21  C   UNL d   1      45.224  23.353  53.501  0.00  0.00     0.121 C 
BRANCH  21  22
ATOM     22  C   UNL d   1      45.179  23.311  52.695  0.00  0.00     0.101 A 
ATOM     23  N   UNL d   1      44.590  23.742  52.284  0.00  0.00    -0.242 NA
ATOM     24  C   UNL d   1      44.551  23.693  51.462  0.00  0.00     0.099 A 
ATOM     25  C   UNL d   1      45.083  23.226  51.042  0.00  0.00     0.021 A 
ATOM     26  C   UNL d   1      45.664  22.801  51.448  0.00  0.00     0.003 A 
ATOM     27  C   UNL d   1      45.704  22.850  52.277  0.00  0.00     0.021 A 
ENDBRANCH  21  22
ENDBRANCH  19  21
ENDBRANCH  17  18
ENDBRANCH   3  17
TORSDOF 6
ENDMDL
MODEL 8
REMARK VINA RESULT:      -5.4      9.764     11.568
REMARK  6 active torsions:
REMARK  status: ('A' for Active; 'I' for Inactive)
REMARK    1  A    between atoms: N_3  and  C_1 
REMARK       I    between atoms: C_4  and  N_3 
REMARK       I    between atoms: N_10  and  C_4 
REMARK    2  A    between atoms: C_7  and  C_5 
REMARK    3  A    between atoms: C_9  and  C_7 
REMARK       I    between atoms: N_12  and  C_9 
REMARK    4  A    between atoms: C_14  and  N_10 
REMARK    5  A    between atoms: C_19  and  N_12 
REMARK    6  A    between atoms: C_17  and  C_19 
ROOT
ATOM      1  C   UNL d   1      45.286  27.155  57.648  0.00  0.00     0.199 A 
ATOM      2  N   UNL d   1      45.243  26.852  56.880  0.00  0.00    -0.220 NA
ATOM      3  C   UNL d   1      44.806  26.157  56.910  0.00  0.00     0.095 A 
ATOM      4  S   UNL d   1      44.884  26.658  58.146  0.00  0.00    -0.046 SA
ATOM      5  C   UNL d   1      44.583  26.037  57.697  0.00  0.00     0.058 A 
ENDROOT
BRANCH   1   6
ATOM      6  N   UNL d   1      45.679  27.858  57.880  0.00  0.00    -0.166 NA
ATOM      7  C   UNL d   1      45.234  28.531  58.094  0.00  0.00     0.370 C 
ATOM      8  N   UNL d   1      45.611  29.230  58.324  0.00  0.00    -0.191 NA
ATOM      9  O   UNL d   1      44.403  28.505  58.077  0.00  0.00    -0.242 OA
BRANCH   8  10
ATOM     10  C   UNL d   1      45.181  29.895  58.535  0.00  0.00     0.087 A 
ATOM     11  C   UNL d   1      44.995  30.472  57.978  0.00  0.00     0.031 A 
ATOM     12  C   UNL d   1      44.569  31.132  58.183  0.00  0.00     0.059 A 
ATOM     13 CL   UNL d   1      44.385  31.709  57.618  0.00  0.00    -0.082 Cl
ATOM     14  C   UNL d   1      44.315  31.227  58.973  0.00  0.00     0.011 A 
ATOM     15  C   UNL d   1      44.501  30.650  59.530  0.00  0.00     0.002 A 
ATOM     16  C   UNL d   1      44.935  29.982  59.313  0.00  0.00     0.019 A 
ENDBRANCH   8  10
ENDBRANCH   1   6
BRANCH   3  17
ATOM     17  C   UNL d   1      44.623  25.667  56.265  0.00  0.00     0.082 C 
BRANCH  17  18
ATOM     18  C   UNL d   1      44.658  24.831  56.338  0.00  0.00     0.281 C 
ATOM     19  N   UNL d   1      44.884  24.361  55.699  0.00  0.00    -0.205 NA
ATOM     20  O   UNL d   1      44.461  24.492  57.064  0.00  0.00    -0.265 OA
BRANCH  19  21
ATOM     21  C   UNL d   1      44.915  23.544  55.780  0.00  0.00     0.121 C 
BRANCH  21  22
ATOM     22  C   UNL d   1      45.088  23.071  55.148  0.00  0.00     0.101 A 
ATOM     23  N   UNL d   1      44.720  23.205  54.408  0.00  0.00    -0.242 NA
ATOM     24  C   UNL d   1      44.903  22.717  53.769  0.00  0.00     0.099 A 
ATOM     25  C   UNL d   1      45.443  22.102  53.850  0.00  0.00     0.021 A 
ATOM     26  C   UNL d   1      45.807  21.969  54.580  0.00  0.00     0.003 A 
ATOM     27  C   UNL d   1      45.622  22.461  55.224  0.00  0.00     0.021 A 
ENDBRANCH  21  22
ENDBRANCH  19  21
ENDBRANCH  17  18
ENDBRANCH   3  17
TORSDOF 6
ENDMDL
