MODEL 1
REMARK VINA RESULT:      -8.3      0.000      0.000
REMARK  2 active torsions:
REMARK  status: ('A' for Active; 'I' for Inactive)
REMARK    1  A    between atoms: C_3  and  C_1 
REMARK       I    between atoms: N_6  and  C_3 
REMARK    2  A    between atoms: C_12  and  N_6 
ROOT
ATOM      1  C   UNL d   1      52.976  34.260  54.300  0.00  0.00     0.008 A 
ATOM      2  S   UNL d   1      52.843  35.473  53.807  0.00  0.00    -0.086 SA
ATOM      3  C   UNL d   1      52.728  34.688  53.648  0.00  0.00     0.030 A 
ATOM      4  C   UNL d   1      53.155  35.539  54.543  0.00  0.00     0.035 A 
ATOM      5  C   UNL d   1      52.621  33.037  53.633  0.00  0.00     0.085 A 
ATOM      6  C   UNL d   1      52.921  33.435  54.290  0.00  0.00     0.020 A 
ATOM      7  C   UNL d   1      53.243  34.791  54.863  0.00  0.00     0.007 A 
ATOM      8  C   UNL d   1      52.420  34.290  52.971  0.00  0.00     0.008 A 
ATOM      9  C   UNL d   1      52.371  33.465  52.973  0.00  0.00     0.020 A 
ENDROOT
BRANCH   5  10
ATOM     10  N   UNL d   1      52.572  32.210  53.635  0.00  0.00    -0.208 NA
ATOM     11  C   UNL d   1      53.224  31.757  53.412  0.00  0.00     0.285 C 
ATOM     12  O   UNL d   1      53.921  32.128  53.188  0.00  0.00    -0.265 OA
BRANCH  11  13
ATOM     13  C   UNL d   1      53.174  30.937  53.414  0.00  0.00     0.088 A 
ATOM     14  S   UNL d   1      53.433  30.426  54.034  0.00  0.00    -0.071 SA
ATOM     15  C   UNL d   1      53.280  29.646  53.807  0.00  0.00     0.087 A 
ATOM     16 CL   UNL d   1      53.434  29.010  54.221  0.00  0.00    -0.075 Cl
ATOM     17  C   UNL d   1      52.915  29.677  53.022  0.00  0.00     0.019 A 
ATOM     18  C   UNL d   1      52.855  30.458  52.793  0.00  0.00     0.013 A 
ENDBRANCH  11  13
ENDBRANCH   5  10
TORSDOF 2
ENDMDL
MODEL 2
REMARK VINA RESULT:      -8.0      2.625      3.754
REMARK  2 active torsions:
REMARK  status: ('A' for Active; 'I' for Inactive)
REMARK    1  A    between atoms: C_3  and  C_1 
REMARK       I    between atoms: N_6  and  C_3 
REMARK    2  A    between atoms: C_12  and  N_6 
ROOT
ATOM      1  C   UNL d   1      53.638  33.600  54.506  0.00  0.00     0.008 A 
ATOM      2  S   UNL d   1      54.803  32.995  54.423  0.00  0.00    -0.086 SA
ATOM      3  C   UNL d   1      54.070  33.047  54.086  0.00  0.00     0.030 A 
ATOM      4  C   UNL d   1      54.834  33.503  55.042  0.00  0.00     0.035 A 
ATOM      5  C   UNL d   1      52.513  33.384  53.636  0.00  0.00     0.085 A 
ATOM      6  C   UNL d   1      52.860  33.767  54.280  0.00  0.00     0.020 A 
ATOM      7  C   UNL d   1      54.114  33.888  55.106  0.00  0.00     0.007 A 
ATOM      8  C   UNL d   1      53.724  32.650  53.427  0.00  0.00     0.008 A 
ATOM      9  C   UNL d   1      52.945  32.825  53.210  0.00  0.00     0.020 A 
ENDROOT
BRANCH   5  10
ATOM     10  N   UNL d   1      51.733  33.559  53.420  0.00  0.00    -0.208 NA
ATOM     11  C   UNL d   1      51.583  34.137  52.850  0.00  0.00     0.285 C 
ATOM     12  O   UNL d   1      52.209  34.537  52.500  0.00  0.00    -0.265 OA
BRANCH  11  13
ATOM     13  C   UNL d   1      50.810  34.311  52.635  0.00  0.00     0.088 A 
ATOM     14  S   UNL d   1      50.480  34.229  51.863  0.00  0.00    -0.071 SA
ATOM     15  C   UNL d   1      49.688  34.465  51.894  0.00  0.00     0.087 A 
ATOM     16 CL   UNL d   1      49.189  34.474  51.302  0.00  0.00    -0.075 Cl
ATOM     17  C   UNL d   1      49.525  34.699  52.712  0.00  0.00     0.019 A 
ATOM     18  C   UNL d   1      50.206  34.603  53.151  0.00  0.00     0.013 A 
ENDBRANCH  11  13
ENDBRANCH   5  10
TORSDOF 2
ENDMDL
MODEL 3
REMARK VINA RESULT:      -8.0      1.821      4.199
REMARK  2 active torsions:
REMARK  status: ('A' for Active; 'I' for Inactive)
REMARK    1  A    between atoms: C_3  and  C_1 
REMARK       I    between atoms: N_6  and  C_3 
REMARK    2  A    between atoms: C_12  and  N_6 
ROOT
ATOM      1  C   UNL d   1      53.345  30.563  53.956  0.00  0.00     0.008 A 
ATOM      2  S   UNL d   1      52.959  29.431  53.405  0.00  0.00    -0.086 SA
ATOM      3  C   UNL d   1      52.979  30.234  53.302  0.00  0.00     0.030 A 
ATOM      4  C   UNL d   1      53.303  29.258  54.107  0.00  0.00     0.035 A 
ATOM      5  C   UNL d   1      53.176  31.875  53.391  0.00  0.00     0.085 A 
ATOM      6  C   UNL d   1      53.442  31.383  53.998  0.00  0.00     0.020 A 
ATOM      7  C   UNL d   1      53.549  29.953  54.463  0.00  0.00     0.007 A 
ATOM      8  C   UNL d   1      52.703  30.728  52.676  0.00  0.00     0.008 A 
ATOM      9  C   UNL d   1      52.806  31.547  52.730  0.00  0.00     0.020 A 
ENDROOT
BRANCH   5  10
ATOM     10  N   UNL d   1      53.279  32.694  53.446  0.00  0.00    -0.208 NA
ATOM     11  C   UNL d   1      52.630  33.184  53.588  0.00  0.00     0.285 C 
ATOM     12  O   UNL d   1      51.882  32.855  53.675  0.00  0.00    -0.265 OA
BRANCH  11  13
ATOM     13  C   UNL d   1      52.732  33.996  53.642  0.00  0.00     0.088 A 
ATOM     14  S   UNL d   1      52.945  34.425  54.337  0.00  0.00    -0.071 SA
ATOM     15  C   UNL d   1      52.987  35.227  54.144  0.00  0.00     0.087 A 
ATOM     16 CL   UNL d   1      53.166  35.806  54.627  0.00  0.00    -0.075 Cl
ATOM     17  C   UNL d   1      52.794  35.296  53.303  0.00  0.00     0.019 A 
ATOM     18  C   UNL d   1      52.642  34.551  53.008  0.00  0.00     0.013 A 
ENDBRANCH  11  13
ENDBRANCH   5  10
TORSDOF 2
ENDMDL
MODEL 4
REMARK VINA RESULT:      -7.8      2.359      3.059
REMARK  2 active torsions:
REMARK  status: ('A' for Active; 'I' for Inactive)
REMARK    1  A    between atoms: C_3  and  C_1 
REMARK       I    between atoms: N_6  and  C_3 
REMARK    2  A    between atoms: C_12  and  N_6 
ROOT
ATOM      1  C   UNL d   1      50.479  34.583  52.951  0.00  0.00     0.008 A 
ATOM      2  S   UNL d   1      49.614  34.529  51.961  0.00  0.00    -0.086 SA
ATOM      3  C   UNL d   1      50.384  34.386  52.162  0.00  0.00     0.030 A 
ATOM      4  C   UNL d   1      49.231  34.808  52.607  0.00  0.00     0.035 A 
ATOM      5  C   UNL d   1      51.865  34.206  52.879  0.00  0.00     0.085 A 
ATOM      6  C   UNL d   1      51.220  34.492  53.307  0.00  0.00     0.020 A 
ATOM      7  C   UNL d   1      49.757  34.847  53.232  0.00  0.00     0.007 A 
ATOM      8  C   UNL d   1      51.038  34.094  51.716  0.00  0.00     0.008 A 
ATOM      9  C   UNL d   1      51.774  34.007  52.083  0.00  0.00     0.020 A 
ENDROOT
BRANCH   5  10
ATOM     10  N   UNL d   1      52.602  34.119  53.247  0.00  0.00    -0.208 NA
ATOM     11  C   UNL d   1      52.841  33.379  53.523  0.00  0.00     0.285 C 
ATOM     12  O   UNL d   1      52.346  32.730  53.430  0.00  0.00    -0.265 OA
BRANCH  11  13
ATOM     13  C   UNL d   1      53.571  33.293  53.888  0.00  0.00     0.088 A 
ATOM     14  S   UNL d   1      53.779  33.576  54.655  0.00  0.00    -0.071 SA
ATOM     15  C   UNL d   1      54.565  33.370  54.803  0.00  0.00     0.087 A 
ATOM     16 CL   UNL d   1      54.967  33.527  55.446  0.00  0.00    -0.075 Cl
ATOM     17  C   UNL d   1      54.852  32.947  54.104  0.00  0.00     0.019 A 
ATOM     18  C   UNL d   1      54.248  32.905  53.558  0.00  0.00     0.013 A 
ENDBRANCH  11  13
ENDBRANCH   5  10
TORSDOF 2
ENDMDL
