MODEL 1
REMARK VINA RESULT:      60.2      0.000      0.000
REMARK  3 active torsions:
REMARK  status: ('A' for Active; 'I' for Inactive)
REMARK    1  A    between atoms: S_5  and  C_3 
REMARK    2  A    between atoms: C_12  and  S_5 
REMARK    3  A    between atoms: C_23  and  N_6 
ROOT
ATOM      1  C   UNL d   1      13.887  12.918  -2.623  0.00  0.00     0.155 A 
ATOM      2  C   UNL d   1      14.223  13.642  -2.453  0.00  0.00     0.092 A 
ATOM      3  C   UNL d   1      13.723  14.155  -3.673  0.00  0.00     0.124 A 
ATOM      4  N   UNL d   1      13.970  12.296  -2.095  0.00  0.00    -0.210 NA
ATOM      5  N   UNL d   1      13.473  12.805  -3.306  0.00  0.00    -0.273 N 
ATOM      6  C   UNL d   1      13.383  13.422  -3.844  0.00  0.00     0.181 A 
ATOM      7  C   UNL d   1      14.644  13.753  -1.757  0.00  0.00     0.269 A 
ATOM      8  N   UNL d   1      14.725  13.133  -1.232  0.00  0.00    -0.258 N 
ATOM      9  C   UNL d   1      14.141  14.262  -2.978  0.00  0.00     0.022 A 
ATOM     10  C   UNL d   1      14.386  12.401  -1.404  0.00  0.00     0.152 A 
ATOM     11  N   UNL d   1      12.955  13.305  -4.550  0.00  0.00    -0.128 N 
ATOM     12  C   UNL d   1      15.143  13.235  -0.535  0.00  0.00     0.084 A 
ATOM     13  O   UNL d   1      14.987  14.493  -1.583  0.00  0.00    -0.266 OA
ATOM     14  C   UNL d   1      14.468  11.779  -0.876  0.00  0.00     0.038 A 
ATOM     15  C   UNL d   1      15.223  12.616  -0.014  0.00  0.00     0.019 A 
ATOM     16  C   UNL d   1      14.884  11.884  -0.186  0.00  0.00     0.005 A 
ENDROOT
BRANCH   3  17
ATOM     17  S   UNL d   1      13.633  14.783  -4.217  0.00  0.00     0.213 S 
ATOM     18  O   UNL d   1      12.803  14.762  -4.130  0.00  0.00    -0.217 OA
ATOM     19  O   UNL d   1      14.460  14.807  -4.306  0.00  0.00    -0.217 OA
BRANCH  17  20
ATOM     20  C   UNL d   1      13.560  15.411  -4.763  0.00  0.00     0.088 A 
ATOM     21  C   UNL d   1      12.981  15.383  -5.354  0.00  0.00     0.014 A 
ATOM     22  C   UNL d   1      12.913  16.007  -5.893  0.00  0.00     0.030 A 
ATOM     23  C   UNL d   1      13.419  16.662  -5.847  0.00  0.00     0.140 A 
ATOM     24  C   UNL d   1      14.005  16.685  -5.245  0.00  0.00     0.030 A 
ATOM     25  F   UNL d   1      13.352  17.292  -6.389  0.00  0.00    -0.204 F 
ATOM     26  C   UNL d   1      14.073  16.061  -4.706  0.00  0.00     0.014 A 
ENDBRANCH  17  20
ENDBRANCH   3  17
BRANCH   5  27
ATOM     27  C   UNL d   1      13.128  12.061  -3.480  0.00  0.00     0.083 C 
ATOM     28  C   UNL d   1      13.071  11.815  -4.281  0.00  0.00     0.021 C 
ENDBRANCH   5  27
TORSDOF 3
ENDMDL
MODEL 2
REMARK VINA RESULT:      61.7      2.131      3.797
REMARK  3 active torsions:
REMARK  status: ('A' for Active; 'I' for Inactive)
REMARK    1  A    between atoms: S_5  and  C_3 
REMARK    2  A    between atoms: C_12  and  S_5 
REMARK    3  A    between atoms: C_23  and  N_6 
ROOT
ATOM      1  C   UNL d   1      14.098  13.126  -2.625  0.00  0.00     0.155 A 
ATOM      2  C   UNL d   1      13.979  13.846  -2.989  0.00  0.00     0.092 A 
ATOM      3  C   UNL d   1      14.584  14.498  -1.890  0.00  0.00     0.124 A 
ATOM      4  N   UNL d   1      13.854  12.436  -2.996  0.00  0.00    -0.210 NA
ATOM      5  N   UNL d   1      14.455  13.083  -1.903  0.00  0.00    -0.273 N 
ATOM      6  C   UNL d   1      14.705  13.769  -1.521  0.00  0.00     0.181 A 
ATOM      7  C   UNL d   1      13.615  13.886  -3.725  0.00  0.00     0.269 A 
ATOM      8  N   UNL d   1      13.373  13.198  -4.092  0.00  0.00    -0.258 N 
ATOM      9  C   UNL d   1      14.221  14.534  -2.623  0.00  0.00     0.022 A 
ATOM     10  C   UNL d   1      13.494  12.470  -3.723  0.00  0.00     0.152 A 
ATOM     11  N   UNL d   1      15.073  13.725  -0.775  0.00  0.00    -0.128 N 
ATOM     12  C   UNL d   1      13.009  13.229  -4.826  0.00  0.00     0.084 A 
ATOM     13  O   UNL d   1      13.493  14.622  -4.098  0.00  0.00    -0.266 OA
ATOM     14  C   UNL d   1      13.249  11.780  -4.093  0.00  0.00     0.038 A 
ATOM     15  C   UNL d   1      12.768  12.543  -5.189  0.00  0.00     0.019 A 
ATOM     16  C   UNL d   1      12.889  11.814  -4.821  0.00  0.00     0.005 A 
ENDROOT
BRANCH   3  17
ATOM     17  S   UNL d   1      14.836  15.196  -1.505  0.00  0.00     0.213 S 
ATOM     18  O   UNL d   1      14.538  14.921  -0.776  0.00  0.00    -0.217 OA
ATOM     19  O   UNL d   1      15.135  15.473  -2.232  0.00  0.00    -0.217 OA
BRANCH  17  20
ATOM     20  C   UNL d   1      15.095  15.899  -1.136  0.00  0.00     0.088 A 
ATOM     21  C   UNL d   1      15.000  16.627  -1.517  0.00  0.00     0.014 A 
ATOM     22  C   UNL d   1      15.258  17.321  -1.148  0.00  0.00     0.030 A 
ATOM     23  C   UNL d   1      15.610  17.295  -0.398  0.00  0.00     0.140 A 
ATOM     24  C   UNL d   1      15.703  16.553  -0.016  0.00  0.00     0.030 A 
ATOM     25  F   UNL d   1      15.870  17.994  -0.024  0.00  0.00    -0.204 F 
ATOM     26  C   UNL d   1      15.446  15.859  -0.385  0.00  0.00     0.014 A 
ENDBRANCH  17  20
ENDBRANCH   3  17
BRANCH   5  27
ATOM     27  C   UNL d   1      14.578  12.343  -1.529  0.00  0.00     0.083 C 
ATOM     28  C   UNL d   1      14.086  12.126  -0.883  0.00  0.00     0.021 C 
ENDBRANCH   5  27
TORSDOF 3
ENDMDL
