MODEL 1
REMARK VINA RESULT:      60.4      0.000      0.000
REMARK  6 active torsions:
REMARK  status: ('A' for Active; 'I' for Inactive)
REMARK    1  A    between atoms: C_10  and  N_1 
REMARK    2  A    between atoms: S_14  and  C_6 
REMARK       I    between atoms: N_7  and  C_11 
REMARK    3  A    between atoms: C_22  and  N_9 
REMARK    4  A    between atoms: C_13  and  C_10 
REMARK    5  A    between atoms: C_11  and  C_16 
REMARK    6  A    between atoms: C_16  and  S_14 
ROOT
ATOM      1  N   UNL d   1     -56.913 -99.550 -44.577  0.00  0.00    -0.192 N 
ATOM      2  N   UNL d   1     -57.217-100.214 -44.209  0.00  0.00    -0.058 NA
ATOM      3  C   UNL d   1     -56.155 -99.733 -44.835  0.00  0.00     0.189 A 
ATOM      4  C   UNL d   1     -56.002-100.515 -44.619  0.00  0.00     0.164 A 
ATOM      5  N   UNL d   1     -56.668-100.801 -44.232  0.00  0.00    -0.125 NA
ATOM      6  C   UNL d   1     -55.287-100.860 -44.800  0.00  0.00     0.135 A 
ATOM      7  N   UNL d   1     -55.594 -99.297 -45.231  0.00  0.00    -0.203 NA
ATOM      8  N   UNL d   1     -54.712-100.422 -45.202  0.00  0.00    -0.216 NA
ATOM      9  C   UNL d   1     -54.865 -99.641 -45.418  0.00  0.00     0.201 A 
ENDROOT
BRANCH   6  10
ATOM     10  S   UNL d   1     -55.133-101.641 -44.584  0.00  0.00    -0.061 SA
BRANCH  10  11
ATOM     11  C   UNL d   1     -54.770-101.809 -43.875  0.00  0.00     0.098 C 
BRANCH  11  12
ATOM     12  C   UNL d   1     -54.806-101.264 -43.257  0.00  0.00     0.272 C 
ATOM     13  N   UNL d   1     -54.939-101.535 -42.486  0.00  0.00    -0.269 N 
ATOM     14  C   UNL d   1     -55.034-102.344 -42.338  0.00  0.00     0.102 A 
ATOM     15  C   UNL d   1     -54.977-101.002 -41.857  0.00  0.00     0.102 A 
ATOM     16  C   UNL d   1     -55.166-102.615 -41.567  0.00  0.00     0.100 A 
ATOM     17  N   UNL d   1     -55.204-102.076 -40.943  0.00  0.00    -0.301 N 
ATOM     18  C   UNL d   1     -55.108-101.267 -41.090  0.00  0.00     0.100 A 
ATOM     19  O   UNL d   1     -54.712-100.462 -43.399  0.00  0.00    -0.266 OA
BRANCH  17  20
ATOM     20  C   UNL d   1     -55.336-102.346 -40.172  0.00  0.00     0.064 A 
ATOM     21  C   UNL d   1     -54.713-102.371 -39.632  0.00  0.00     0.018 A 
ATOM     22  C   UNL d   1     -54.853-102.640 -38.866  0.00  0.00     0.002 A 
ATOM     23  C   UNL d   1     -55.592-102.880 -38.641  0.00  0.00     0.000 A 
ATOM     24  C   UNL d   1     -56.215-102.855 -39.182  0.00  0.00     0.002 A 
ATOM     25  C   UNL d   1     -56.082-102.585 -39.953  0.00  0.00     0.018 A 
ENDBRANCH  17  20
ENDBRANCH  11  12
ENDBRANCH  10  11
ENDBRANCH   6  10
BRANCH   1  26
ATOM     26  C   UNL d   1     -57.309 -98.818 -44.672  0.00  0.00     0.106 C 
BRANCH  26  27
ATOM     27  C   UNL d   1     -58.129 -98.797 -44.816  0.00  0.00     0.047 A 
ATOM     28  C   UNL d   1     -58.657 -98.787 -44.183  0.00  0.00     0.142 A 
ATOM     29  F   UNL d   1     -58.389 -98.797 -43.406  0.00  0.00    -0.204 F 
ATOM     30  C   UNL d   1     -59.461 -98.766 -44.318  0.00  0.00     0.030 A 
ATOM     31  C   UNL d   1     -59.745 -98.755 -45.095  0.00  0.00     0.002 A 
ATOM     32  C   UNL d   1     -59.217 -98.766 -45.736  0.00  0.00     0.000 A 
ATOM     33  C   UNL d   1     -58.422 -98.786 -45.584  0.00  0.00     0.004 A 
ENDBRANCH  26  27
ENDBRANCH   1  26
TORSDOF 6
ENDMDL
