MODEL 1
REMARK VINA RESULT:      -9.9      0.000      0.000
REMARK  2 active torsions:
REMARK  status: ('A' for Active; 'I' for Inactive)
REMARK    1  A    between atoms: C_13  and  C_5 
REMARK    2  A    between atoms: C_16  and  C_13 
ROOT
ATOM      1  C   UNL d   1     -47.913  14.220  22.942  0.00  0.00     0.111 A 
ATOM      2  C   UNL d   1     -47.593  12.871  23.276  0.00  0.00     0.062 A 
ATOM      3  C   UNL d   1     -47.124  14.376  22.812  0.00  0.00     0.213 A 
ATOM      4  C   UNL d   1     -46.803  13.027  23.145  0.00  0.00     0.101 A 
ATOM      5  C   UNL d   1     -48.147  13.474  23.173  0.00  0.00     0.018 A 
ATOM      6  O   UNL d   1     -46.573  13.784  22.912  0.00  0.00    -0.288 OA
ATOM      7  C   UNL d   1     -47.827  12.125  23.506  0.00  0.00     0.194 A 
ATOM      8  C   UNL d   1     -48.462  14.866  22.827  0.00  0.00     0.105 C 
ATOM      9  N   UNL d   1     -49.021  15.490  22.719  0.00  0.00    -0.191 NA
ATOM     10  C   UNL d   1     -46.252  12.435  23.245  0.00  0.00     0.002 A 
ATOM     11  C   UNL d   1     -46.482  11.675  23.479  0.00  0.00     0.042 A 
ATOM     12  C   UNL d   1     -47.272  11.520  23.610  0.00  0.00     0.019 A 
ATOM     13  O   UNL d   1     -48.635  11.967  23.640  0.00  0.00    -0.287 OA
ATOM     14  N   UNL d   1     -46.917  15.170  22.571  0.00  0.00    -0.120 N 
ATOM     15  C   UNL d   1     -46.519  10.891  23.698  0.00  0.00     0.009 C 
ATOM     16  C   UNL d   1     -45.811  11.222  23.528  0.00  0.00     0.009 C 
ENDROOT
BRANCH   5  17
ATOM     17  C   UNL d   1     -48.955  13.316  23.306  0.00  0.00     0.001 C 
BRANCH  17  18
ATOM     18  C   UNL d   1     -49.437  13.079  22.688  0.00  0.00     0.000 A 
ATOM     19  C   UNL d   1     -50.199  12.774  22.845  0.00  0.00     0.000 A 
ATOM     20  C   UNL d   1     -50.689  12.533  22.207  0.00  0.00     0.000 A 
ATOM     21  C   UNL d   1     -50.435  12.591  21.454  0.00  0.00     0.000 A 
ATOM     22  C   UNL d   1     -49.672  12.896  21.283  0.00  0.00     0.000 A 
ATOM     23  C   UNL d   1     -49.171  13.140  21.899  0.00  0.00     0.000 A 
ENDBRANCH  17  18
ENDBRANCH   5  17
TORSDOF 2
ENDMDL
MODEL 2
REMARK VINA RESULT:      -9.4      1.681      2.413
REMARK  2 active torsions:
REMARK  status: ('A' for Active; 'I' for Inactive)
REMARK    1  A    between atoms: C_13  and  C_5 
REMARK    2  A    between atoms: C_16  and  C_13 
ROOT
ATOM      1  C   UNL d   1     -48.885  12.142  23.369  0.00  0.00     0.111 A 
ATOM      2  C   UNL d   1     -48.078  13.287  23.103  0.00  0.00     0.062 A 
ATOM      3  C   UNL d   1     -48.226  11.666  23.318  0.00  0.00     0.213 A 
ATOM      4  C   UNL d   1     -47.419  12.811  23.052  0.00  0.00     0.101 A 
ATOM      5  C   UNL d   1     -48.813  12.947  23.262  0.00  0.00     0.018 A 
ATOM      6  O   UNL d   1     -47.498  11.997  23.161  0.00  0.00    -0.288 OA
ATOM      7  C   UNL d   1     -48.006  14.092  22.997  0.00  0.00     0.194 A 
ATOM      8  C   UNL d   1     -49.631  11.759  23.534  0.00  0.00     0.105 C 
ATOM      9  N   UNL d   1     -50.379  11.401  23.698  0.00  0.00    -0.191 NA
ATOM     10  C   UNL d   1     -46.691  13.142  22.895  0.00  0.00     0.002 A 
ATOM     11  C   UNL d   1     -46.610  13.959  22.786  0.00  0.00     0.042 A 
ATOM     12  C   UNL d   1     -47.269  14.435  22.837  0.00  0.00     0.019 A 
ATOM     13  O   UNL d   1     -48.681  14.580  23.049  0.00  0.00    -0.287 OA
ATOM     14  N   UNL d   1     -48.341  10.826  23.435  0.00  0.00    -0.120 N 
ATOM     15  C   UNL d   1     -46.344  14.717  22.654  0.00  0.00     0.009 C 
ATOM     16  C   UNL d   1     -45.826  14.108  22.642  0.00  0.00     0.009 C 
ENDROOT
BRANCH   5  17
ATOM     17  C   UNL d   1     -49.488  13.435  23.314  0.00  0.00     0.001 C 
BRANCH  17  18
ATOM     18  C   UNL d   1     -49.946  13.578  22.651  0.00  0.00     0.000 A 
ATOM     19  C   UNL d   1     -50.497  14.206  22.650  0.00  0.00     0.000 A 
ATOM     20  C   UNL d   1     -50.964  14.348  21.967  0.00  0.00     0.000 A 
ATOM     21  C   UNL d   1     -50.887  13.892  21.319  0.00  0.00     0.000 A 
ATOM     22  C   UNL d   1     -50.337  13.258  21.306  0.00  0.00     0.000 A 
ATOM     23  C   UNL d   1     -49.865  13.099  21.971  0.00  0.00     0.000 A 
ENDBRANCH  17  18
ENDBRANCH   5  17
TORSDOF 2
ENDMDL
MODEL 3
REMARK VINA RESULT:      -8.5      1.299      3.175
REMARK  2 active torsions:
REMARK  status: ('A' for Active; 'I' for Inactive)
REMARK    1  A    between atoms: C_13  and  C_5 
REMARK    2  A    between atoms: C_16  and  C_13 
ROOT
ATOM      1  C   UNL d   1     -47.166  14.021  22.411  0.00  0.00     0.111 A 
ATOM      2  C   UNL d   1     -48.587  14.124  22.478  0.00  0.00     0.062 A 
ATOM      3  C   UNL d   1     -47.098  14.791  22.669  0.00  0.00     0.213 A 
ATOM      4  C   UNL d   1     -48.519  14.894  22.736  0.00  0.00     0.101 A 
ATOM      5  C   UNL d   1     -47.905  13.688  22.316  0.00  0.00     0.018 A 
ATOM      6  O   UNL d   1     -47.769  15.225  22.830  0.00  0.00    -0.288 OA
ATOM      7  C   UNL d   1     -49.325  13.792  22.383  0.00  0.00     0.194 A 
ATOM      8  C   UNL d   1     -46.441  13.597  22.252  0.00  0.00     0.105 C 
ATOM      9  N   UNL d   1     -45.737  13.159  22.089  0.00  0.00    -0.191 NA
ATOM     10  C   UNL d   1     -49.189  15.328  22.897  0.00  0.00     0.002 A 
ATOM     11  C   UNL d   1     -49.943  14.998  22.803  0.00  0.00     0.042 A 
ATOM     12  C   UNL d   1     -50.011  14.228  22.546  0.00  0.00     0.019 A 
ATOM     13  O   UNL d   1     -49.395  13.003  22.120  0.00  0.00    -0.287 OA
ATOM     14  N   UNL d   1     -46.307  15.104  22.756  0.00  0.00    -0.120 N 
ATOM     15  C   UNL d   1     -50.742  14.847  22.771  0.00  0.00     0.009 C 
ATOM     16  C   UNL d   1     -50.485  15.566  23.007  0.00  0.00     0.009 C 
ENDROOT
BRANCH   5  17
ATOM     17  C   UNL d   1     -47.975  12.900  22.053  0.00  0.00     0.001 C 
BRANCH  17  18
ATOM     18  C   UNL d   1     -47.995  12.284  22.592  0.00  0.00     0.000 A 
ATOM     19  C   UNL d   1     -47.378  12.193  23.147  0.00  0.00     0.000 A 
ATOM     20  C   UNL d   1     -47.404  11.560  23.698  0.00  0.00     0.000 A 
ATOM     21  C   UNL d   1     -48.012  11.046  23.697  0.00  0.00     0.000 A 
ATOM     22  C   UNL d   1     -48.639  11.125  23.145  0.00  0.00     0.000 A 
ATOM     23  C   UNL d   1     -48.633  11.745  22.591  0.00  0.00     0.000 A 
ENDBRANCH  17  18
ENDBRANCH   5  17
TORSDOF 2
ENDMDL
MODEL 4
REMARK VINA RESULT:      -8.4      1.481      2.361
REMARK  2 active torsions:
REMARK  status: ('A' for Active; 'I' for Inactive)
REMARK    1  A    between atoms: C_13  and  C_5 
REMARK    2  A    between atoms: C_16  and  C_13 
ROOT
ATOM      1  C   UNL d   1     -49.608  12.368  23.665  0.00  0.00     0.111 A 
ATOM      2  C   UNL d   1     -48.185  12.289  23.630  0.00  0.00     0.062 A 
ATOM      3  C   UNL d   1     -49.653  11.554  23.674  0.00  0.00     0.213 A 
ATOM      4  C   UNL d   1     -48.229  11.475  23.639  0.00  0.00     0.101 A 
ATOM      5  C   UNL d   1     -48.880  12.734  23.643  0.00  0.00     0.018 A 
ATOM      6  O   UNL d   1     -48.969  11.111  23.661  0.00  0.00    -0.288 OA
ATOM      7  C   UNL d   1     -47.457  12.656  23.607  0.00  0.00     0.194 A 
ATOM      8  C   UNL d   1     -50.346  12.799  23.680  0.00  0.00     0.105 C 
ATOM      9  N   UNL d   1     -51.064  13.245  23.693  0.00  0.00    -0.191 NA
ATOM     10  C   UNL d   1     -47.546  11.032  23.626  0.00  0.00     0.002 A 
ATOM     11  C   UNL d   1     -46.803  11.397  23.603  0.00  0.00     0.042 A 
ATOM     12  C   UNL d   1     -46.758  12.210  23.594  0.00  0.00     0.019 A 
ATOM     13  O   UNL d   1     -47.411  13.488  23.598  0.00  0.00    -0.287 OA
ATOM     14  N   UNL d   1     -50.434  11.207  23.698  0.00  0.00    -0.120 N 
ATOM     15  C   UNL d   1     -46.008  11.573  23.581  0.00  0.00     0.009 C 
ATOM     16  C   UNL d   1     -46.244  10.809  23.595  0.00  0.00     0.009 C 
ENDROOT
BRANCH   5  17
ATOM     17  C   UNL d   1     -48.834  13.567  23.633  0.00  0.00     0.001 C 
BRANCH  17  18
ATOM     18  C   UNL d   1     -48.862  13.974  22.923  0.00  0.00     0.000 A 
ATOM     19  C   UNL d   1     -48.714  14.796  22.906  0.00  0.00     0.000 A 
ATOM     20  C   UNL d   1     -48.743  15.208  22.175  0.00  0.00     0.000 A 
ATOM     21  C   UNL d   1     -48.910  14.824  21.498  0.00  0.00     0.000 A 
ATOM     22  C   UNL d   1     -49.061  13.998  21.501  0.00  0.00     0.000 A 
ATOM     23  C   UNL d   1     -49.037  13.571  22.213  0.00  0.00     0.000 A 
ENDBRANCH  17  18
ENDBRANCH   5  17
TORSDOF 2
ENDMDL
MODEL 5
REMARK VINA RESULT:      -7.7      1.286      2.924
REMARK  2 active torsions:
REMARK  status: ('A' for Active; 'I' for Inactive)
REMARK    1  A    between atoms: C_13  and  C_5 
REMARK    2  A    between atoms: C_16  and  C_13 
ROOT
ATOM      1  C   UNL d   1     -48.298  14.575  22.717  0.00  0.00     0.111 A 
ATOM      2  C   UNL d   1     -48.755  13.290  23.132  0.00  0.00     0.062 A 
ATOM      3  C   UNL d   1     -49.053  14.768  22.481  0.00  0.00     0.213 A 
ATOM      4  C   UNL d   1     -49.511  13.483  22.896  0.00  0.00     0.101 A 
ATOM      5  C   UNL d   1     -48.148  13.842  23.041  0.00  0.00     0.018 A 
ATOM      6  O   UNL d   1     -49.656  14.227  22.569  0.00  0.00    -0.288 OA
ATOM      7  C   UNL d   1     -48.605  12.557  23.456  0.00  0.00     0.194 A 
ATOM      8  C   UNL d   1     -47.692  15.169  22.609  0.00  0.00     0.105 C 
ATOM      9  N   UNL d   1     -47.078  15.741  22.511  0.00  0.00    -0.191 NA
ATOM     10  C   UNL d   1     -50.113  12.941  22.984  0.00  0.00     0.002 A 
ATOM     11  C   UNL d   1     -49.969  12.195  23.312  0.00  0.00     0.042 A 
ATOM     12  C   UNL d   1     -49.214  12.002  23.548  0.00  0.00     0.019 A 
ATOM     13  O   UNL d   1     -47.832  12.360  23.698  0.00  0.00    -0.287 OA
ATOM     14  N   UNL d   1     -49.171  15.546  22.146  0.00  0.00    -0.120 N 
ATOM     15  C   UNL d   1     -50.017  11.436  23.604  0.00  0.00     0.009 C 
ATOM     16  C   UNL d   1     -50.675  11.794  23.322  0.00  0.00     0.009 C 
ENDROOT
BRANCH   5  17
ATOM     17  C   UNL d   1     -47.375  13.645  23.283  0.00  0.00     0.001 C 
BRANCH  17  18
ATOM     18  C   UNL d   1     -46.820  13.398  22.733  0.00  0.00     0.000 A 
ATOM     19  C   UNL d   1     -46.008  13.546  22.863  0.00  0.00     0.000 A 
ATOM     20  C   UNL d   1     -45.444  13.290  22.295  0.00  0.00     0.000 A 
ATOM     21  C   UNL d   1     -45.675  12.909  21.636  0.00  0.00     0.000 A 
ATOM     22  C   UNL d   1     -46.487  12.755  21.493  0.00  0.00     0.000 A 
ATOM     23  C   UNL d   1     -47.062  12.999  22.041  0.00  0.00     0.000 A 
ENDBRANCH  17  18
ENDBRANCH   5  17
TORSDOF 2
ENDMDL
