MODEL 1
REMARK VINA RESULT:      50.9      0.000      0.000
REMARK  2 active torsions:
REMARK  status: ('A' for Active; 'I' for Inactive)
REMARK       I    between atoms: C_2  and  N_1 
REMARK       I    between atoms: N_8  and  C_2 
REMARK    1  A    between atoms: C_15  and  N_8 
REMARK    2  A    between atoms: C_9  and  C_15 
ROOT
ATOM      1  N   UNL d   1      58.002  49.706  51.239  0.00  0.00    -0.258 N 
ATOM      2  C   UNL d   1      58.800  49.705  51.454  0.00  0.00     0.354 C 
ATOM      3  S   UNL d   1      56.412  49.708  50.774  0.00  0.00    -0.084 SA
ATOM      4  C   UNL d   1      57.799  49.706  50.431  0.00  0.00     0.074 A 
ATOM      5  C   UNL d   1      57.422  49.706  51.813  0.00  0.00     0.074 A 
ATOM      6  C   UNL d   1      57.000  49.707  50.196  0.00  0.00     0.046 A 
ATOM      7  C   UNL d   1      56.622  49.707  51.578  0.00  0.00     0.046 A 
ATOM      8  N   UNL d   1      59.444  49.704  50.809  0.00  0.00    -0.189 NA
ATOM      9  O   UNL d   1      59.014  49.704  52.334  0.00  0.00    -0.244 OA
ATOM     10  C   UNL d   1      57.621  49.706  52.605  0.00  0.00     0.018 A 
ATOM     11  C   UNL d   1      58.384  49.706  49.860  0.00  0.00     0.018 A 
ATOM     12  C   UNL d   1      56.805  49.708  49.405  0.00  0.00     0.008 A 
ATOM     13  C   UNL d   1      56.033  49.708  52.151  0.00  0.00     0.008 A 
ATOM     14  C   UNL d   1      58.185  49.707  49.065  0.00  0.00     0.002 A 
ATOM     15  C   UNL d   1      57.032  49.706  53.182  0.00  0.00     0.002 A 
ATOM     16  C   UNL d   1      56.229  49.707  52.955  0.00  0.00     0.001 A 
ATOM     17  C   UNL d   1      57.382  49.708  48.830  0.00  0.00     0.001 A 
ENDROOT
BRANCH   8  18
ATOM     18  C   UNL d   1      60.239  49.703  51.028  0.00  0.00     0.128 C 
BRANCH  18  19
ATOM     19  C   UNL d   1      60.748  49.116  50.744  0.00  0.00     0.119 A 
ATOM     20  O   UNL d   1      61.186  49.147  50.044  0.00  0.00    -0.304 OA
ATOM     21  C   UNL d   1      61.616  48.445  49.978  0.00  0.00     0.123 A 
ATOM     22  C   UNL d   1      61.444  47.979  50.636  0.00  0.00     0.029 A 
ATOM     23  C   UNL d   1      60.908  48.393  51.108  0.00  0.00     0.028 A 
ENDBRANCH  18  19
ENDBRANCH   8  18
TORSDOF 2
ENDMDL
