MODEL 1
REMARK VINA RESULT:      -7.1      0.000      0.000
REMARK  6 active torsions:
REMARK  status: ('A' for Active; 'I' for Inactive)
REMARK    1  A    between atoms: N_3  and  C_1 
REMARK    2  A    between atoms: S_2  and  C_9 
REMARK    3  A    between atoms: N_10  and  S_2 
REMARK       I    between atoms: C_8  and  N_3 
REMARK    4  A    between atoms: C_20  and  N_4 
REMARK    5  A    between atoms: C_13  and  C_8 
REMARK    6  A    between atoms: O_22  and  C_14 
ROOT
ATOM      1  N   UNL d   1     -47.875  12.954  22.788  0.00  0.00    -0.184 NA
ATOM      2  C   UNL d   1     -47.137  13.192  23.088  0.00  0.00     0.281 C 
ATOM      3  O   UNL d   1     -47.025  13.972  23.330  0.00  0.00    -0.265 OA
ENDROOT
BRANCH   1   4
ATOM      4  C   UNL d   1     -48.496  13.508  22.735  0.00  0.00     0.182 A 
ATOM      5  N   UNL d   1     -49.135  13.458  22.228  0.00  0.00    -0.283 N 
ATOM      6  C   UNL d   1     -49.620  14.113  22.350  0.00  0.00     0.094 A 
ATOM      7  C   UNL d   1     -50.339  14.353  21.996  0.00  0.00     0.111 A 
ATOM      8  C   UNL d   1     -49.282  14.574  22.935  0.00  0.00     0.050 A 
ATOM      9  C   UNL d   1     -50.695  15.049  22.242  0.00  0.00     0.026 A 
ATOM     10  C   UNL d   1     -50.361  15.517  22.828  0.00  0.00     0.003 A 
ATOM     11  C   UNL d   1     -49.649  15.278  23.177  0.00  0.00     0.008 A 
ATOM     12  S   UNL d   1     -48.585  14.207  23.180  0.00  0.00    -0.048 SA
BRANCH   5  13
ATOM     13  C   UNL d   1     -49.279  12.856  21.684  0.00  0.00     0.082 C 
ATOM     14  C   UNL d   1     -49.440  12.152  22.077  0.00  0.00     0.021 C 
ENDBRANCH   5  13
BRANCH   7  15
ATOM     15  O   UNL d   1     -50.677  13.896  21.415  0.00  0.00    -0.327 OA
ATOM     16  C   UNL d   1     -51.064  14.248  20.787  0.00  0.00     0.181 C 
ENDBRANCH   7  15
ENDBRANCH   1   4
BRANCH   2  17
ATOM     17  C   UNL d   1     -46.517  12.646  23.142  0.00  0.00     0.058 A 
ATOM     18  C   UNL d   1     -45.831  12.766  22.706  0.00  0.00     0.005 A 
ATOM     19  C   UNL d   1     -45.211  12.225  22.756  0.00  0.00     0.013 A 
ATOM     20  C   UNL d   1     -45.282  11.560  23.249  0.00  0.00     0.104 A 
ATOM     21  C   UNL d   1     -45.981  11.447  23.687  0.00  0.00     0.013 A 
ATOM     22  C   UNL d   1     -46.601  11.988  23.637  0.00  0.00     0.005 A 
BRANCH  20  23
ATOM     23  S   UNL d   1     -44.664  11.018  23.301  0.00  0.00     0.271 S 
ATOM     24  O   UNL d   1     -44.193  11.575  22.897  0.00  0.00    -0.200 OA
ATOM     25  O   UNL d   1     -45.130  10.475  23.698  0.00  0.00    -0.200 OA
BRANCH  23  26
ATOM     26  N   UNL d   1     -44.045  10.480  23.351  0.00  0.00    -0.226 N 
ATOM     27  C   UNL d   1     -43.295  10.685  23.057  0.00  0.00     0.111 C 
ATOM     28  C   UNL d   1     -44.147   9.741  23.686  0.00  0.00     0.111 C 
ENDBRANCH  23  26
ENDBRANCH  20  23
ENDBRANCH   2  17
TORSDOF 6
ENDMDL
MODEL 2
REMARK VINA RESULT:      -5.3      1.264      5.729
REMARK  6 active torsions:
REMARK  status: ('A' for Active; 'I' for Inactive)
REMARK    1  A    between atoms: N_3  and  C_1 
REMARK    2  A    between atoms: S_2  and  C_9 
REMARK    3  A    between atoms: N_10  and  S_2 
REMARK       I    between atoms: C_8  and  N_3 
REMARK    4  A    between atoms: C_20  and  N_4 
REMARK    5  A    between atoms: C_13  and  C_8 
REMARK    6  A    between atoms: O_22  and  C_14 
ROOT
ATOM      1  N   UNL d   1     -46.866  12.508  23.023  0.00  0.00    -0.184 NA
ATOM      2  C   UNL d   1     -47.622  12.322  23.315  0.00  0.00     0.281 C 
ATOM      3  O   UNL d   1     -47.747  11.603  23.698  0.00  0.00    -0.265 OA
ENDROOT
BRANCH   1   4
ATOM      4  C   UNL d   1     -46.241  11.965  23.120  0.00  0.00     0.182 A 
ATOM      5  N   UNL d   1     -45.466  12.086  22.890  0.00  0.00    -0.283 N 
ATOM      6  C   UNL d   1     -45.025  11.418  23.086  0.00  0.00     0.094 A 
ATOM      7  C   UNL d   1     -44.217  11.229  22.985  0.00  0.00     0.111 A 
ATOM      8  C   UNL d   1     -45.527  10.877  23.439  0.00  0.00     0.050 A 
ATOM      9  C   UNL d   1     -43.939  10.502  23.243  0.00  0.00     0.026 A 
ATOM     10  C   UNL d   1     -44.437   9.955  23.599  0.00  0.00     0.003 A 
ATOM     11  C   UNL d   1     -45.237  10.144  23.698  0.00  0.00     0.008 A 
ATOM     12  S   UNL d   1     -46.283  11.207  23.466  0.00  0.00    -0.048 SA
BRANCH   5  13
ATOM     13  C   UNL d   1     -45.167  12.760  22.523  0.00  0.00     0.082 C 
ATOM     14  C   UNL d   1     -45.493  12.842  21.773  0.00  0.00     0.021 C 
ENDBRANCH   5  13
BRANCH   7  15
ATOM     15  O   UNL d   1     -43.716  11.764  22.633  0.00  0.00    -0.327 OA
ATOM     16  C   UNL d   1     -42.927  11.583  22.530  0.00  0.00     0.181 C 
ENDBRANCH   7  15
ENDBRANCH   1   4
BRANCH   2  17
ATOM     17  C   UNL d   1     -48.245  12.858  23.220  0.00  0.00     0.058 A 
ATOM     18  C   UNL d   1     -48.087  13.664  23.198  0.00  0.00     0.005 A 
ATOM     19  C   UNL d   1     -48.704  14.203  23.103  0.00  0.00     0.013 A 
ATOM     20  C   UNL d   1     -49.485  13.928  23.032  0.00  0.00     0.104 A 
ATOM     21  C   UNL d   1     -49.635  13.109  23.056  0.00  0.00     0.013 A 
ATOM     22  C   UNL d   1     -49.018  12.570  23.150  0.00  0.00     0.005 A 
BRANCH  20  23
ATOM     23  S   UNL d   1     -50.104  14.463  22.938  0.00  0.00     0.271 S 
ATOM     24  O   UNL d   1     -49.616  15.032  23.304  0.00  0.00    -0.200 OA
ATOM     25  O   UNL d   1     -50.579  13.902  22.579  0.00  0.00    -0.200 OA
BRANCH  23  26
ATOM     26  N   UNL d   1     -50.719  15.000  22.846  0.00  0.00    -0.226 N 
ATOM     27  C   UNL d   1     -51.063  15.109  22.097  0.00  0.00     0.111 C 
ATOM     28  C   UNL d   1     -51.004  15.434  23.476  0.00  0.00     0.111 C 
ENDBRANCH  23  26
ENDBRANCH  20  23
ENDBRANCH   2  17
TORSDOF 6
ENDMDL
MODEL 3
REMARK VINA RESULT:      -5.2      1.537      2.096
REMARK  6 active torsions:
REMARK  status: ('A' for Active; 'I' for Inactive)
REMARK    1  A    between atoms: N_3  and  C_1 
REMARK    2  A    between atoms: S_2  and  C_9 
REMARK    3  A    between atoms: N_10  and  S_2 
REMARK       I    between atoms: C_8  and  N_3 
REMARK    4  A    between atoms: C_20  and  N_4 
REMARK    5  A    between atoms: C_13  and  C_8 
REMARK    6  A    between atoms: O_22  and  C_14 
ROOT
ATOM      1  N   UNL d   1     -47.701  13.174  22.523  0.00  0.00    -0.184 NA
ATOM      2  C   UNL d   1     -47.123  12.763  22.957  0.00  0.00     0.281 C 
ATOM      3  O   UNL d   1     -47.337  12.362  23.645  0.00  0.00    -0.265 OA
ENDROOT
BRANCH   1   4
ATOM      4  C   UNL d   1     -48.492  13.176  22.787  0.00  0.00     0.182 A 
ATOM      5  N   UNL d   1     -48.970  13.835  22.850  0.00  0.00    -0.283 N 
ATOM      6  C   UNL d   1     -49.708  13.600  23.132  0.00  0.00     0.094 A 
ATOM      7  C   UNL d   1     -50.407  14.027  23.303  0.00  0.00     0.111 A 
ATOM      8  C   UNL d   1     -49.690  12.789  23.245  0.00  0.00     0.050 A 
ATOM      9  C   UNL d   1     -51.064  13.625  23.582  0.00  0.00     0.026 A 
ATOM     10  C   UNL d   1     -51.054  12.813  23.697  0.00  0.00     0.003 A 
ATOM     11  C   UNL d   1     -50.361  12.392  23.528  0.00  0.00     0.008 A 
ATOM     12  S   UNL d   1     -48.940  12.517  23.034  0.00  0.00    -0.048 SA
BRANCH   5  13
ATOM     13  C   UNL d   1     -48.758  14.609  22.666  0.00  0.00     0.082 C 
ATOM     14  C   UNL d   1     -48.756  14.715  21.850  0.00  0.00     0.021 C 
ENDBRANCH   5  13
BRANCH   7  15
ATOM     15  O   UNL d   1     -50.427  14.832  23.191  0.00  0.00    -0.327 OA
ATOM     16  C   UNL d   1     -51.035  15.276  23.506  0.00  0.00     0.181 C 
ENDBRANCH   7  15
ENDBRANCH   1   4
BRANCH   2  17
ATOM     17  C   UNL d   1     -46.337  12.759  22.699  0.00  0.00     0.058 A 
ATOM     18  C   UNL d   1     -45.803  12.231  23.035  0.00  0.00     0.005 A 
ATOM     19  C   UNL d   1     -45.018  12.222  22.781  0.00  0.00     0.013 A 
ATOM     20  C   UNL d   1     -44.771  12.747  22.186  0.00  0.00     0.104 A 
ATOM     21  C   UNL d   1     -45.319  13.277  21.853  0.00  0.00     0.013 A 
ATOM     22  C   UNL d   1     -46.104  13.286  22.106  0.00  0.00     0.005 A 
BRANCH  20  23
ATOM     23  S   UNL d   1     -43.988  12.741  21.931  0.00  0.00     0.271 S 
ATOM     24  O   UNL d   1     -44.105  13.527  21.676  0.00  0.00    -0.200 OA
ATOM     25  O   UNL d   1     -43.877  11.970  22.181  0.00  0.00    -0.200 OA
BRANCH  23  26
ATOM     26  N   UNL d   1     -43.207  12.739  21.674  0.00  0.00    -0.226 N 
ATOM     27  C   UNL d   1     -42.753  12.045  21.736  0.00  0.00     0.111 C 
ATOM     28  C   UNL d   1     -42.861  13.408  21.356  0.00  0.00     0.111 C 
ENDBRANCH  23  26
ENDBRANCH  20  23
ENDBRANCH   2  17
TORSDOF 6
ENDMDL
MODEL 4
REMARK VINA RESULT:      -4.1      9.136     10.642
REMARK  6 active torsions:
REMARK  status: ('A' for Active; 'I' for Inactive)
REMARK    1  A    between atoms: N_3  and  C_1 
REMARK    2  A    between atoms: S_2  and  C_9 
REMARK    3  A    between atoms: N_10  and  S_2 
REMARK       I    between atoms: C_8  and  N_3 
REMARK    4  A    between atoms: C_20  and  N_4 
REMARK    5  A    between atoms: C_13  and  C_8 
REMARK    6  A    between atoms: O_22  and  C_14 
ROOT
ATOM      1  N   UNL d   1     -38.603  14.499  19.627  0.00  0.00    -0.184 NA
ATOM      2  C   UNL d   1     -38.411  13.878  19.109  0.00  0.00     0.281 C 
ATOM      3  O   UNL d   1     -38.227  13.134  19.411  0.00  0.00    -0.265 OA
ENDROOT
BRANCH   1   4
ATOM      4  C   UNL d   1     -38.607  14.362  20.450  0.00  0.00     0.182 A 
ATOM      5  N   UNL d   1     -38.749  14.925  21.025  0.00  0.00    -0.283 N 
ATOM      6  C   UNL d   1     -38.704  14.565  21.764  0.00  0.00     0.094 A 
ATOM      7  C   UNL d   1     -38.798  14.862  22.541  0.00  0.00     0.111 A 
ATOM      8  C   UNL d   1     -38.532  13.773  21.651  0.00  0.00     0.050 A 
ATOM      9  C   UNL d   1     -38.717  14.353  23.178  0.00  0.00     0.026 A 
ATOM     10  C   UNL d   1     -38.545  13.557  23.072  0.00  0.00     0.003 A 
ATOM     11  C   UNL d   1     -38.452  13.265  22.302  0.00  0.00     0.008 A 
ATOM     12  S   UNL d   1     -38.471  13.637  20.840  0.00  0.00    -0.048 SA
BRANCH   5  13
ATOM     13  C   UNL d   1     -38.912  15.722  20.895  0.00  0.00     0.082 C 
ATOM     14  C   UNL d   1     -39.633  15.804  20.509  0.00  0.00     0.021 C 
ENDBRANCH   5  13
BRANCH   7  15
ATOM     15  O   UNL d   1     -38.968  15.648  22.656  0.00  0.00    -0.327 OA
ATOM     16  C   UNL d   1     -39.171  15.922  23.398  0.00  0.00     0.181 C 
ENDBRANCH   7  15
ENDBRANCH   1   4
BRANCH   2  17
ATOM     17  C   UNL d   1     -38.405  14.009  18.291  0.00  0.00     0.058 A 
ATOM     18  C   UNL d   1     -37.949  14.619  17.983  0.00  0.00     0.005 A 
ATOM     19  C   UNL d   1     -37.940  14.755  17.169  0.00  0.00     0.013 A 
ATOM     20  C   UNL d   1     -38.391  14.273  16.665  0.00  0.00     0.104 A 
ATOM     21  C   UNL d   1     -38.848  13.657  16.988  0.00  0.00     0.013 A 
ATOM     22  C   UNL d   1     -38.858  13.521  17.801  0.00  0.00     0.005 A 
BRANCH  20  23
ATOM     23  S   UNL d   1     -38.383  14.405  15.852  0.00  0.00     0.271 S 
ATOM     24  O   UNL d   1     -38.563  15.202  16.019  0.00  0.00    -0.200 OA
ATOM     25  O   UNL d   1     -38.206  13.623  15.692  0.00  0.00    -0.200 OA
BRANCH  23  26
ATOM     26  N   UNL d   1     -38.377  14.542  15.041  0.00  0.00    -0.226 N 
ATOM     27  C   UNL d   1     -38.447  15.319  14.753  0.00  0.00     0.111 C 
ATOM     28  C   UNL d   1     -38.303  13.929  14.506  0.00  0.00     0.111 C 
ENDBRANCH  23  26
ENDBRANCH  20  23
ENDBRANCH   2  17
TORSDOF 6
ENDMDL
