MODEL 1
REMARK VINA RESULT:     -10.3      0.000      0.000
REMARK  2 active torsions:
REMARK  status: ('A' for Active; 'I' for Inactive)
REMARK    1  A    between atoms: C_5  and  C_1 
REMARK       I    between atoms: N_7  and  C_5 
REMARK    2  A    between atoms: C_9  and  N_7 
ROOT
ATOM      1  C   UNL d   1      52.862  34.478  54.278  0.00  0.00     0.161 A 
ATOM      2  C   UNL d   1      53.129  34.789  53.590  0.00  0.00     0.072 A 
ATOM      3  O   UNL d   1      52.095  34.090  54.312  0.00  0.00    -0.302 OA
ATOM      4  C   UNL d   1      52.685  34.747  52.905  0.00  0.00     0.200 A 
ATOM      5  C   UNL d   1      51.939  34.377  52.913  0.00  0.00     0.062 A 
ATOM      6  C   UNL d   1      51.661  34.060  53.605  0.00  0.00     0.103 A 
ATOM      7  O   UNL d   1      52.994  35.082  52.204  0.00  0.00    -0.286 OA
ATOM      8  C   UNL d   1      51.475  34.327  52.219  0.00  0.00     0.005 A 
ATOM      9  C   UNL d   1      50.903  33.683  53.612  0.00  0.00     0.025 A 
ATOM     10  C   UNL d   1      50.734  33.955  52.245  0.00  0.00     0.000 A 
ATOM     11  C   UNL d   1      50.459  33.641  52.927  0.00  0.00     0.002 A 
ENDROOT
BRANCH   1  12
ATOM     12  C   UNL d   1      53.364  34.546  54.972  0.00  0.00     0.302 C 
ATOM     13  N   UNL d   1      53.894  33.944  55.167  0.00  0.00    -0.206 NA
ATOM     14  O   UNL d   1      53.303  35.233  55.443  0.00  0.00    -0.263 OA
BRANCH  13  15
ATOM     15  C   UNL d   1      53.937  33.279  54.690  0.00  0.00     0.085 A 
ATOM     16  C   UNL d   1      54.623  33.131  54.256  0.00  0.00     0.018 A 
ATOM     17  C   UNL d   1      54.684  32.474  53.777  0.00  0.00     0.002 A 
ATOM     18  C   UNL d   1      55.277  33.673  54.310  0.00  0.00     0.002 C 
ATOM     19  C   UNL d   1      54.053  31.953  53.727  0.00  0.00     0.000 A 
ATOM     20  C   UNL d   1      53.364  32.095  54.158  0.00  0.00     0.002 A 
ATOM     21  C   UNL d   1      54.100  31.267  53.234  0.00  0.00     0.000 C 
ATOM     22  C   UNL d   1      53.319  32.760  54.635  0.00  0.00     0.019 A 
ENDBRANCH  13  15
ENDBRANCH   1  12
TORSDOF 2
ENDMDL
MODEL 2
REMARK VINA RESULT:     -10.2      1.677      3.648
REMARK  2 active torsions:
REMARK  status: ('A' for Active; 'I' for Inactive)
REMARK    1  A    between atoms: C_5  and  C_1 
REMARK       I    between atoms: N_7  and  C_5 
REMARK    2  A    between atoms: C_9  and  N_7 
ROOT
ATOM      1  C   UNL d   1      53.670  31.924  53.644  0.00  0.00     0.161 A 
ATOM      2  C   UNL d   1      54.282  32.203  53.209  0.00  0.00     0.072 A 
ATOM      3  O   UNL d   1      53.558  32.187  54.455  0.00  0.00    -0.302 OA
ATOM      4  C   UNL d   1      54.813  32.741  53.519  0.00  0.00     0.200 A 
ATOM      5  C   UNL d   1      54.725  33.011  54.302  0.00  0.00     0.062 A 
ATOM      6  C   UNL d   1      54.109  32.734  54.750  0.00  0.00     0.103 A 
ATOM      7  O   UNL d   1      55.440  33.012  53.037  0.00  0.00    -0.286 OA
ATOM      8  C   UNL d   1      55.261  33.561  54.632  0.00  0.00     0.005 A 
ATOM      9  C   UNL d   1      54.020  33.008  55.546  0.00  0.00     0.025 A 
ATOM     10  C   UNL d   1      55.159  33.819  55.414  0.00  0.00     0.000 A 
ATOM     11  C   UNL d   1      54.551  33.546  55.857  0.00  0.00     0.002 A 
ENDROOT
BRANCH   1  12
ATOM     12  C   UNL d   1      53.139  31.360  53.275  0.00  0.00     0.302 C 
ATOM     13  N   UNL d   1      52.441  31.614  52.915  0.00  0.00    -0.206 NA
ATOM     14  O   UNL d   1      53.343  30.550  53.290  0.00  0.00    -0.263 OA
BRANCH  13  15
ATOM     15  C   UNL d   1      52.260  32.413  52.912  0.00  0.00     0.085 A 
ATOM     16  C   UNL d   1      51.575  32.680  53.287  0.00  0.00     0.018 A 
ATOM     17  C   UNL d   1      51.379  33.470  53.294  0.00  0.00     0.002 A 
ATOM     18  C   UNL d   1      51.064  32.117  53.671  0.00  0.00     0.002 C 
ATOM     19  C   UNL d   1      51.873  34.011  52.923  0.00  0.00     0.000 A 
ATOM     20  C   UNL d   1      52.560  33.752  52.547  0.00  0.00     0.002 A 
ATOM     21  C   UNL d   1      51.684  34.834  52.922  0.00  0.00     0.000 C 
ATOM     22  C   UNL d   1      52.742  32.952  52.549  0.00  0.00     0.019 A 
ENDBRANCH  13  15
ENDBRANCH   1  12
TORSDOF 2
ENDMDL
MODEL 3
REMARK VINA RESULT:     -10.1      1.072      2.929
REMARK  2 active torsions:
REMARK  status: ('A' for Active; 'I' for Inactive)
REMARK    1  A    between atoms: C_5  and  C_1 
REMARK       I    between atoms: N_7  and  C_5 
REMARK    2  A    between atoms: C_9  and  N_7 
ROOT
ATOM      1  C   UNL d   1      53.972  33.189  54.618  0.00  0.00     0.161 A 
ATOM      2  C   UNL d   1      54.504  33.226  54.021  0.00  0.00     0.072 A 
ATOM      3  O   UNL d   1      53.495  32.482  54.733  0.00  0.00    -0.302 OA
ATOM      4  C   UNL d   1      54.610  32.600  53.508  0.00  0.00     0.200 A 
ATOM      5  C   UNL d   1      54.161  31.904  53.598  0.00  0.00     0.062 A 
ATOM      6  C   UNL d   1      53.620  31.858  54.200  0.00  0.00     0.103 A 
ATOM      7  O   UNL d   1      55.175  32.673  52.895  0.00  0.00    -0.286 OA
ATOM      8  C   UNL d   1      54.260  31.255  53.080  0.00  0.00     0.005 A 
ATOM      9  C   UNL d   1      53.163  31.150  54.292  0.00  0.00     0.025 A 
ATOM     10  C   UNL d   1      53.804  30.571  53.185  0.00  0.00     0.000 A 
ATOM     11  C   UNL d   1      53.270  30.524  53.778  0.00  0.00     0.002 A 
ENDROOT
BRANCH   1  12
ATOM     12  C   UNL d   1      53.895  33.872  55.132  0.00  0.00     0.302 C 
ATOM     13  N   UNL d   1      53.335  34.457  54.973  0.00  0.00    -0.206 NA
ATOM     14  O   UNL d   1      54.399  33.931  55.796  0.00  0.00    -0.263 OA
BRANCH  13  15
ATOM     15  C   UNL d   1      52.852  34.380  54.316  0.00  0.00     0.085 A 
ATOM     16  C   UNL d   1      52.916  34.918  53.694  0.00  0.00     0.018 A 
ATOM     17  C   UNL d   1      52.443  34.857  53.033  0.00  0.00     0.002 A 
ATOM     18  C   UNL d   1      53.486  35.548  53.745  0.00  0.00     0.002 C 
ATOM     19  C   UNL d   1      51.894  34.248  52.987  0.00  0.00     0.000 A 
ATOM     20  C   UNL d   1      51.824  33.706  53.605  0.00  0.00     0.002 A 
ATOM     21  C   UNL d   1      51.396  34.170  52.308  0.00  0.00     0.000 C 
ATOM     22  C   UNL d   1      52.308  33.783  54.262  0.00  0.00     0.019 A 
ENDBRANCH  13  15
ENDBRANCH   1  12
TORSDOF 2
ENDMDL
MODEL 4
REMARK VINA RESULT:      -9.5      1.490      2.460
REMARK  2 active torsions:
REMARK  status: ('A' for Active; 'I' for Inactive)
REMARK    1  A    between atoms: C_5  and  C_1 
REMARK       I    between atoms: N_7  and  C_5 
REMARK    2  A    between atoms: C_9  and  N_7 
ROOT
ATOM      1  C   UNL d   1      52.667  32.085  52.905  0.00  0.00     0.161 A 
ATOM      2  C   UNL d   1      52.010  31.924  53.333  0.00  0.00     0.072 A 
ATOM      3  O   UNL d   1      52.756  32.847  52.515  0.00  0.00    -0.302 OA
ATOM      4  C   UNL d   1      51.409  32.473  53.411  0.00  0.00     0.200 A 
ATOM      5  C   UNL d   1      51.472  33.217  53.043  0.00  0.00     0.062 A 
ATOM      6  C   UNL d   1      52.134  33.389  52.608  0.00  0.00     0.103 A 
ATOM      7  O   UNL d   1      50.736  32.271  53.865  0.00  0.00    -0.286 OA
ATOM      8  C   UNL d   1      50.865  33.788  53.115  0.00  0.00     0.005 A 
ATOM      9  C   UNL d   1      52.198  34.146  52.233  0.00  0.00     0.025 A 
ATOM     10  C   UNL d   1      50.945  34.524  52.741  0.00  0.00     0.000 A 
ATOM     11  C   UNL d   1      51.598  34.695  52.312  0.00  0.00     0.002 A 
ENDROOT
BRANCH   1  12
ATOM     12  C   UNL d   1      53.271  31.478  52.851  0.00  0.00     0.302 C 
ATOM     13  N   UNL d   1      53.939  31.506  53.334  0.00  0.00    -0.206 NA
ATOM     14  O   UNL d   1      53.167  30.860  52.299  0.00  0.00    -0.263 OA
BRANCH  13  15
ATOM     15  C   UNL d   1      54.020  32.121  53.869  0.00  0.00     0.085 A 
ATOM     16  C   UNL d   1      54.612  32.685  53.757  0.00  0.00     0.018 A 
ATOM     17  C   UNL d   1      54.708  33.304  54.279  0.00  0.00     0.002 A 
ATOM     18  C   UNL d   1      55.131  32.618  53.086  0.00  0.00     0.002 C 
ATOM     19  C   UNL d   1      54.207  33.367  54.925  0.00  0.00     0.000 A 
ATOM     20  C   UNL d   1      53.613  32.807  55.044  0.00  0.00     0.002 A 
ATOM     21  C   UNL d   1      54.293  34.003  55.476  0.00  0.00     0.000 C 
ATOM     22  C   UNL d   1      53.530  32.190  54.509  0.00  0.00     0.019 A 
ENDBRANCH  13  15
ENDBRANCH   1  12
TORSDOF 2
ENDMDL
MODEL 5
REMARK VINA RESULT:      -9.1      1.848      3.313
REMARK  2 active torsions:
REMARK  status: ('A' for Active; 'I' for Inactive)
REMARK    1  A    between atoms: C_5  and  C_1 
REMARK       I    between atoms: N_7  and  C_5 
REMARK    2  A    between atoms: C_9  and  N_7 
ROOT
ATOM      1  C   UNL d   1      53.165  32.708  53.156  0.00  0.00     0.161 A 
ATOM      2  C   UNL d   1      53.916  32.718  52.878  0.00  0.00     0.072 A 
ATOM      3  O   UNL d   1      53.004  32.886  53.982  0.00  0.00    -0.302 OA
ATOM      4  C   UNL d   1      54.547  32.897  53.367  0.00  0.00     0.200 A 
ATOM      5  C   UNL d   1      54.416  33.073  54.170  0.00  0.00     0.062 A 
ATOM      6  C   UNL d   1      53.659  33.065  54.460  0.00  0.00     0.103 A 
ATOM      7  O   UNL d   1      55.318  32.899  53.044  0.00  0.00    -0.286 OA
ATOM      8  C   UNL d   1      55.052  33.258  54.681  0.00  0.00     0.005 A 
ATOM      9  C   UNL d   1      53.527  33.244  55.277  0.00  0.00     0.025 A 
ATOM     10  C   UNL d   1      54.904  33.430  55.478  0.00  0.00     0.000 A 
ATOM     11  C   UNL d   1      54.157  33.422  55.765  0.00  0.00     0.002 A 
ENDROOT
BRANCH   1  12
ATOM     12  C   UNL d   1      52.536  32.514  52.606  0.00  0.00     0.302 C 
ATOM     13  N   UNL d   1      52.291  31.733  52.505  0.00  0.00    -0.206 NA
ATOM     14  O   UNL d   1      52.177  33.134  52.175  0.00  0.00    -0.263 OA
BRANCH  13  15
ATOM     15  C   UNL d   1      52.657  31.140  52.937  0.00  0.00     0.085 A 
ATOM     16  C   UNL d   1      52.218  30.696  53.477  0.00  0.00     0.018 A 
ATOM     17  C   UNL d   1      52.565  30.103  53.915  0.00  0.00     0.002 A 
ATOM     18  C   UNL d   1      51.389  30.861  53.576  0.00  0.00     0.002 C 
ATOM     19  C   UNL d   1      53.364  29.946  53.817  0.00  0.00     0.000 A 
ATOM     20  C   UNL d   1      53.809  30.386  53.280  0.00  0.00     0.002 A 
ATOM     21  C   UNL d   1      53.739  29.334  54.264  0.00  0.00     0.000 C 
ATOM     22  C   UNL d   1      53.444  30.979  52.847  0.00  0.00     0.019 A 
ENDBRANCH  13  15
ENDBRANCH   1  12
TORSDOF 2
ENDMDL
MODEL 6
REMARK VINA RESULT:      -8.2      1.454      2.845
REMARK  2 active torsions:
REMARK  status: ('A' for Active; 'I' for Inactive)
REMARK    1  A    between atoms: C_5  and  C_1 
REMARK       I    between atoms: N_7  and  C_5 
REMARK    2  A    between atoms: C_9  and  N_7 
ROOT
ATOM      1  C   UNL d   1      52.383  33.304  52.758  0.00  0.00     0.161 A 
ATOM      2  C   UNL d   1      51.710  33.126  53.153  0.00  0.00     0.072 A 
ATOM      3  O   UNL d   1      52.943  32.684  52.552  0.00  0.00    -0.302 OA
ATOM      4  C   UNL d   1      51.536  32.358  53.371  0.00  0.00     0.200 A 
ATOM      5  C   UNL d   1      52.062  31.741  53.183  0.00  0.00     0.062 A 
ATOM      6  C   UNL d   1      52.746  31.911  52.783  0.00  0.00     0.103 A 
ATOM      7  O   UNL d   1      50.823  32.208  53.783  0.00  0.00    -0.286 OA
ATOM      8  C   UNL d   1      51.896  30.950  53.401  0.00  0.00     0.005 A 
ATOM      9  C   UNL d   1      53.282  31.283  52.593  0.00  0.00     0.025 A 
ATOM     10  C   UNL d   1      52.432  30.348  53.205  0.00  0.00     0.000 A 
ATOM     11  C   UNL d   1      53.107  30.515  52.811  0.00  0.00     0.002 A 
ENDROOT
BRANCH   1  12
ATOM     12  C   UNL d   1      52.523  34.125  52.550  0.00  0.00     0.302 C 
ATOM     13  N   UNL d   1      53.031  34.592  53.001  0.00  0.00    -0.206 NA
ATOM     14  O   UNL d   1      52.133  34.439  51.881  0.00  0.00    -0.263 OA
BRANCH  13  15
ATOM     15  C   UNL d   1      53.403  34.263  53.653  0.00  0.00     0.085 A 
ATOM     16  C   UNL d   1      53.213  34.529  54.411  0.00  0.00     0.018 A 
ATOM     17  C   UNL d   1      53.572  34.214  55.071  0.00  0.00     0.002 A 
ATOM     18  C   UNL d   1      52.631  35.144  54.503  0.00  0.00     0.002 C 
ATOM     19  C   UNL d   1      54.133  33.622  54.979  0.00  0.00     0.000 A 
ATOM     20  C   UNL d   1      54.328  33.350  54.225  0.00  0.00     0.002 A 
ATOM     21  C   UNL d   1      54.514  33.284  55.654  0.00  0.00     0.000 C 
ATOM     22  C   UNL d   1      53.957  33.679  53.572  0.00  0.00     0.019 A 
ENDBRANCH  13  15
ENDBRANCH   1  12
TORSDOF 2
ENDMDL
