MODEL 1
REMARK VINA RESULT:      58.4      0.000      0.000
REMARK  8 active torsions:
REMARK  status: ('A' for Active; 'I' for Inactive)
REMARK    1  A    between atoms: C_4  and  C_1 
REMARK    2  A    between atoms: C_11  and  N_3 
REMARK    3  A    between atoms: N_7  and  C_4 
REMARK    4  A    between atoms: C_9  and  C_4 
REMARK       I    between atoms: C_8  and  N_7 
REMARK    5  A    between atoms: C_12  and  C_9 
REMARK    6  A    between atoms: C_18  and  C_11 
REMARK    7  A    between atoms: C_20  and  C_18 
REMARK    8  A    between atoms: C_19  and  C_20 
ROOT
ATOM      1  C   UNL d   1     -57.322 -99.576 -43.991  0.00  0.00     0.166 A 
ATOM      2  N   UNL d   1     -57.662 -99.643 -43.239  0.00  0.00    -0.225 NA
ATOM      3  N   UNL d   1     -57.886 -99.259 -44.499  0.00  0.00    -0.288 N 
ATOM      4  C   UNL d   1     -58.579 -99.127 -44.067  0.00  0.00     0.083 A 
ATOM      5  C   UNL d   1     -58.433 -99.367 -43.286  0.00  0.00     0.099 A 
ATOM      6  C   UNL d   1     -59.309 -98.824 -44.282  0.00  0.00     0.019 A 
ATOM      7  C   UNL d   1     -59.028 -99.301 -42.722  0.00  0.00     0.021 A 
ATOM      8  C   UNL d   1     -59.908 -98.756 -43.719  0.00  0.00     0.002 A 
ATOM      9  C   UNL d   1     -59.770 -98.994 -42.935  0.00  0.00     0.002 A 
ENDROOT
BRANCH   1  10
ATOM     10  C   UNL d   1     -56.548 -99.791 -44.197  0.00  0.00     0.119 C 
BRANCH  10  11
ATOM     11  N   UNL d   1     -55.915 -99.530 -43.742  0.00  0.00    -0.205 NA
ATOM     12  C   UNL d   1     -55.349 -99.024 -44.067  0.00  0.00     0.280 C 
ATOM     13  O   UNL d   1     -54.715 -98.763 -43.611  0.00  0.00    -0.265 OA
ATOM     14  C   UNL d   1     -55.417 -98.776 -44.857  0.00  0.00     0.068 C 
ENDBRANCH  10  11
BRANCH  10  15
ATOM     15  C   UNL d   1     -56.413-100.265 -44.855  0.00  0.00     0.022 C 
BRANCH  15  16
ATOM     16  C   UNL d   1     -55.980-100.958 -44.784  0.00  0.00     0.002 A 
ATOM     17  C   UNL d   1     -56.324-101.638 -44.474  0.00  0.00     0.000 A 
ATOM     18  C   UNL d   1     -55.888-102.334 -44.403  0.00  0.00     0.000 A 
ATOM     19  C   UNL d   1     -55.102-102.350 -44.645  0.00  0.00     0.000 A 
ATOM     20  C   UNL d   1     -54.752-101.665 -44.959  0.00  0.00     0.000 A 
ATOM     21  C   UNL d   1     -55.193-100.974 -45.026  0.00  0.00     0.000 A 
ENDBRANCH  15  16
ENDBRANCH  10  15
ENDBRANCH   1  10
BRANCH   3  22
ATOM     22  C   UNL d   1     -57.780 -99.099 -45.305  0.00  0.00     0.082 C 
BRANCH  22  23
ATOM     23  C   UNL d   1     -58.371 -99.299 -45.847  0.00  0.00     0.019 C 
BRANCH  23  24
ATOM     24  C   UNL d   1     -58.961 -98.757 -46.044  0.00  0.00     0.002 C 
BRANCH  24  25
ATOM     25  C   UNL d   1     -59.676 -99.035 -46.361  0.00  0.00     0.000 C 
ATOM     26  C   UNL d   1     -59.696 -99.328 -47.141  0.00  0.00     0.000 C 
ENDBRANCH  24  25
ENDBRANCH  23  24
ENDBRANCH  22  23
ENDBRANCH   3  22
TORSDOF 8
ENDMDL
