MODEL 1
REMARK VINA RESULT:      11.3      0.000      0.000
REMARK  3 active torsions:
REMARK  status: ('A' for Active; 'I' for Inactive)
REMARK    1  A    between atoms: C_2  and  S_1 
REMARK    2  A    between atoms: N_3  and  S_1 
REMARK    3  A    between atoms: N_4  and  C_6 
ROOT
ATOM      1  C   UNL d   1     -51.239  24.983  33.319  0.00  0.00     0.116 A 
ATOM      2  C   UNL d   1     -51.252  25.816  33.323  0.00  0.00     0.037 A 
ATOM      3  C   UNL d   1     -50.544  26.227  33.318  0.00  0.00     0.127 A 
ATOM      4  C   UNL d   1     -50.514  24.573  33.311  0.00  0.00     0.070 A 
ATOM      5  C   UNL d   1     -49.802  25.805  33.309  0.00  0.00     0.024 A 
ATOM      6  C   UNL d   1     -49.805  24.995  33.306  0.00  0.00     0.014 A 
ATOM      7 CL   UNL d   1     -50.553  23.812  33.308  0.00  0.00    -0.082 Cl
ENDROOT
BRANCH   1   8
ATOM      8  S   UNL d   1     -51.973  24.559  33.324  0.00  0.00     0.273 S 
ATOM      9  O   UNL d   1     -51.563  23.838  33.339  0.00  0.00    -0.200 OA
ATOM     10  O   UNL d   1     -52.403  25.296  33.309  0.00  0.00    -0.200 OA
BRANCH   8  11
ATOM     11  N   UNL d   1     -52.687  24.163  33.328  0.00  0.00    -0.210 N 
ATOM     12  C   UNL d   1     -52.813  23.304  33.343  0.00  0.00     0.193 A 
ATOM     13  N   UNL d   1     -53.643  23.189  33.342  0.00  0.00    -0.222 NA
ATOM     14  C   UNL d   1     -54.015  23.949  33.328  0.00  0.00     0.120 A 
ATOM     15  C   UNL d   1     -53.415  24.514  33.320  0.00  0.00     0.114 A 
ENDBRANCH   8  11
ENDBRANCH   1   8
BRANCH   3  16
ATOM     16  N   UNL d   1     -50.564  27.043  33.321  0.00  0.00    -0.114 N 
ATOM     17  O   UNL d   1     -51.226  27.500  33.314  0.00  0.00    -0.532 OA
ATOM     18  O   UNL d   1     -49.883  27.507  33.334  0.00  0.00    -0.532 OA
ENDBRANCH   3  16
TORSDOF 3
ENDMDL
MODEL 2
REMARK VINA RESULT:      12.5      1.220      3.350
REMARK  3 active torsions:
REMARK  status: ('A' for Active; 'I' for Inactive)
REMARK    1  A    between atoms: C_2  and  S_1 
REMARK    2  A    between atoms: N_3  and  S_1 
REMARK    3  A    between atoms: N_4  and  C_6 
ROOT
ATOM      1  C   UNL d   1     -51.600  24.998  33.349  0.00  0.00     0.116 A 
ATOM      2  C   UNL d   1     -52.418  24.839  33.370  0.00  0.00     0.037 A 
ATOM      3  C   UNL d   1     -52.675  24.063  33.373  0.00  0.00     0.127 A 
ATOM      4  C   UNL d   1     -51.050  24.372  33.330  0.00  0.00     0.070 A 
ATOM      5  C   UNL d   1     -52.110  23.423  33.353  0.00  0.00     0.024 A 
ATOM      6  C   UNL d   1     -51.318  23.592  33.333  0.00  0.00     0.014 A 
ATOM      7 CL   UNL d   1     -50.314  24.566  33.311  0.00  0.00    -0.082 Cl
ENDROOT
BRANCH   1   8
ATOM      8  S   UNL d   1     -51.336  25.803  33.346  0.00  0.00     0.273 S 
ATOM      9  O   UNL d   1     -50.546  25.549  33.348  0.00  0.00    -0.200 OA
ATOM     10  O   UNL d   1     -52.145  26.073  33.344  0.00  0.00    -0.200 OA
BRANCH   8  11
ATOM     11  N   UNL d   1     -51.094  26.583  33.344  0.00  0.00    -0.210 N 
ATOM     12  C   UNL d   1     -51.596  27.290  33.306  0.00  0.00     0.193 A 
ATOM     13  N   UNL d   1     -51.076  27.948  33.319  0.00  0.00    -0.222 NA
ATOM     14  C   UNL d   1     -50.283  27.656  33.365  0.00  0.00     0.120 A 
ATOM     15  C   UNL d   1     -50.326  26.833  33.378  0.00  0.00     0.114 A 
ENDBRANCH   8  11
ENDBRANCH   1   8
BRANCH   3  16
ATOM     16  N   UNL d   1     -53.478  23.914  33.394  0.00  0.00    -0.114 N 
ATOM     17  O   UNL d   1     -53.822  23.195  33.500  0.00  0.00    -0.532 OA
ATOM     18  O   UNL d   1     -54.045  24.505  33.306  0.00  0.00    -0.532 OA
ENDBRANCH   3  16
TORSDOF 3
ENDMDL
