MODEL 1
REMARK VINA RESULT:      14.8      0.000      0.000
REMARK  5 active torsions:
REMARK  status: ('A' for Active; 'I' for Inactive)
REMARK    1  A    between atoms: C_2  and  S_1 
REMARK    2  A    between atoms: N_3  and  S_1 
REMARK    3  A    between atoms: C_4  and  N_3 
REMARK    4  A    between atoms: O_16  and  C_9 
REMARK    5  A    between atoms: O_17  and  C_14 
ROOT
ATOM      1  C   UNL d   1      13.573  12.532  -3.434  0.00  0.00     0.118 A 
ATOM      2  C   UNL d   1      13.800  13.247  -3.092  0.00  0.00     0.046 A 
ATOM      3  C   UNL d   1      13.187  12.528  -4.161  0.00  0.00     0.113 A 
ATOM      4  C   UNL d   1      13.028  13.240  -4.550  0.00  0.00     0.028 A 
ATOM      5  C   UNL d   1      13.643  13.958  -3.476  0.00  0.00     0.096 A 
ATOM      6  C   UNL d   1      13.255  13.955  -4.207  0.00  0.00     0.026 A 
ENDROOT
BRANCH   1   7
ATOM      7  N   UNL d   1      13.730  11.807  -3.048  0.00  0.00    -0.156 NA
BRANCH   7   8
ATOM      8  S   UNL d   1      13.919  11.800  -2.233  0.00  0.00     0.291 S 
ATOM      9  O   UNL d   1      14.721  11.790  -2.426  0.00  0.00    -0.198 OA
ATOM     10  O   UNL d   1      13.115  11.809  -2.047  0.00  0.00    -0.198 OA
BRANCH   8  11
ATOM     11  C   UNL d   1      14.108  11.792  -1.430  0.00  0.00     0.135 A 
ATOM     12  S   UNL d   1      13.575  11.799  -0.941  0.00  0.00    -0.073 SA
ATOM     13  C   UNL d   1      13.753  11.793  -0.238  0.00  0.00     0.036 A 
ATOM     14  C   UNL d   1      14.445  11.780  -0.032  0.00  0.00     0.008 A 
ATOM     15  C   UNL d   1      14.793  11.779  -1.222  0.00  0.00     0.020 A 
ENDBRANCH   8  11
ENDBRANCH   7   8
ENDBRANCH   1   7
BRANCH   3  16
ATOM     16  O   UNL d   1      12.960  11.813  -4.504  0.00  0.00    -0.327 OA
ATOM     17  C   UNL d   1      12.774  11.779  -5.305  0.00  0.00     0.181 C 
ENDBRANCH   3  16
BRANCH   5  18
ATOM     18  O   UNL d   1      13.871  14.673  -3.133  0.00  0.00    -0.328 OA
ATOM     19  C   UNL d   1      14.053  15.319  -3.610  0.00  0.00     0.181 C 
ENDBRANCH   5  18
TORSDOF 5
ENDMDL
