MODEL 1
REMARK VINA RESULT:      30.1      0.000      0.000
REMARK  4 active torsions:
REMARK  status: ('A' for Active; 'I' for Inactive)
REMARK    1  A    between atoms: S_9  and  C_3 
REMARK    2  A    between atoms: C_12  and  S_9 
REMARK    3  A    between atoms: C_11  and  C_12 
REMARK    4  A    between atoms: O_16  and  C_11 
ROOT
ATOM      1  C   UNL d   1      14.282  12.436  -1.719  0.00  0.00     0.155 A 
ATOM      2  C   UNL d   1      14.262  13.114  -2.196  0.00  0.00     0.107 A 
ATOM      3  C   UNL d   1      15.022  13.819  -1.217  0.00  0.00     0.182 A 
ATOM      4  N   UNL d   1      15.044  13.151  -0.743  0.00  0.00    -0.250 N 
ATOM      5  N   UNL d   1      14.634  13.810  -1.943  0.00  0.00    -0.220 NA
ATOM      6  C   UNL d   1      14.671  12.454  -0.998  0.00  0.00     0.285 A 
ATOM      7  N   UNL d   1      13.871  11.837  -2.108  0.00  0.00    -0.239 NA
ATOM      8  C   UNL d   1      13.840  12.938  -2.879  0.00  0.00     0.037 A 
ATOM      9  C   UNL d   1      13.595  12.142  -2.827  0.00  0.00     0.083 A 
ATOM     10  O   UNL d   1      14.696  11.780  -0.514  0.00  0.00    -0.265 OA
ATOM     11  C   UNL d   1      15.437  13.171  -0.014  0.00  0.00     0.104 C 
ATOM     12  C   UNL d   1      13.642  13.384  -3.541  0.00  0.00     0.003 A 
ATOM     13  C   UNL d   1      13.154  11.802  -3.440  0.00  0.00     0.019 A 
ATOM     14  C   UNL d   1      13.201  13.044  -4.153  0.00  0.00     0.000 A 
ATOM     15  C   UNL d   1      12.960  12.258  -4.100  0.00  0.00     0.002 A 
ENDROOT
BRANCH   3  16
ATOM     16  S   UNL d   1      15.394  14.511  -0.962  0.00  0.00    -0.044 SA
BRANCH  16  17
ATOM     17  C   UNL d   1      14.946  15.163  -0.727  0.00  0.00     0.095 C 
ATOM     18  C   UNL d   1      14.320  15.065  -0.202  0.00  0.00     0.013 C 
BRANCH  17  19
ATOM     19  C   UNL d   1      15.131  15.910  -1.024  0.00  0.00     0.302 C 
ATOM     20  O   UNL d   1      15.736  16.341  -0.701  0.00  0.00    -0.259 OA
BRANCH  19  21
ATOM     21  O   UNL d   1      14.697  16.225  -1.656  0.00  0.00    -0.295 OA
ATOM     22  C   UNL d   1      14.896  16.967  -1.969  0.00  0.00     0.185 C 
ENDBRANCH  19  21
ENDBRANCH  17  19
ENDBRANCH  16  17
ENDBRANCH   3  16
TORSDOF 4
ENDMDL
