MODEL 1
REMARK VINA RESULT:      69.2      0.000      0.000
REMARK  8 active torsions:
REMARK  status: ('A' for Active; 'I' for Inactive)
REMARK    1  A    between atoms: C_8  and  N_1 
REMARK    2  A    between atoms: C_6  and  C_2 
REMARK    3  A    between atoms: S_7  and  C_4 
REMARK    4  A    between atoms: C_12  and  S_7 
REMARK    5  A    between atoms: C_9  and  C_12 
REMARK    6  A    between atoms: O_14  and  C_9 
REMARK    7  A    between atoms: O_16  and  C_13 
REMARK    8  A    between atoms: C_21  and  O_14 
ROOT
ATOM      1  N   UNL d   1     -50.010  26.887  34.486  0.00  0.00    -0.269 N 
ATOM      2  C   UNL d   1     -50.087  26.493  33.769  0.00  0.00     0.171 A 
ATOM      3  N   UNL d   1     -49.430  26.716  33.306  0.00  0.00    -0.128 NA
ATOM      4  C   UNL d   1     -49.321  27.342  34.461  0.00  0.00     0.201 A 
ATOM      5  N   UNL d   1     -48.964  27.226  33.710  0.00  0.00    -0.121 NA
ENDROOT
BRANCH   2   6
ATOM      6  C   UNL d   1     -50.703  26.002  33.618  0.00  0.00     0.038 A 
ATOM      7  C   UNL d   1     -50.589  25.186  33.584  0.00  0.00     0.027 A 
ATOM      8  C   UNL d   1     -51.184  24.675  33.435  0.00  0.00     0.094 A 
ATOM      9  C   UNL d   1     -51.964  24.974  33.306  0.00  0.00     0.024 A 
ATOM     10  C   UNL d   1     -52.079  25.790  33.339  0.00  0.00     0.002 A 
ATOM     11  C   UNL d   1     -51.445  26.295  33.495  0.00  0.00     0.003 A 
BRANCH   8  12
ATOM     12  O   UNL d   1     -51.033  23.843  33.407  0.00  0.00    -0.328 OA
ATOM     13  C   UNL d   1     -51.670  23.321  33.340  0.00  0.00     0.181 C 
ENDBRANCH   8  12
ENDBRANCH   2   6
BRANCH   1  14
ATOM     14  C   UNL d   1     -50.604  26.753  35.048  0.00  0.00     0.067 A 
ATOM     15  C   UNL d   1     -50.399  26.416  35.768  0.00  0.00     0.018 A 
ATOM     16  C   UNL d   1     -50.998  26.284  36.328  0.00  0.00     0.002 A 
ATOM     17  C   UNL d   1     -51.785  26.482  36.178  0.00  0.00     0.000 A 
ATOM     18  C   UNL d   1     -51.986  26.822  35.449  0.00  0.00     0.002 A 
ATOM     19  C   UNL d   1     -51.386  26.954  34.889  0.00  0.00     0.018 A 
ENDBRANCH   1  14
BRANCH   4  20
ATOM     20  S   UNL d   1     -49.032  27.839  35.092  0.00  0.00    -0.042 SA
BRANCH  20  21
ATOM     21  C   UNL d   1     -48.463  28.430  34.971  0.00  0.00     0.107 C 
BRANCH  21  22
ATOM     22  C   UNL d   1     -48.197  28.896  35.590  0.00  0.00     0.307 C 
ATOM     23  O   UNL d   1     -48.517  28.833  36.360  0.00  0.00    -0.258 OA
BRANCH  22  24
ATOM     24  O   UNL d   1     -47.593  29.446  35.445  0.00  0.00    -0.271 OA
BRANCH  24  25
ATOM     25  C   UNL d   1     -47.602  30.201  35.796  0.00  0.00     0.126 C 
ATOM     26  C   UNL d   1     -46.991  30.745  35.662  0.00  0.00     0.029 C 
ENDBRANCH  24  25
ENDBRANCH  22  24
ENDBRANCH  21  22
ENDBRANCH  20  21
ENDBRANCH   4  20
TORSDOF 8
ENDMDL
MODEL 2
REMARK VINA RESULT:      70.6      2.201      5.873
REMARK  8 active torsions:
REMARK  status: ('A' for Active; 'I' for Inactive)
REMARK    1  A    between atoms: C_8  and  N_1 
REMARK    2  A    between atoms: C_6  and  C_2 
REMARK    3  A    between atoms: S_7  and  C_4 
REMARK    4  A    between atoms: C_12  and  S_7 
REMARK    5  A    between atoms: C_9  and  C_12 
REMARK    6  A    between atoms: O_14  and  C_9 
REMARK    7  A    between atoms: O_16  and  C_13 
REMARK    8  A    between atoms: C_21  and  O_14 
ROOT
ATOM      1  N   UNL d   1     -48.707  29.941  34.311  0.00  0.00    -0.269 N 
ATOM      2  C   UNL d   1     -48.788  30.727  34.089  0.00  0.00     0.171 A 
ATOM      3  N   UNL d   1     -49.425  30.755  33.551  0.00  0.00    -0.128 NA
ATOM      4  C   UNL d   1     -49.282  29.498  33.918  0.00  0.00     0.201 A 
ATOM      5  N   UNL d   1     -49.730  30.024  33.440  0.00  0.00    -0.121 NA
ENDROOT
BRANCH   2   6
ATOM      6  C   UNL d   1     -48.308  31.302  34.376  0.00  0.00     0.038 A 
ATOM      7  C   UNL d   1     -48.039  31.906  33.883  0.00  0.00     0.027 A 
ATOM      8  C   UNL d   1     -47.561  32.492  34.142  0.00  0.00     0.094 A 
ATOM      9  C   UNL d   1     -47.317  32.498  34.952  0.00  0.00     0.024 A 
ATOM     10  C   UNL d   1     -47.585  31.894  35.445  0.00  0.00     0.002 A 
ATOM     11  C   UNL d   1     -48.079  31.303  35.149  0.00  0.00     0.003 A 
BRANCH   8  12
ATOM     12  O   UNL d   1     -47.303  33.096  33.611  0.00  0.00    -0.328 OA
ATOM     13  C   UNL d   1     -47.850  33.652  33.337  0.00  0.00     0.181 C 
ENDBRANCH   8  12
ENDBRANCH   2   6
BRANCH   1  14
ATOM     14  C   UNL d   1     -48.101  29.769  34.851  0.00  0.00     0.067 A 
ATOM     15  C   UNL d   1     -47.345  29.626  34.564  0.00  0.00     0.018 A 
ATOM     16  C   UNL d   1     -46.742  29.454  35.109  0.00  0.00     0.002 A 
ATOM     17  C   UNL d   1     -46.885  29.424  35.921  0.00  0.00     0.000 A 
ATOM     18  C   UNL d   1     -47.651  29.570  36.204  0.00  0.00     0.002 A 
ATOM     19  C   UNL d   1     -48.254  29.742  35.659  0.00  0.00     0.018 A 
ENDBRANCH   1  14
BRANCH   4  20
ATOM     20  S   UNL d   1     -49.394  28.654  33.991  0.00  0.00    -0.042 SA
BRANCH  20  21
ATOM     21  C   UNL d   1     -49.976  28.242  33.568  0.00  0.00     0.107 C 
BRANCH  21  22
ATOM     22  C   UNL d   1     -49.959  27.425  33.509  0.00  0.00     0.307 C 
ATOM     23  O   UNL d   1     -49.259  27.009  33.318  0.00  0.00    -0.258 OA
BRANCH  22  24
ATOM     24  O   UNL d   1     -50.659  27.001  33.643  0.00  0.00    -0.271 OA
BRANCH  24  25
ATOM     25  C   UNL d   1     -50.725  26.197  33.435  0.00  0.00     0.126 C 
ATOM     26  C   UNL d   1     -51.464  25.845  33.306  0.00  0.00     0.029 C 
ENDBRANCH  24  25
ENDBRANCH  22  24
ENDBRANCH  21  22
ENDBRANCH  20  21
ENDBRANCH   4  20
TORSDOF 8
ENDMDL
