MODEL 1
REMARK VINA RESULT:      73.9      0.000      0.000
REMARK  6 active torsions:
REMARK  status: ('A' for Active; 'I' for Inactive)
REMARK    1  A    between atoms: O_8  and  C_2 
REMARK    2  A    between atoms: C_10  and  C_5 
REMARK    3  A    between atoms: C_21  and  O_8 
REMARK    4  A    between atoms: N_9  and  C_10 
REMARK    5  A    between atoms: C_12  and  C_15 
REMARK    6  A    between atoms: O_26  and  C_12 
ROOT
ATOM      1  C   UNL d   1     -51.226  25.557  33.308  0.00  0.00     0.108 A 
ATOM      2  C   UNL d   1     -50.568  27.083  33.307  0.00  0.00     0.161 A 
ATOM      3  C   UNL d   1     -50.394  25.656  33.308  0.00  0.00     0.064 A 
ATOM      4  C   UNL d   1     -50.069  26.409  33.307  0.00  0.00     0.222 A 
ATOM      5  C   UNL d   1     -51.555  24.795  33.309  0.00  0.00     0.079 A 
ATOM      6  O   UNL d   1     -51.728  26.218  33.307  0.00  0.00    -0.305 OA
ATOM      7  C   UNL d   1     -51.392  26.985  33.307  0.00  0.00     0.126 A 
ATOM      8  C   UNL d   1     -49.908  24.981  33.309  0.00  0.00     0.009 A 
ATOM      9  C   UNL d   1     -51.065  24.133  33.309  0.00  0.00     0.199 A 
ATOM     10  O   UNL d   1     -49.249  26.510  33.307  0.00  0.00    -0.284 OA
ATOM     11  C   UNL d   1     -50.237  24.227  33.309  0.00  0.00     0.042 A 
ATOM     12  O   UNL d   1     -51.387  23.380  33.310  0.00  0.00    -0.286 OA
ATOM     13  C   UNL d   1     -51.881  27.648  33.306  0.00  0.00     0.029 C 
ENDROOT
BRANCH   2  14
ATOM     14  O   UNL d   1     -50.238  27.837  33.306  0.00  0.00    -0.302 OA
BRANCH  14  15
ATOM     15  C   UNL d   1     -49.712  28.056  33.900  0.00  0.00     0.100 A 
ATOM     16  C   UNL d   1     -49.841  27.808  34.674  0.00  0.00     0.025 A 
ATOM     17  C   UNL d   1     -49.316  28.027  35.268  0.00  0.00     0.007 A 
ATOM     18  C   UNL d   1     -48.660  28.494  35.088  0.00  0.00     0.063 A 
ATOM     19  C   UNL d   1     -48.533  28.743  34.301  0.00  0.00     0.007 A 
ATOM     20  C   UNL d   1     -49.058  28.523  33.716  0.00  0.00     0.025 A 
BRANCH  18  21
ATOM     21  C   UNL d   1     -48.130  28.716  35.681  0.00  0.00     0.296 C 
ATOM     22  O   UNL d   1     -48.408  28.951  36.422  0.00  0.00    -0.259 OA
BRANCH  21  23
ATOM     23  O   UNL d   1     -47.316  28.705  35.541  0.00  0.00    -0.296 OA
ATOM     24  C   UNL d   1     -46.882  29.403  35.609  0.00  0.00     0.185 C 
ENDBRANCH  21  23
ENDBRANCH  18  21
ENDBRANCH  14  15
ENDBRANCH   2  14
BRANCH   5  25
ATOM     25  C   UNL d   1     -52.366  24.704  33.309  0.00  0.00     0.086 C 
BRANCH  25  26
ATOM     26  N   UNL d   1     -52.739  24.325  33.943  0.00  0.00    -0.300 N 
ATOM     27  C   UNL d   1     -52.444  24.416  34.708  0.00  0.00     0.100 A 
ATOM     28  C   UNL d   1     -52.815  24.040  35.336  0.00  0.00     0.100 A 
ATOM     29  N   UNL d   1     -53.478  23.573  35.208  0.00  0.00    -0.299 N 
ATOM     30  C   UNL d   1     -53.775  23.482  34.439  0.00  0.00     0.100 A 
ATOM     31  C   UNL d   1     -53.854  23.192  35.843  0.00  0.00     0.100 C 
ATOM     32  C   UNL d   1     -53.402  23.860  33.805  0.00  0.00     0.100 A 
ENDBRANCH  25  26
ENDBRANCH   5  25
TORSDOF 6
ENDMDL
