MODEL 1
REMARK VINA RESULT:      25.2      0.000      0.000
REMARK  1 active torsions:
REMARK  status: ('A' for Active; 'I' for Inactive)
REMARK    1  A    between atoms: C_7  and  C_5 
ROOT
ATOM      1  C   UNL d   1      13.672  13.378  -3.353  0.00  0.00     0.110 A 
ATOM      2  C   UNL d   1      13.897  14.698  -3.394  0.00  0.00     0.332 A 
ATOM      3  C   UNL d   1      13.450  13.656  -4.095  0.00  0.00     0.060 A 
ATOM      4  S   UNL d   1      13.587  14.467  -4.124  0.00  0.00    -0.018 SA
ATOM      5  C   UNL d   1      13.598  12.580  -3.159  0.00  0.00     0.027 A 
ATOM      6  O   UNL d   1      13.950  14.024  -2.917  0.00  0.00    -0.268 OA
ATOM      7  C   UNL d   1      13.145  13.113  -4.656  0.00  0.00     0.051 A 
ATOM      8  C   UNL d   1      13.298  12.048  -3.714  0.00  0.00     0.044 A 
ATOM      9  O   UNL d   1      14.118  15.464  -3.173  0.00  0.00    -0.251 OA
ATOM     10  C   UNL d   1      13.071  12.315  -4.463  0.00  0.00     0.196 A 
ATOM     11  O   UNL d   1      12.769  11.779  -5.018  0.00  0.00    -0.286 OA
ENDROOT
BRANCH   5  12
ATOM     12  C   UNL d   1      13.825  12.313  -2.410  0.00  0.00     0.004 A 
ATOM     13  C   UNL d   1      13.256  12.184  -1.827  0.00  0.00     0.030 A 
ATOM     14  C   UNL d   1      13.483  11.917  -1.078  0.00  0.00     0.140 A 
ATOM     15  F   UNL d   1      12.915  11.788  -0.491  0.00  0.00    -0.204 F 
ATOM     16  C   UNL d   1      14.279  11.779  -0.913  0.00  0.00     0.030 A 
ATOM     17  C   UNL d   1      14.849  11.907  -1.496  0.00  0.00     0.002 A 
ATOM     18  C   UNL d   1      14.622  12.174  -2.245  0.00  0.00     0.000 A 
ENDBRANCH   5  12
TORSDOF 1
ENDMDL
