MODEL 1
REMARK VINA RESULT:      62.2      0.000      0.000
REMARK  3 active torsions:
REMARK  status: ('A' for Active; 'I' for Inactive)
REMARK    1  A    between atoms: C_4  and  C_8 
REMARK    2  A    between atoms: N_13  and  C_7 
REMARK       I    between atoms: C_8  and  N_12 
REMARK    3  A    between atoms: N_12  and  N_13 
ROOT
ATOM      1  C   UNL d   1      59.601  49.614  50.696  0.00  0.00     0.297 C 
ATOM      2  N   UNL d   1      58.806  49.577  50.933  0.00  0.00    -0.104 NA
ATOM      3  O   UNL d   1      59.784  49.705  49.892  0.00  0.00    -0.264 OA
ENDROOT
BRANCH   2   4
ATOM      4  N   UNL d   1      58.204  49.632  50.377  0.00  0.00    -0.125 NA
BRANCH   4   5
ATOM      5  C   UNL d   1      57.480  49.261  50.514  0.00  0.00     0.190 A 
ATOM      6  C   UNL d   1      57.414  48.450  50.425  0.00  0.00     0.094 A 
ATOM      7  C   UNL d   1      56.690  48.079  50.561  0.00  0.00     0.170 A 
ATOM      8  C   UNL d   1      57.969  47.871  50.208  0.00  0.00     0.127 A 
ATOM      9  N   UNL d   1      56.794  47.266  50.429  0.00  0.00    -0.209 N 
ATOM     10  N   UNL d   1      56.035  48.521  50.786  0.00  0.00    -0.205 NA
ATOM     11  C   UNL d   1      56.205  46.684  50.504  0.00  0.00     0.123 C 
ATOM     12  N   UNL d   1      57.581  47.139  50.211  0.00  0.00    -0.162 NA
ATOM     13  C   UNL d   1      56.105  49.334  50.875  0.00  0.00     0.202 A 
ATOM     14  N   UNL d   1      56.833  49.707  50.737  0.00  0.00    -0.203 NA
ENDBRANCH   4   5
ENDBRANCH   2   4
BRANCH   1  15
ATOM     15  C   UNL d   1      60.207  49.559  51.253  0.00  0.00     0.070 A 
ATOM     16  C   UNL d   1      60.965  49.359  51.016  0.00  0.00     0.063 A 
ATOM     17  C   UNL d   1      61.571  49.303  51.569  0.00  0.00     0.023 A 
ATOM     18 CL   UNL d   1      61.115  49.212  50.214  0.00  0.00    -0.082 Cl
ATOM     19  C   UNL d   1      61.412  49.452  52.373  0.00  0.00     0.059 A 
ATOM     20  C   UNL d   1      60.642  49.655  52.611  0.00  0.00     0.012 A 
ATOM     21 CL   UNL d   1      62.021  49.398  52.935  0.00  0.00    -0.082 Cl
ATOM     22  C   UNL d   1      60.044  49.708  52.052  0.00  0.00     0.007 A 
ENDBRANCH   1  15
TORSDOF 3
ENDMDL
