MODEL 1
REMARK VINA RESULT:      34.0      0.000      0.000
REMARK  2 active torsions:
REMARK  status: ('A' for Active; 'I' for Inactive)
REMARK    1  A    between atoms: N_5  and  C_1 
REMARK    2  A    between atoms: C_8  and  C_4 
ROOT
ATOM      1  C   UNL d   1     -57.750 -98.855 -44.680  0.00  0.00     0.166 A 
ATOM      2  N   UNL d   1     -57.040 -98.875 -45.066  0.00  0.00    -0.225 NA
ATOM      3  N   UNL d   1     -57.026 -98.866 -43.452  0.00  0.00    -0.241 NA
ATOM      4  C   UNL d   1     -57.743 -98.851 -43.858  0.00  0.00     0.116 A 
ATOM      5  C   UNL d   1     -56.321 -98.891 -44.692  0.00  0.00     0.101 A 
ATOM      6  C   UNL d   1     -56.314 -98.887 -43.870  0.00  0.00     0.099 A 
ATOM      7  C   UNL d   1     -55.609 -98.911 -45.078  0.00  0.00     0.021 A 
ATOM      8  C   UNL d   1     -55.596 -98.902 -43.464  0.00  0.00     0.021 A 
ATOM      9  C   UNL d   1     -54.913 -98.922 -43.882  0.00  0.00     0.002 A 
ATOM     10  C   UNL d   1     -54.920 -98.926 -44.704  0.00  0.00     0.002 A 
ENDROOT
BRANCH   1  11
ATOM     11  N   UNL d   1     -58.466 -98.839 -45.054  0.00  0.00    -0.284 N 
ATOM     12  C   UNL d   1     -58.472 -98.791 -45.881  0.00  0.00     0.108 A 
ATOM     13  C   UNL d   1     -59.212 -98.774 -46.277  0.00  0.00     0.142 A 
ATOM     14  O   UNL d   1     -59.906 -98.805 -45.840  0.00  0.00    -0.300 OA
ATOM     15  C   UNL d   1     -59.882 -98.853 -45.024  0.00  0.00     0.142 A 
ATOM     16  C   UNL d   1     -59.168 -98.871 -44.609  0.00  0.00     0.108 A 
ENDBRANCH   1  11
BRANCH   4  17
ATOM     17  C   UNL d   1     -58.453 -98.831 -43.441  0.00  0.00     0.021 A 
ATOM     18  C   UNL d   1     -59.170 -98.778 -43.846  0.00  0.00     0.002 A 
ATOM     19  C   UNL d   1     -59.882 -98.758 -43.428  0.00  0.00     0.000 A 
ATOM     20  C   UNL d   1     -59.876 -98.791 -42.604  0.00  0.00     0.000 A 
ATOM     21  C   UNL d   1     -59.159 -98.843 -42.197  0.00  0.00     0.000 A 
ATOM     22  C   UNL d   1     -58.447 -98.863 -42.616  0.00  0.00     0.002 A 
ENDBRANCH   4  17
TORSDOF 2
ENDMDL
