MODEL 1
REMARK VINA RESULT:      -7.8      0.000      0.000
REMARK  4 active torsions:
REMARK  status: ('A' for Active; 'I' for Inactive)
REMARK    1  A    between atoms: C_2  and  N_1 
REMARK    2  A    between atoms: N_7  and  C_3 
REMARK    3  A    between atoms: C_12  and  N_7 
REMARK    4  A    between atoms: C_13  and  C_12 
ROOT
ATOM      1  C   UNL d   1      53.899  33.829  54.480  0.00  0.00     0.200 A 
ATOM      2  C   UNL d   1      53.428  33.427  53.921  0.00  0.00     0.189 A 
ATOM      3  C   UNL d   1      54.608  33.502  54.708  0.00  0.00     0.210 A 
ATOM      4  N   UNL d   1      53.681  32.709  53.605  0.00  0.00    -0.203 NA
ATOM      5  N   UNL d   1      54.870  32.796  54.407  0.00  0.00    -0.202 NA
ATOM      6  C   UNL d   1      54.399  32.394  53.848  0.00  0.00     0.202 A 
ATOM      7  N   UNL d   1      55.079  33.904  55.267  0.00  0.00    -0.125 N 
ENDROOT
BRANCH   2   8
ATOM      8  N   UNL d   1      52.713  33.738  53.678  0.00  0.00    -0.224 NA
BRANCH   8   9
ATOM      9  C   UNL d   1      52.252  33.345  53.131  0.00  0.00     0.101 C 
BRANCH   9  10
ATOM     10  C   UNL d   1      51.545  33.681  52.863  0.00  0.00     0.019 A 
ATOM     11  C   UNL d   1      51.526  34.083  52.135  0.00  0.00     0.002 A 
ATOM     12  C   UNL d   1      50.820  34.418  51.870  0.00  0.00     0.000 A 
ATOM     13  C   UNL d   1      50.149  34.357  52.315  0.00  0.00     0.000 A 
ATOM     14  C   UNL d   1      50.162  33.959  53.038  0.00  0.00     0.000 A 
ATOM     15  C   UNL d   1      49.444  34.689  52.054  0.00  0.00     0.000 C 
ATOM     16  C   UNL d   1      50.873  33.620  53.308  0.00  0.00     0.002 A 
ENDBRANCH   9  10
ENDBRANCH   8   9
ENDBRANCH   2   8
BRANCH   1  17
ATOM     17  N   UNL d   1      53.653  34.542  54.796  0.00  0.00    -0.107 N 
ATOM     18  O   UNL d   1      53.247  34.544  55.499  0.00  0.00    -0.531 OA
ATOM     19  O   UNL d   1      53.817  35.244  54.405  0.00  0.00    -0.531 OA
ENDBRANCH   1  17
TORSDOF 4
ENDMDL
MODEL 2
REMARK VINA RESULT:      -7.8      1.863      3.476
REMARK  4 active torsions:
REMARK  status: ('A' for Active; 'I' for Inactive)
REMARK    1  A    between atoms: C_2  and  N_1 
REMARK    2  A    between atoms: N_7  and  C_3 
REMARK    3  A    between atoms: C_12  and  N_7 
REMARK    4  A    between atoms: C_13  and  C_12 
ROOT
ATOM      1  C   UNL d   1      52.944  34.012  53.814  0.00  0.00     0.200 A 
ATOM      2  C   UNL d   1      52.705  33.360  53.352  0.00  0.00     0.189 A 
ATOM      3  C   UNL d   1      52.656  34.752  53.631  0.00  0.00     0.210 A 
ATOM      4  N   UNL d   1      52.185  33.465  52.721  0.00  0.00    -0.203 NA
ATOM      5  N   UNL d   1      52.144  34.871  53.014  0.00  0.00    -0.202 NA
ATOM      6  C   UNL d   1      51.906  34.219  52.553  0.00  0.00     0.202 A 
ATOM      7  N   UNL d   1      52.895  35.404  54.093  0.00  0.00    -0.125 N 
ENDROOT
BRANCH   2   8
ATOM      8  N   UNL d   1      52.982  32.610  53.518  0.00  0.00    -0.224 NA
BRANCH   8   9
ATOM      9  C   UNL d   1      52.844  31.992  53.002  0.00  0.00     0.101 C 
BRANCH   9  10
ATOM     10  C   UNL d   1      52.972  31.210  53.244  0.00  0.00     0.019 A 
ATOM     11  C   UNL d   1      52.330  30.682  53.297  0.00  0.00     0.002 A 
ATOM     12  C   UNL d   1      52.459  29.905  53.539  0.00  0.00     0.000 A 
ATOM     13  C   UNL d   1      53.205  29.654  53.724  0.00  0.00     0.000 A 
ATOM     14  C   UNL d   1      53.844  30.173  53.674  0.00  0.00     0.000 A 
ATOM     15  C   UNL d   1      53.336  28.880  53.966  0.00  0.00     0.000 C 
ATOM     16  C   UNL d   1      53.717  30.960  53.430  0.00  0.00     0.002 A 
ENDBRANCH   9  10
ENDBRANCH   8   9
ENDBRANCH   2   8
BRANCH   1  17
ATOM     17  N   UNL d   1      53.460  33.913  54.440  0.00  0.00    -0.107 N 
ATOM     18  O   UNL d   1      53.159  33.760  55.179  0.00  0.00    -0.531 OA
ATOM     19  O   UNL d   1      54.269  33.969  54.320  0.00  0.00    -0.531 OA
ENDBRANCH   1  17
TORSDOF 4
ENDMDL
MODEL 3
REMARK VINA RESULT:      -7.6      1.718      2.243
REMARK  4 active torsions:
REMARK  status: ('A' for Active; 'I' for Inactive)
REMARK    1  A    between atoms: C_2  and  N_1 
REMARK    2  A    between atoms: N_7  and  C_3 
REMARK    3  A    between atoms: C_12  and  N_7 
REMARK    4  A    between atoms: C_13  and  C_12 
ROOT
ATOM      1  C   UNL d   1      53.111  31.949  53.332  0.00  0.00     0.200 A 
ATOM      2  C   UNL d   1      52.892  32.753  53.343  0.00  0.00     0.189 A 
ATOM      3  C   UNL d   1      53.789  31.719  53.720  0.00  0.00     0.210 A 
ATOM      4  N   UNL d   1      53.356  33.305  53.742  0.00  0.00    -0.203 NA
ATOM      5  N   UNL d   1      54.256  32.250  54.116  0.00  0.00    -0.202 NA
ATOM      6  C   UNL d   1      54.036  33.054  54.127  0.00  0.00     0.202 A 
ATOM      7  N   UNL d   1      54.008  30.914  53.709  0.00  0.00    -0.125 N 
ENDROOT
BRANCH   2   8
ATOM      8  N   UNL d   1      52.215  33.005  52.961  0.00  0.00    -0.224 NA
BRANCH   8   9
ATOM      9  C   UNL d   1      51.998  33.793  52.976  0.00  0.00     0.101 C 
BRANCH   9  10
ATOM     10  C   UNL d   1      51.277  34.031  52.645  0.00  0.00     0.019 A 
ATOM     11  C   UNL d   1      50.620  34.167  53.137  0.00  0.00     0.002 A 
ATOM     12  C   UNL d   1      49.903  34.405  52.806  0.00  0.00     0.000 A 
ATOM     13  C   UNL d   1      49.837  34.507  52.007  0.00  0.00     0.000 A 
ATOM     14  C   UNL d   1      50.486  34.373  51.515  0.00  0.00     0.000 A 
ATOM     15  C   UNL d   1      49.124  34.744  51.674  0.00  0.00     0.000 C 
ATOM     16  C   UNL d   1      51.211  34.133  51.846  0.00  0.00     0.002 A 
ENDBRANCH   9  10
ENDBRANCH   8   9
ENDBRANCH   2   8
BRANCH   1  17
ATOM     17  N   UNL d   1      52.654  31.397  52.938  0.00  0.00    -0.107 N 
ATOM     18  O   UNL d   1      52.824  31.224  52.163  0.00  0.00    -0.531 OA
ATOM     19  O   UNL d   1      52.033  31.026  53.325  0.00  0.00    -0.531 OA
ENDBRANCH   1  17
TORSDOF 4
ENDMDL
MODEL 4
REMARK VINA RESULT:      -5.3      3.257      4.484
REMARK  4 active torsions:
REMARK  status: ('A' for Active; 'I' for Inactive)
REMARK    1  A    between atoms: C_2  and  N_1 
REMARK    2  A    between atoms: N_7  and  C_3 
REMARK    3  A    between atoms: C_12  and  N_7 
REMARK    4  A    between atoms: C_13  and  C_12 
ROOT
ATOM      1  C   UNL d   1      53.158  29.982  53.690  0.00  0.00     0.200 A 
ATOM      2  C   UNL d   1      53.174  30.791  53.488  0.00  0.00     0.189 A 
ATOM      3  C   UNL d   1      52.671  29.480  53.272  0.00  0.00     0.210 A 
ATOM      4  N   UNL d   1      52.702  31.076  52.874  0.00  0.00    -0.203 NA
ATOM      5  N   UNL d   1      52.202  29.745  52.667  0.00  0.00    -0.202 NA
ATOM      6  C   UNL d   1      52.217  30.554  52.465  0.00  0.00     0.202 A 
ATOM      7  N   UNL d   1      52.656  28.671  53.474  0.00  0.00    -0.125 N 
ENDROOT
BRANCH   2   8
ATOM      8  N   UNL d   1      53.655  31.312  53.893  0.00  0.00    -0.224 NA
BRANCH   8   9
ATOM      9  C   UNL d   1      53.586  32.117  53.779  0.00  0.00     0.101 C 
BRANCH   9  10
ATOM     10  C   UNL d   1      54.081  32.640  54.188  0.00  0.00     0.019 A 
ATOM     11  C   UNL d   1      53.892  32.865  54.967  0.00  0.00     0.002 A 
ATOM     12  C   UNL d   1      54.386  33.386  55.373  0.00  0.00     0.000 A 
ATOM     13  C   UNL d   1      55.051  33.677  55.019  0.00  0.00     0.000 A 
ATOM     14  C   UNL d   1      55.243  33.456  54.247  0.00  0.00     0.000 A 
ATOM     15  C   UNL d   1      55.545  34.195  55.421  0.00  0.00     0.000 C 
ATOM     16  C   UNL d   1      54.746  32.931  53.834  0.00  0.00     0.002 A 
ENDBRANCH   9  10
ENDBRANCH   8   9
ENDBRANCH   2   8
BRANCH   1  17
ATOM     17  N   UNL d   1      53.624  29.694  54.297  0.00  0.00    -0.107 N 
ATOM     18  O   UNL d   1      53.311  29.643  55.045  0.00  0.00    -0.531 OA
ATOM     19  O   UNL d   1      54.396  29.461  54.148  0.00  0.00    -0.531 OA
ENDBRANCH   1  17
TORSDOF 4
ENDMDL
MODEL 5
REMARK VINA RESULT:      -5.2      2.214      3.121
REMARK  4 active torsions:
REMARK  status: ('A' for Active; 'I' for Inactive)
REMARK    1  A    between atoms: C_2  and  N_1 
REMARK    2  A    between atoms: N_7  and  C_3 
REMARK    3  A    between atoms: C_12  and  N_7 
REMARK    4  A    between atoms: C_13  and  C_12 
ROOT
ATOM      1  C   UNL d   1      53.405  31.342  53.564  0.00  0.00     0.200 A 
ATOM      2  C   UNL d   1      52.911  31.979  53.350  0.00  0.00     0.189 A 
ATOM      3  C   UNL d   1      53.225  30.595  53.296  0.00  0.00     0.210 A 
ATOM      4  N   UNL d   1      52.250  31.851  52.874  0.00  0.00    -0.203 NA
ATOM      5  N   UNL d   1      52.578  30.453  52.827  0.00  0.00    -0.202 NA
ATOM      6  C   UNL d   1      52.084  31.090  52.614  0.00  0.00     0.202 A 
ATOM      7  N   UNL d   1      53.719  29.957  53.510  0.00  0.00    -0.125 N 
ENDROOT
BRANCH   2   8
ATOM      8  N   UNL d   1      53.074  32.737  53.608  0.00  0.00    -0.224 NA
BRANCH   8   9
ATOM      9  C   UNL d   1      52.535  33.339  53.496  0.00  0.00     0.101 C 
BRANCH   9  10
ATOM     10  C   UNL d   1      52.699  34.102  53.775  0.00  0.00     0.019 A 
ATOM     11  C   UNL d   1      52.693  34.254  54.593  0.00  0.00     0.002 A 
ATOM     12  C   UNL d   1      52.856  35.014  54.869  0.00  0.00     0.000 A 
ATOM     13  C   UNL d   1      53.022  35.609  54.348  0.00  0.00     0.000 A 
ATOM     14  C   UNL d   1      53.029  35.464  53.536  0.00  0.00     0.000 A 
ATOM     15  C   UNL d   1      53.185  36.367  54.620  0.00  0.00     0.000 C 
ATOM     16  C   UNL d   1      52.864  34.697  53.255  0.00  0.00     0.002 A 
ENDBRANCH   9  10
ENDBRANCH   8   9
ENDBRANCH   2   8
BRANCH   1  17
ATOM     17  N   UNL d   1      54.062  31.463  54.036  0.00  0.00    -0.107 N 
ATOM     18  O   UNL d   1      54.762  31.686  53.689  0.00  0.00    -0.531 OA
ATOM     19  O   UNL d   1      54.010  31.360  54.848  0.00  0.00    -0.531 OA
ENDBRANCH   1  17
TORSDOF 4
ENDMDL
