MODEL 1
REMARK VINA RESULT:     -10.1      0.000      0.000
REMARK  5 active torsions:
REMARK  status: ('A' for Active; 'I' for Inactive)
REMARK    1  A    between atoms: C_2  and  S_1 
REMARK    2  A    between atoms: N_3  and  S_1 
REMARK    3  A    between atoms: C_21  and  N_8 
REMARK    4  A    between atoms: O_26  and  C_16 
REMARK    5  A    between atoms: C_19  and  C_21 
ROOT
ATOM      1  N   UNL d   1      51.413  33.944  52.978  0.00  0.00    -0.226 N 
ATOM      2  N   UNL d   1      49.980  34.213  52.204  0.00  0.00    -0.300 N 
ATOM      3  C   UNL d   1      50.699  33.667  53.306  0.00  0.00     0.111 A 
ATOM      4  C   UNL d   1      51.398  34.353  52.264  0.00  0.00     0.111 A 
ATOM      5  C   UNL d   1      49.989  33.806  52.912  0.00  0.00     0.100 A 
ATOM      6  C   UNL d   1      50.694  34.490  51.876  0.00  0.00     0.100 A 
ENDROOT
BRANCH   1   7
ATOM      7  S   UNL d   1      52.120  33.805  53.370  0.00  0.00     0.271 S 
ATOM      8  O   UNL d   1      52.545  34.096  52.726  0.00  0.00    -0.200 OA
ATOM      9  O   UNL d   1      51.694  33.511  54.019  0.00  0.00    -0.200 OA
BRANCH   7  10
ATOM     10  C   UNL d   1      52.824  33.664  53.765  0.00  0.00     0.104 A 
ATOM     11  C   UNL d   1      53.215  32.942  53.682  0.00  0.00     0.014 A 
ATOM     12  C   UNL d   1      53.925  32.803  54.081  0.00  0.00     0.023 A 
ATOM     13  C   UNL d   1      52.892  32.356  53.197  0.00  0.00     0.001 A 
ATOM     14  C   UNL d   1      54.310  32.093  54.000  0.00  0.00     0.002 A 
ATOM     15  C   UNL d   1      54.249  33.390  54.566  0.00  0.00     0.094 A 
ATOM     16  C   UNL d   1      53.995  31.501  53.517  0.00  0.00     0.000 A 
ATOM     17  C   UNL d   1      53.283  31.636  53.116  0.00  0.00     0.000 A 
ATOM     18  C   UNL d   1      53.861  34.111  54.650  0.00  0.00     0.025 A 
ATOM     19  C   UNL d   1      53.150  34.255  54.254  0.00  0.00     0.015 A 
BRANCH  15  20
ATOM     20  O   UNL d   1      54.950  33.253  54.961  0.00  0.00    -0.328 OA
ATOM     21  C   UNL d   1      55.286  33.846  55.414  0.00  0.00     0.181 C 
ENDBRANCH  15  20
ENDBRANCH   7  10
ENDBRANCH   1   7
BRANCH   2  22
ATOM     22  C   UNL d   1      49.270  34.354  51.809  0.00  0.00     0.080 C 
BRANCH  22  23
ATOM     23  C   UNL d   1      48.751  34.941  52.066  0.00  0.00     0.020 A 
ATOM     24  C   UNL d   1      48.773  35.203  52.837  0.00  0.00     0.028 A 
ATOM     25  C   UNL d   1      48.256  35.789  53.093  0.00  0.00     0.119 A 
ATOM     26  O   UNL d   1      48.151  36.156  53.824  0.00  0.00    -0.300 OA
ATOM     27  C   UNL d   1      47.707  36.116  52.558  0.00  0.00     0.119 A 
ATOM     28  C   UNL d   1      47.542  36.707  53.745  0.00  0.00     0.304 A 
ATOM     29  O   UNL d   1      47.272  36.680  52.968  0.00  0.00    -0.300 OA
ATOM     30  C   UNL d   1      47.689  35.848  51.782  0.00  0.00     0.026 A 
ATOM     31  C   UNL d   1      48.202  35.268  51.531  0.00  0.00     0.004 A 
ENDBRANCH  22  23
ENDBRANCH   2  22
TORSDOF 5
ENDMDL
MODEL 2
REMARK VINA RESULT:     -10.1      1.010      5.737
REMARK  5 active torsions:
REMARK  status: ('A' for Active; 'I' for Inactive)
REMARK    1  A    between atoms: C_2  and  S_1 
REMARK    2  A    between atoms: N_3  and  S_1 
REMARK    3  A    between atoms: C_21  and  N_8 
REMARK    4  A    between atoms: O_26  and  C_16 
REMARK    5  A    between atoms: C_19  and  C_21 
ROOT
ATOM      1  N   UNL d   1      50.850  34.089  52.844  0.00  0.00    -0.226 N 
ATOM      2  N   UNL d   1      52.281  33.272  52.939  0.00  0.00    -0.300 N 
ATOM      3  C   UNL d   1      51.552  34.437  52.561  0.00  0.00     0.111 A 
ATOM      4  C   UNL d   1      50.875  33.334  53.171  0.00  0.00     0.111 A 
ATOM      5  C   UNL d   1      52.262  34.020  52.613  0.00  0.00     0.100 A 
ATOM      6  C   UNL d   1      51.578  32.924  53.221  0.00  0.00     0.100 A 
ENDROOT
BRANCH   1   7
ATOM      7  S   UNL d   1      50.144  34.503  52.792  0.00  0.00     0.271 S 
ATOM      8  O   UNL d   1      50.554  35.199  52.623  0.00  0.00    -0.200 OA
ATOM      9  O   UNL d   1      49.730  33.805  52.962  0.00  0.00    -0.200 OA
BRANCH   7  10
ATOM     10  C   UNL d   1      49.436  34.914  52.742  0.00  0.00     0.104 A 
ATOM     11  C   UNL d   1      48.985  34.889  52.051  0.00  0.00     0.014 A 
ATOM     12  C   UNL d   1      48.272  35.304  52.003  0.00  0.00     0.023 A 
ATOM     13  C   UNL d   1      49.250  34.445  51.406  0.00  0.00     0.001 A 
ATOM     14  C   UNL d   1      47.828  35.279  51.323  0.00  0.00     0.002 A 
ATOM     15  C   UNL d   1      48.007  35.748  52.648  0.00  0.00     0.094 A 
ATOM     16  C   UNL d   1      48.084  34.839  50.673  0.00  0.00     0.000 A 
ATOM     17  C   UNL d   1      48.798  34.421  50.718  0.00  0.00     0.000 A 
ATOM     18  C   UNL d   1      48.456  35.775  53.338  0.00  0.00     0.025 A 
ATOM     19  C   UNL d   1      49.169  35.362  53.392  0.00  0.00     0.015 A 
BRANCH  15  20
ATOM     20  O   UNL d   1      47.303  36.158  52.600  0.00  0.00    -0.328 OA
ATOM     21  C   UNL d   1      47.068  36.638  53.220  0.00  0.00     0.181 C 
ENDBRANCH  15  20
ENDBRANCH   7  10
ENDBRANCH   1   7
BRANCH   2  22
ATOM     22  C   UNL d   1      52.991  32.854  52.991  0.00  0.00     0.080 C 
BRANCH  22  23
ATOM     23  C   UNL d   1      53.454  32.891  53.672  0.00  0.00     0.020 A 
ATOM     24  C   UNL d   1      53.888  33.559  53.841  0.00  0.00     0.028 A 
ATOM     25  C   UNL d   1      54.350  33.594  54.521  0.00  0.00     0.119 A 
ATOM     26  O   UNL d   1      54.838  34.183  54.830  0.00  0.00    -0.300 OA
ATOM     27  C   UNL d   1      54.372  32.942  55.038  0.00  0.00     0.119 A 
ATOM     28  C   UNL d   1      55.161  33.899  55.534  0.00  0.00     0.304 A 
ATOM     29  O   UNL d   1      54.873  33.138  55.659  0.00  0.00    -0.300 OA
ATOM     30  C   UNL d   1      53.932  32.271  54.863  0.00  0.00     0.026 A 
ATOM     31  C   UNL d   1      53.476  32.238  54.189  0.00  0.00     0.004 A 
ENDBRANCH  22  23
ENDBRANCH   2  22
TORSDOF 5
ENDMDL
MODEL 3
REMARK VINA RESULT:      -9.4      1.524      2.574
REMARK  5 active torsions:
REMARK  status: ('A' for Active; 'I' for Inactive)
REMARK    1  A    between atoms: C_2  and  S_1 
REMARK    2  A    between atoms: N_3  and  S_1 
REMARK    3  A    between atoms: C_21  and  N_8 
REMARK    4  A    between atoms: O_26  and  C_16 
REMARK    5  A    between atoms: C_19  and  C_21 
ROOT
ATOM      1  N   UNL d   1      49.725  34.692  52.702  0.00  0.00    -0.226 N 
ATOM      2  N   UNL d   1      48.451  35.708  52.437  0.00  0.00    -0.300 N 
ATOM      3  C   UNL d   1      49.402  34.771  51.939  0.00  0.00     0.111 A 
ATOM      4  C   UNL d   1      49.404  35.126  53.324  0.00  0.00     0.111 A 
ATOM      5  C   UNL d   1      48.766  35.280  51.816  0.00  0.00     0.100 A 
ATOM      6  C   UNL d   1      48.774  35.629  53.201  0.00  0.00     0.100 A 
ENDROOT
BRANCH   1   7
ATOM      7  S   UNL d   1      50.358  34.185  52.824  0.00  0.00     0.271 S 
ATOM      8  O   UNL d   1      50.142  34.092  53.615  0.00  0.00    -0.200 OA
ATOM      9  O   UNL d   1      50.576  34.277  52.029  0.00  0.00    -0.200 OA
BRANCH   7  10
ATOM     10  C   UNL d   1      50.991  33.679  52.943  0.00  0.00     0.104 A 
ATOM     11  C   UNL d   1      51.734  33.976  53.148  0.00  0.00     0.014 A 
ATOM     12  C   UNL d   1      52.370  33.463  53.267  0.00  0.00     0.023 A 
ATOM     13  C   UNL d   1      51.837  34.791  53.235  0.00  0.00     0.001 A 
ATOM     14  C   UNL d   1      53.100  33.755  53.469  0.00  0.00     0.002 A 
ATOM     15  C   UNL d   1      52.267  32.647  53.180  0.00  0.00     0.094 A 
ATOM     16  C   UNL d   1      53.214  34.569  53.559  0.00  0.00     0.000 A 
ATOM     17  C   UNL d   1      52.578  35.086  53.440  0.00  0.00     0.000 A 
ATOM     18  C   UNL d   1      51.527  32.348  52.975  0.00  0.00     0.025 A 
ATOM     19  C   UNL d   1      50.887  32.857  52.855  0.00  0.00     0.015 A 
BRANCH  15  20
ATOM     20  O   UNL d   1      52.895  32.140  53.298  0.00  0.00    -0.328 OA
ATOM     21  C   UNL d   1      52.818  31.345  53.120  0.00  0.00     0.181 C 
ENDBRANCH  15  20
ENDBRANCH   7  10
ENDBRANCH   1   7
BRANCH   2  22
ATOM     22  C   UNL d   1      47.814  36.218  52.315  0.00  0.00     0.080 C 
BRANCH  22  23
ATOM     23  C   UNL d   1      47.041  35.934  52.300  0.00  0.00     0.020 A 
ATOM     24  C   UNL d   1      46.615  35.857  52.990  0.00  0.00     0.028 A 
ATOM     25  C   UNL d   1      45.843  35.573  52.974  0.00  0.00     0.119 A 
ATOM     26  O   UNL d   1      45.289  35.438  53.570  0.00  0.00    -0.300 OA
ATOM     27  C   UNL d   1      45.497  35.363  52.247  0.00  0.00     0.119 A 
ATOM     28  C   UNL d   1      44.603  35.147  53.216  0.00  0.00     0.304 A 
ATOM     29  O   UNL d   1      44.734  35.102  52.405  0.00  0.00    -0.300 OA
ATOM     30  C   UNL d   1      45.931  35.442  51.553  0.00  0.00     0.026 A 
ATOM     31  C   UNL d   1      46.694  35.724  51.572  0.00  0.00     0.004 A 
ENDBRANCH  22  23
ENDBRANCH   2  22
TORSDOF 5
ENDMDL
MODEL 4
REMARK VINA RESULT:      -8.9      1.379      5.792
REMARK  5 active torsions:
REMARK  status: ('A' for Active; 'I' for Inactive)
REMARK    1  A    between atoms: C_2  and  S_1 
REMARK    2  A    between atoms: N_3  and  S_1 
REMARK    3  A    between atoms: C_21  and  N_8 
REMARK    4  A    between atoms: O_26  and  C_16 
REMARK    5  A    between atoms: C_19  and  C_21 
ROOT
ATOM      1  N   UNL d   1      50.937  34.245  52.914  0.00  0.00    -0.226 N 
ATOM      2  N   UNL d   1      52.415  33.527  53.072  0.00  0.00    -0.300 N 
ATOM      3  C   UNL d   1      51.116  33.797  53.593  0.00  0.00     0.111 A 
ATOM      4  C   UNL d   1      51.503  34.327  52.322  0.00  0.00     0.111 A 
ATOM      5  C   UNL d   1      51.857  33.442  53.663  0.00  0.00     0.100 A 
ATOM      6  C   UNL d   1      52.235  33.975  52.393  0.00  0.00     0.100 A 
ENDROOT
BRANCH   1   7
ATOM      7  S   UNL d   1      50.200  34.598  52.845  0.00  0.00     0.271 S 
ATOM      8  O   UNL d   1      49.831  33.872  52.972  0.00  0.00    -0.200 OA
ATOM      9  O   UNL d   1      50.571  35.330  52.716  0.00  0.00    -0.200 OA
BRANCH   7  10
ATOM     10  C   UNL d   1      49.465  34.954  52.775  0.00  0.00     0.104 A 
ATOM     11  C   UNL d   1      49.033  34.890  52.074  0.00  0.00     0.014 A 
ATOM     12  C   UNL d   1      48.292  35.250  52.007  0.00  0.00     0.023 A 
ATOM     13  C   UNL d   1      49.345  34.463  51.440  0.00  0.00     0.001 A 
ATOM     14  C   UNL d   1      47.867  35.187  51.318  0.00  0.00     0.002 A 
ATOM     15  C   UNL d   1      47.980  35.678  52.642  0.00  0.00     0.094 A 
ATOM     16  C   UNL d   1      48.170  34.762  50.677  0.00  0.00     0.000 A 
ATOM     17  C   UNL d   1      48.912  34.400  50.742  0.00  0.00     0.000 A 
ATOM     18  C   UNL d   1      48.410  35.743  53.342  0.00  0.00     0.025 A 
ATOM     19  C   UNL d   1      49.151  35.385  53.415  0.00  0.00     0.015 A 
BRANCH  15  20
ATOM     20  O   UNL d   1      47.249  36.033  52.575  0.00  0.00    -0.328 OA
ATOM     21  C   UNL d   1      46.965  36.502  53.184  0.00  0.00     0.181 C 
ENDBRANCH  15  20
ENDBRANCH   7  10
ENDBRANCH   1   7
BRANCH   2  22
ATOM     22  C   UNL d   1      53.157  33.172  53.141  0.00  0.00     0.080 C 
BRANCH  22  23
ATOM     23  C   UNL d   1      53.227  32.376  53.347  0.00  0.00     0.020 A 
ATOM     24  C   UNL d   1      52.935  31.795  52.856  0.00  0.00     0.028 A 
ATOM     25  C   UNL d   1      53.006  31.002  53.061  0.00  0.00     0.119 A 
ATOM     26  O   UNL d   1      52.769  30.308  52.684  0.00  0.00    -0.300 OA
ATOM     27  C   UNL d   1      53.379  30.793  53.776  0.00  0.00     0.119 A 
ATOM     28  C   UNL d   1      52.993  29.672  53.160  0.00  0.00     0.304 A 
ATOM     29  O   UNL d   1      53.367  29.974  53.829  0.00  0.00    -0.300 OA
ATOM     30  C   UNL d   1      53.672  31.384  54.267  0.00  0.00     0.026 A 
ATOM     31  C   UNL d   1      53.601  32.168  54.062  0.00  0.00     0.004 A 
ENDBRANCH  22  23
ENDBRANCH   2  22
TORSDOF 5
ENDMDL
