MODEL 1
REMARK VINA RESULT:      -4.6      0.000      0.000
REMARK  4 active torsions:
REMARK  status: ('A' for Active; 'I' for Inactive)
REMARK    1  A    between atoms: C_8  and  S_1 
REMARK    2  A    between atoms: C_2  and  C_10 
REMARK    3  A    between atoms: C_6  and  C_14 
REMARK       I    between atoms: N_9  and  C_6 
REMARK    4  A    between atoms: C_23  and  N_9 
ROOT
ATOM      1  C   UNL d   1     -47.033  12.880  22.830  0.00  0.00     0.024 A 
ATOM      2  C   UNL d   1     -46.874  13.523  22.353  0.00  0.00     0.004 A 
ATOM      3  C   UNL d   1     -46.420  12.419  23.128  0.00  0.00     0.004 A 
ATOM      4  C   UNL d   1     -45.473  13.255  22.465  0.00  0.00     0.085 A 
ATOM      5  C   UNL d   1     -45.637  12.603  22.948  0.00  0.00     0.019 A 
ATOM      6  C   UNL d   1     -46.093  13.714  22.168  0.00  0.00     0.019 A 
ENDROOT
BRANCH   4   7
ATOM      7  N   UNL d   1     -44.688  13.446  22.279  0.00  0.00    -0.208 NA
ATOM      8  C   UNL d   1     -44.326  13.090  21.631  0.00  0.00     0.279 C 
ATOM      9  O   UNL d   1     -44.732  12.547  21.167  0.00  0.00    -0.265 OA
BRANCH   8  10
ATOM     10  C   UNL d   1     -43.549  13.280  21.447  0.00  0.00     0.058 A 
ATOM     11  C   UNL d   1     -42.968  12.693  21.448  0.00  0.00     0.005 A 
ATOM     12  C   UNL d   1     -42.194  12.882  21.265  0.00  0.00     0.013 A 
ATOM     13  C   UNL d   1     -41.986  13.671  21.075  0.00  0.00     0.107 A 
ATOM     14  C   UNL d   1     -42.564  14.260  21.073  0.00  0.00     0.013 A 
ATOM     15  C   UNL d   1     -43.348  14.068  21.259  0.00  0.00     0.005 A 
BRANCH  13  16
ATOM     16  S   UNL d   1     -41.201  13.863  20.889  0.00  0.00     0.302 S 
ATOM     17  O   UNL d   1     -40.975  13.679  21.655  0.00  0.00    -0.197 OA
ATOM     18  O   UNL d   1     -41.441  14.045  20.120  0.00  0.00    -0.197 OA
ATOM     19  N   UNL d   1     -40.427  14.055  20.696  0.00  0.00    -0.043 N 
ENDBRANCH  13  16
ENDBRANCH   8  10
ENDBRANCH   4   7
BRANCH   1  20
ATOM     20  C   UNL d   1     -47.818  12.692  23.013  0.00  0.00     0.112 A 
ATOM     21  S   UNL d   1     -48.132  11.919  23.073  0.00  0.00    -0.047 SA
ATOM     22  C   UNL d   1     -48.938  11.987  23.266  0.00  0.00     0.130 A 
ATOM     23  N   UNL d   1     -49.525  11.422  23.395  0.00  0.00    -0.236 NA
ATOM     24  C   UNL d   1     -49.123  12.797  23.326  0.00  0.00     0.106 A 
ATOM     25  C   UNL d   1     -50.296  11.658  23.582  0.00  0.00     0.100 A 
ATOM     26  C   UNL d   1     -50.478  12.473  23.642  0.00  0.00     0.022 A 
ATOM     27  C   UNL d   1     -49.890  13.034  23.513  0.00  0.00     0.023 A 
ATOM     28  N   UNL d   1     -48.418  13.228  23.167  0.00  0.00    -0.237 NA
ENDBRANCH   1  20
TORSDOF 4
ENDMDL
MODEL 2
REMARK VINA RESULT:      -4.2      1.691      6.723
REMARK  4 active torsions:
REMARK  status: ('A' for Active; 'I' for Inactive)
REMARK    1  A    between atoms: C_8  and  S_1 
REMARK    2  A    between atoms: C_2  and  C_10 
REMARK    3  A    between atoms: C_6  and  C_14 
REMARK       I    between atoms: N_9  and  C_6 
REMARK    4  A    between atoms: C_23  and  N_9 
ROOT
ATOM      1  C   UNL d   1     -42.671  13.342  21.250  0.00  0.00     0.024 A 
ATOM      2  C   UNL d   1     -43.338  13.806  21.173  0.00  0.00     0.004 A 
ATOM      3  C   UNL d   1     -42.721  12.591  21.582  0.00  0.00     0.004 A 
ATOM      4  C   UNL d   1     -44.124  12.768  21.764  0.00  0.00     0.085 A 
ATOM      5  C   UNL d   1     -43.447  12.299  21.841  0.00  0.00     0.019 A 
ATOM      6  C   UNL d   1     -44.068  13.522  21.429  0.00  0.00     0.019 A 
ENDROOT
BRANCH   4   7
ATOM      7  N   UNL d   1     -44.859  12.482  22.022  0.00  0.00    -0.208 NA
ATOM      8  C   UNL d   1     -45.374  12.986  22.418  0.00  0.00     0.279 C 
ATOM      9  O   UNL d   1     -45.171  13.770  22.562  0.00  0.00    -0.265 OA
BRANCH   8  10
ATOM     10  C   UNL d   1     -46.101  12.703  22.674  0.00  0.00     0.058 A 
ATOM     11  C   UNL d   1     -46.138  12.151  23.287  0.00  0.00     0.005 A 
ATOM     12  C   UNL d   1     -46.862  11.869  23.541  0.00  0.00     0.013 A 
ATOM     13  C   UNL d   1     -47.570  12.137  23.182  0.00  0.00     0.107 A 
ATOM     14  C   UNL d   1     -47.536  12.688  22.569  0.00  0.00     0.013 A 
ATOM     15  C   UNL d   1     -46.802  12.974  22.311  0.00  0.00     0.005 A 
BRANCH  13  16
ATOM     16  S   UNL d   1     -48.304  11.851  23.439  0.00  0.00     0.302 S 
ATOM     17  O   UNL d   1     -48.098  11.098  23.190  0.00  0.00    -0.197 OA
ATOM     18  O   UNL d   1     -48.500  12.614  23.686  0.00  0.00    -0.197 OA
ATOM     19  N   UNL d   1     -49.033  11.576  23.697  0.00  0.00    -0.043 N 
ENDBRANCH  13  16
ENDBRANCH   8  10
ENDBRANCH   4   7
BRANCH   1  20
ATOM     20  C   UNL d   1     -41.940  13.632  20.991  0.00  0.00     0.112 A 
ATOM     21  S   UNL d   1     -41.315  13.884  21.486  0.00  0.00    -0.047 SA
ATOM     22  C   UNL d   1     -40.688  14.131  20.997  0.00  0.00     0.130 A 
ATOM     23  N   UNL d   1     -39.939  14.431  21.167  0.00  0.00    -0.236 NA
ATOM     24  C   UNL d   1     -40.924  14.032  20.204  0.00  0.00     0.106 A 
ATOM     25  C   UNL d   1     -39.422  14.633  20.553  0.00  0.00     0.100 A 
ATOM     26  C   UNL d   1     -39.663  14.532  19.758  0.00  0.00     0.022 A 
ATOM     27  C   UNL d   1     -40.411  14.233  19.592  0.00  0.00     0.023 A 
ATOM     28  N   UNL d   1     -41.705  13.720  20.212  0.00  0.00    -0.237 NA
ENDBRANCH   1  20
TORSDOF 4
ENDMDL
MODEL 3
REMARK VINA RESULT:      -3.8      1.736      3.011
REMARK  4 active torsions:
REMARK  status: ('A' for Active; 'I' for Inactive)
REMARK    1  A    between atoms: C_8  and  S_1 
REMARK    2  A    between atoms: C_2  and  C_10 
REMARK    3  A    between atoms: C_6  and  C_14 
REMARK       I    between atoms: N_9  and  C_6 
REMARK    4  A    between atoms: C_23  and  N_9 
ROOT
ATOM      1  C   UNL d   1     -44.265  12.828  21.950  0.00  0.00     0.024 A 
ATOM      2  C   UNL d   1     -44.169  13.478  21.466  0.00  0.00     0.004 A 
ATOM      3  C   UNL d   1     -43.639  12.312  22.086  0.00  0.00     0.004 A 
ATOM      4  C   UNL d   1     -42.805  13.107  21.244  0.00  0.00     0.085 A 
ATOM      5  C   UNL d   1     -42.905  12.448  21.735  0.00  0.00     0.019 A 
ATOM      6  C   UNL d   1     -43.439  13.621  21.110  0.00  0.00     0.019 A 
ENDROOT
BRANCH   4   7
ATOM      7  N   UNL d   1     -42.071  13.251  20.887  0.00  0.00    -0.208 NA
ATOM      8  C   UNL d   1     -41.709  13.983  20.985  0.00  0.00     0.279 C 
ATOM      9  O   UNL d   1     -42.065  14.573  21.433  0.00  0.00    -0.265 OA
BRANCH   8  10
ATOM     10  C   UNL d   1     -40.982  14.125  20.631  0.00  0.00     0.058 A 
ATOM     11  C   UNL d   1     -40.307  14.228  21.097  0.00  0.00     0.005 A 
ATOM     12  C   UNL d   1     -39.584  14.370  20.744  0.00  0.00     0.013 A 
ATOM     13  C   UNL d   1     -39.522  14.412  19.910  0.00  0.00     0.107 A 
ATOM     14  C   UNL d   1     -40.193  14.310  19.442  0.00  0.00     0.013 A 
ATOM     15  C   UNL d   1     -40.927  14.166  19.799  0.00  0.00     0.005 A 
BRANCH  13  16
ATOM     16  S   UNL d   1     -38.788  14.556  19.552  0.00  0.00     0.302 S 
ATOM     17  O   UNL d   1     -38.867  15.356  19.713  0.00  0.00    -0.197 OA
ATOM     18  O   UNL d   1     -38.720  13.749  19.396  0.00  0.00    -0.197 OA
ATOM     19  N   UNL d   1     -38.060  14.690  19.197  0.00  0.00    -0.043 N 
ENDBRANCH  13  16
ENDBRANCH   8  10
ENDBRANCH   4   7
BRANCH   1  20
ATOM     20  C   UNL d   1     -45.000  12.688  22.305  0.00  0.00     0.112 A 
ATOM     21  S   UNL d   1     -45.711  13.091  22.125  0.00  0.00    -0.047 SA
ATOM     22  C   UNL d   1     -46.310  12.776  22.610  0.00  0.00     0.130 A 
ATOM     23  N   UNL d   1     -47.113  12.951  22.679  0.00  0.00    -0.236 NA
ATOM     24  C   UNL d   1     -45.972  12.182  23.086  0.00  0.00     0.106 A 
ATOM     25  C   UNL d   1     -47.583  12.538  23.221  0.00  0.00     0.100 A 
ATOM     26  C   UNL d   1     -47.240  11.942  23.698  0.00  0.00     0.022 A 
ATOM     27  C   UNL d   1     -46.438  11.770  23.626  0.00  0.00     0.023 A 
ATOM     28  N   UNL d   1     -45.156  12.135  22.888  0.00  0.00    -0.237 NA
ENDBRANCH   1  20
TORSDOF 4
ENDMDL
MODEL 4
REMARK VINA RESULT:      -3.5      2.213      7.298
REMARK  4 active torsions:
REMARK  status: ('A' for Active; 'I' for Inactive)
REMARK    1  A    between atoms: C_8  and  S_1 
REMARK    2  A    between atoms: C_2  and  C_10 
REMARK    3  A    between atoms: C_6  and  C_14 
REMARK       I    between atoms: N_9  and  C_6 
REMARK    4  A    between atoms: C_23  and  N_9 
ROOT
ATOM      1  C   UNL d   1     -41.109  14.210  20.505  0.00  0.00     0.024 A 
ATOM      2  C   UNL d   1     -41.690  14.766  20.641  0.00  0.00     0.004 A 
ATOM      3  C   UNL d   1     -41.186  13.445  20.795  0.00  0.00     0.004 A 
ATOM      4  C   UNL d   1     -42.446  13.792  21.367  0.00  0.00     0.085 A 
ATOM      5  C   UNL d   1     -41.855  13.230  21.228  0.00  0.00     0.019 A 
ATOM      6  C   UNL d   1     -42.362  14.560  21.073  0.00  0.00     0.019 A 
ENDROOT
BRANCH   4   7
ATOM      7  N   UNL d   1     -43.121  13.585  21.802  0.00  0.00    -0.208 NA
ATOM      8  C   UNL d   1     -43.684  13.088  21.465  0.00  0.00     0.279 C 
ATOM      9  O   UNL d   1     -43.585  12.794  20.703  0.00  0.00    -0.265 OA
BRANCH   8  10
ATOM     10  C   UNL d   1     -44.352  12.883  21.895  0.00  0.00     0.058 A 
ATOM     11  C   UNL d   1     -44.349  12.206  22.368  0.00  0.00     0.005 A 
ATOM     12  C   UNL d   1     -45.014  12.002  22.796  0.00  0.00     0.013 A 
ATOM     13  C   UNL d   1     -45.703  12.478  22.757  0.00  0.00     0.107 A 
ATOM     14  C   UNL d   1     -45.710  13.154  22.286  0.00  0.00     0.013 A 
ATOM     15  C   UNL d   1     -45.035  13.361  21.852  0.00  0.00     0.005 A 
BRANCH  13  16
ATOM     16  S   UNL d   1     -46.378  12.271  23.191  0.00  0.00     0.302 S 
ATOM     17  O   UNL d   1     -46.841  12.721  22.686  0.00  0.00    -0.197 OA
ATOM     18  O   UNL d   1     -45.903  11.820  23.693  0.00  0.00    -0.197 OA
ATOM     19  N   UNL d   1     -47.042  12.061  23.627  0.00  0.00    -0.043 N 
ENDBRANCH  13  16
ENDBRANCH   8  10
ENDBRANCH   4   7
BRANCH   1  20
ATOM     20  C   UNL d   1     -40.436  14.421  20.071  0.00  0.00     0.112 A 
ATOM     21  S   UNL d   1     -39.741  14.763  20.387  0.00  0.00    -0.047 SA
ATOM     22  C   UNL d   1     -39.209  14.884  19.758  0.00  0.00     0.130 A 
ATOM     23  N   UNL d   1     -38.447  15.198  19.732  0.00  0.00    -0.236 NA
ATOM     24  C   UNL d   1     -39.573  14.619  19.057  0.00  0.00     0.106 A 
ATOM     25  C   UNL d   1     -38.044  15.251  19.011  0.00  0.00     0.100 A 
ATOM     26  C   UNL d   1     -38.412  14.984  18.309  0.00  0.00     0.022 A 
ATOM     27  C   UNL d   1     -39.173  14.671  18.339  0.00  0.00     0.023 A 
ATOM     28  N   UNL d   1     -40.337  14.333  19.263  0.00  0.00    -0.237 NA
ENDBRANCH   1  20
TORSDOF 4
ENDMDL
