MODEL 1
REMARK VINA RESULT:      77.1      0.000      0.000
REMARK  8 active torsions:
REMARK  status: ('A' for Active; 'I' for Inactive)
REMARK    1  A    between atoms: C_7  and  C_1 
REMARK    2  A    between atoms: N_5  and  C_2 
REMARK       I    between atoms: C_8  and  N_5 
REMARK    3  A    between atoms: N_9  and  C_7 
REMARK    4  A    between atoms: C_12  and  C_7 
REMARK    5  A    between atoms: C_10  and  C_8 
REMARK    6  A    between atoms: C_11  and  C_14 
REMARK    7  A    between atoms: O_25  and  C_11 
REMARK    8  A    between atoms: C_31  and  O_25 
ROOT
ATOM      1  C   UNL d   1     -50.464  26.239  33.855  0.00  0.00     0.068 C 
ENDROOT
BRANCH   1   2
ATOM      2  C   UNL d   1     -50.139  25.482  33.744  0.00  0.00     0.041 A 
ATOM      3  C   UNL d   1     -50.479  24.736  33.779  0.00  0.00     0.115 A 
ATOM      4  S   UNL d   1     -49.885  24.185  33.621  0.00  0.00    -0.068 SA
ATOM      5  C   UNL d   1     -49.186  24.599  33.490  0.00  0.00     0.031 A 
ATOM      6  C   UNL d   1     -49.339  25.418  33.566  0.00  0.00     0.009 A 
ATOM      7  C   UNL d   1     -48.446  24.248  33.311  0.00  0.00     0.007 C 
ATOM      8  C   UNL d   1     -48.794  26.031  33.480  0.00  0.00     0.001 C 
BRANCH   3   9
ATOM      9  N   UNL d   1     -51.287  24.549  33.945  0.00  0.00    -0.200 NA
ATOM     10  C   UNL d   1     -51.600  23.802  33.714  0.00  0.00     0.302 C 
ATOM     11  O   UNL d   1     -51.120  23.273  33.336  0.00  0.00    -0.263 OA
BRANCH  10  12
ATOM     12  C   UNL d   1     -52.398  23.631  33.884  0.00  0.00     0.158 A 
ATOM     13  O   UNL d   1     -52.831  23.727  34.583  0.00  0.00    -0.300 OA
ATOM     14  C   UNL d   1     -53.603  23.462  34.426  0.00  0.00     0.123 A 
ATOM     15  C   UNL d   1     -53.616  23.206  33.613  0.00  0.00     0.029 A 
ATOM     16  C   UNL d   1     -52.863  23.321  33.306  0.00  0.00     0.032 A 
ENDBRANCH  10  12
ENDBRANCH   3   9
ENDBRANCH   1   2
BRANCH   1  17
ATOM     17  N   UNL d   1     -50.001  26.878  34.156  0.00  0.00    -0.304 N 
ATOM     18  C   UNL d   1     -49.725  27.487  33.669  0.00  0.00     0.080 A 
ATOM     19  C   UNL d   1     -49.277  28.092  33.994  0.00  0.00     0.024 A 
ATOM     20  C   UNL d   1     -49.104  28.097  34.786  0.00  0.00     0.067 A 
ATOM     21  C   UNL d   1     -49.364  27.507  35.295  0.00  0.00     0.024 A 
ATOM     22  C   UNL d   1     -49.818  26.887  34.980  0.00  0.00     0.080 A 
BRANCH  20  23
ATOM     23  C   UNL d   1     -48.659  28.714  35.065  0.00  0.00     0.300 C 
ATOM     24  O   UNL d   1     -48.661  29.450  34.701  0.00  0.00    -0.259 OA
BRANCH  23  25
ATOM     25  O   UNL d   1     -48.174  28.634  35.740  0.00  0.00    -0.271 OA
BRANCH  25  26
ATOM     26  C   UNL d   1     -47.337  28.933  35.500  0.00  0.00     0.126 C 
ATOM     27  C   UNL d   1     -46.892  28.359  35.242  0.00  0.00     0.029 C 
ENDBRANCH  25  26
ENDBRANCH  23  25
ENDBRANCH  20  23
ENDBRANCH   1  17
BRANCH   1  28
ATOM     28  C   UNL d   1     -51.269  26.403  33.671  0.00  0.00     0.035 A 
ATOM     29  C   UNL d   1     -51.799  25.780  33.575  0.00  0.00     0.100 A 
ATOM     30  N   UNL d   1     -52.582  25.937  33.396  0.00  0.00    -0.242 NA
ATOM     31  C   UNL d   1     -52.848  26.765  33.310  0.00  0.00     0.099 A 
ATOM     32  C   UNL d   1     -52.272  27.368  33.417  0.00  0.00     0.021 A 
ATOM     33  C   UNL d   1     -51.503  27.196  33.593  0.00  0.00     0.005 A 
ENDBRANCH   1  28
TORSDOF 8
ENDMDL
