MODEL 1
REMARK VINA RESULT:      -2.4      0.000      0.000
REMARK  2 active torsions:
REMARK  status: ('A' for Active; 'I' for Inactive)
REMARK    1  A    between atoms: N_5  and  C_1 
REMARK       I    between atoms: C_4  and  N_5 
REMARK    2  A    between atoms: C_7  and  C_4 
ROOT
ATOM      1  C   UNL d   1      59.461   0.275  29.737  0.00  0.00     0.060 A 
ATOM      2  C   UNL d   1      58.428   0.305  30.748  0.00  0.00     0.123 A 
ATOM      3  C   UNL d   1      59.209   0.173  30.522  0.00  0.00     0.032 A 
ATOM      4  C   UNL d   1      57.870   0.548  30.179  0.00  0.00     0.123 A 
ATOM      5  O   UNL d   1      58.187   0.203  31.520  0.00  0.00    -0.301 OA
ATOM      6  O   UNL d   1      57.096   0.682  30.387  0.00  0.00    -0.301 OA
ATOM      7  C   UNL d   1      58.910   0.515  29.174  0.00  0.00     0.007 A 
ATOM      8  C   UNL d   1      58.108   0.652  29.399  0.00  0.00     0.027 A 
ATOM      9  C   UNL d   1      57.409   0.331  31.760  0.00  0.00     0.149 A 
ATOM     10  C   UNL d   1      56.847   0.575  31.192  0.00  0.00     0.149 A 
ENDROOT
BRANCH   1  11
ATOM     11  C   UNL d   1      60.238   0.141  29.526  0.00  0.00     0.281 C 
ATOM     12  N   UNL d   1      60.411  -0.577  29.148  0.00  0.00    -0.187 NA
ATOM     13  O   UNL d   1      60.915   0.680  29.659  0.00  0.00    -0.265 OA
BRANCH  12  14
ATOM     14  C   UNL d   1      59.786  -1.132  28.998  0.00  0.00     0.194 A 
ATOM     15  N   UNL d   1      59.169  -1.046  28.455  0.00  0.00    -0.107 NA
ATOM     16  O   UNL d   1      58.690  -1.718  28.494  0.00  0.00    -0.210 OA
ATOM     17  C   UNL d   1      59.010  -2.233  29.068  0.00  0.00     0.128 A 
ATOM     18  C   UNL d   1      59.692  -1.858  29.375  0.00  0.00     0.068 A 
ATOM     19  C   UNL d   1      58.704  -2.966  29.282  0.00  0.00     0.029 C 
ENDBRANCH  12  14
ENDBRANCH   1  11
TORSDOF 2
ENDMDL
MODEL 2
REMARK VINA RESULT:      -2.4      1.037      2.950
REMARK  2 active torsions:
REMARK  status: ('A' for Active; 'I' for Inactive)
REMARK    1  A    between atoms: N_5  and  C_1 
REMARK       I    between atoms: C_4  and  N_5 
REMARK    2  A    between atoms: C_7  and  C_4 
ROOT
ATOM      1  C   UNL d   1      59.521  -0.474  29.253  0.00  0.00     0.060 A 
ATOM      2  C   UNL d   1      59.522  -1.920  29.256  0.00  0.00     0.123 A 
ATOM      3  C   UNL d   1      59.829  -1.200  29.513  0.00  0.00     0.032 A 
ATOM      4  C   UNL d   1      58.885  -1.928  28.720  0.00  0.00     0.123 A 
ATOM      5  O   UNL d   1      59.830  -2.629  29.516  0.00  0.00    -0.301 OA
ATOM      6  O   UNL d   1      58.571  -2.630  28.458  0.00  0.00    -0.301 OA
ATOM      7  C   UNL d   1      58.890  -0.481  28.722  0.00  0.00     0.007 A 
ATOM      8  C   UNL d   1      58.571  -1.215  28.455  0.00  0.00     0.027 A 
ATOM      9  C   UNL d   1      59.532  -3.356  29.267  0.00  0.00     0.149 A 
ATOM     10  C   UNL d   1      58.893  -3.368  28.729  0.00  0.00     0.149 A 
ENDROOT
BRANCH   1  11
ATOM     11  C   UNL d   1      59.834   0.233  29.515  0.00  0.00     0.281 C 
ATOM     12  N   UNL d   1      59.373   0.682  30.039  0.00  0.00    -0.187 NA
ATOM     13  O   UNL d   1      60.613   0.570  29.300  0.00  0.00    -0.265 OA
BRANCH  12  14
ATOM     14  C   UNL d   1      58.610   0.395  30.277  0.00  0.00     0.194 A 
ATOM     15  N   UNL d   1      57.945   0.302  29.794  0.00  0.00    -0.107 NA
ATOM     16  O   UNL d   1      57.326   0.008  30.255  0.00  0.00    -0.210 OA
ATOM     17  C   UNL d   1      57.604  -0.086  31.037  0.00  0.00     0.128 A 
ATOM     18  C   UNL d   1      58.405   0.158  31.038  0.00  0.00     0.068 A 
ATOM     19  C   UNL d   1      57.167  -0.365  31.675  0.00  0.00     0.029 C 
ENDBRANCH  12  14
ENDBRANCH   1  11
TORSDOF 2
ENDMDL
MODEL 3
REMARK VINA RESULT:      -1.5      1.388      2.261
REMARK  2 active torsions:
REMARK  status: ('A' for Active; 'I' for Inactive)
REMARK    1  A    between atoms: N_5  and  C_1 
REMARK       I    between atoms: C_4  and  N_5 
REMARK    2  A    between atoms: C_7  and  C_4 
ROOT
ATOM      1  C   UNL d   1      57.851   0.050  29.800  0.00  0.00     0.060 A 
ATOM      2  C   UNL d   1      57.341   0.209  31.144  0.00  0.00     0.123 A 
ATOM      3  C   UNL d   1      57.564   0.526  30.417  0.00  0.00     0.032 A 
ATOM      4  C   UNL d   1      57.402  -0.612  31.270  0.00  0.00     0.123 A 
ATOM      5  O   UNL d   1      57.060   0.682  31.745  0.00  0.00    -0.301 OA
ATOM      6  O   UNL d   1      57.185  -0.941  31.981  0.00  0.00    -0.301 OA
ATOM      7  C   UNL d   1      57.911  -0.762  29.924  0.00  0.00     0.007 A 
ATOM      8  C   UNL d   1      57.684  -1.094  30.666  0.00  0.00     0.027 A 
ATOM      9  C   UNL d   1      56.833   0.377  32.477  0.00  0.00     0.149 A 
ATOM     10  C   UNL d   1      56.893  -0.446  32.607  0.00  0.00     0.149 A 
ENDROOT
BRANCH   1  11
ATOM     11  C   UNL d   1      58.069   0.378  29.085  0.00  0.00     0.281 C 
ATOM     12  N   UNL d   1      58.881   0.454  28.933  0.00  0.00    -0.187 NA
ATOM     13  O   UNL d   1      57.530   0.660  28.455  0.00  0.00    -0.265 OA
BRANCH  12  14
ATOM     14  C   UNL d   1      59.442   0.193  29.516  0.00  0.00     0.194 A 
ATOM     15  N   UNL d   1      59.578  -0.586  29.756  0.00  0.00    -0.107 NA
ATOM     16  O   UNL d   1      60.170  -0.583  30.333  0.00  0.00    -0.210 OA
ATOM     17  C   UNL d   1      60.409   0.208  30.456  0.00  0.00     0.128 A 
ATOM     18  C   UNL d   1      59.949   0.682  29.942  0.00  0.00     0.068 A 
ATOM     19  C   UNL d   1      60.987   0.460  30.984  0.00  0.00     0.029 C 
ENDBRANCH  12  14
ENDBRANCH   1  11
TORSDOF 2
ENDMDL
MODEL 4
REMARK VINA RESULT:       0.5      3.588      5.727
REMARK  2 active torsions:
REMARK  status: ('A' for Active; 'I' for Inactive)
REMARK    1  A    between atoms: N_5  and  C_1 
REMARK       I    between atoms: C_4  and  N_5 
REMARK    2  A    between atoms: C_7  and  C_4 
ROOT
ATOM      1  C   UNL d   1      55.262  -0.010  33.404  0.00  0.00     0.060 A 
ATOM      2  C   UNL d   1      56.152   0.136  32.274  0.00  0.00     0.123 A 
ATOM      3  C   UNL d   1      55.572   0.436  32.776  0.00  0.00     0.032 A 
ATOM      4  C   UNL d   1      56.439  -0.637  32.393  0.00  0.00     0.123 A 
ATOM      5  O   UNL d   1      56.453   0.580  31.660  0.00  0.00    -0.301 OA
ATOM      6  O   UNL d   1      57.011  -0.947  31.905  0.00  0.00    -0.301 OA
ATOM      7  C   UNL d   1      55.545  -0.775  33.522  0.00  0.00     0.007 A 
ATOM      8  C   UNL d   1      56.139  -1.089  33.011  0.00  0.00     0.027 A 
ATOM      9  C   UNL d   1      57.032   0.292  31.150  0.00  0.00     0.149 A 
ATOM     10  C   UNL d   1      57.323  -0.483  31.266  0.00  0.00     0.149 A 
ENDROOT
BRANCH   1  11
ATOM     11  C   UNL d   1      54.687   0.300  33.894  0.00  0.00     0.281 C 
ATOM     12  N   UNL d   1      54.939   0.630  34.613  0.00  0.00    -0.187 NA
ATOM     13  O   UNL d   1      53.826   0.320  33.741  0.00  0.00    -0.265 OA
BRANCH  12  14
ATOM     14  C   UNL d   1      55.766   0.633  34.805  0.00  0.00     0.194 A 
ATOM     15  N   UNL d   1      56.397   0.605  34.272  0.00  0.00    -0.107 NA
ATOM     16  O   UNL d   1      57.104   0.619  34.701  0.00  0.00    -0.210 OA
ATOM     17  C   UNL d   1      56.914   0.658  35.513  0.00  0.00     0.128 A 
ATOM     18  C   UNL d   1      56.079   0.666  35.566  0.00  0.00     0.068 A 
ATOM     19  C   UNL d   1      57.454   0.682  36.133  0.00  0.00     0.029 C 
ENDBRANCH  12  14
ENDBRANCH   1  11
TORSDOF 2
ENDMDL
