MODEL 1
REMARK VINA RESULT:      -6.9      0.000      0.000
REMARK  2 active torsions:
REMARK  status: ('A' for Active; 'I' for Inactive)
REMARK    1  A    between atoms: C_6  and  N_2 
REMARK    2  A    between atoms: C_8  and  C_6 
ROOT
ATOM      1  C   UNL d   1     -47.598  11.983  23.175  0.00  0.00     0.151 A 
ATOM      2  N   UNL d   1     -47.519  12.591  22.626  0.00  0.00    -0.286 N 
ATOM      3  S   UNL d   1     -48.359  11.696  23.111  0.00  0.00    -0.057 SA
ATOM      4  C   UNL d   1     -48.222  12.671  22.234  0.00  0.00     0.071 A 
ATOM      5  C   UNL d   1     -48.742  12.117  22.535  0.00  0.00     0.048 A 
ATOM      6  S   UNL d   1     -47.032  11.704  23.697  0.00  0.00    -0.052 SA
ATOM      7  C   UNL d   1     -48.467  13.181  21.635  0.00  0.00     0.018 A 
ATOM      8  C   UNL d   1     -49.513  12.067  22.238  0.00  0.00     0.008 A 
ATOM      9  C   UNL d   1     -49.237  13.137  21.333  0.00  0.00     0.002 A 
ATOM     10  C   UNL d   1     -49.757  12.583  21.634  0.00  0.00     0.001 A 
ENDROOT
BRANCH   2  11
ATOM     11  C   UNL d   1     -46.820  13.039  22.508  0.00  0.00     0.152 C 
BRANCH  11  12
ATOM     12  C   UNL d   1     -46.599  13.629  23.041  0.00  0.00     0.230 C 
ATOM     13  O   UNL d   1     -46.046  13.465  23.638  0.00  0.00    -0.643 OA
ATOM     14  O   UNL d   1     -46.926  14.376  22.982  0.00  0.00    -0.643 OA
ENDBRANCH  11  12
ENDBRANCH   2  11
TORSDOF 2
ENDMDL
MODEL 2
REMARK VINA RESULT:      -6.7      1.692      2.542
REMARK  2 active torsions:
REMARK  status: ('A' for Active; 'I' for Inactive)
REMARK    1  A    between atoms: C_6  and  N_2 
REMARK    2  A    between atoms: C_8  and  C_6 
ROOT
ATOM      1  C   UNL d   1     -47.175  12.187  23.443  0.00  0.00     0.151 A 
ATOM      2  N   UNL d   1     -47.882  12.563  23.255  0.00  0.00    -0.286 N 
ATOM      3  S   UNL d   1     -46.574  12.728  23.330  0.00  0.00    -0.057 SA
ATOM      4  C   UNL d   1     -47.713  13.322  23.031  0.00  0.00     0.071 A 
ATOM      5  C   UNL d   1     -46.904  13.424  23.077  0.00  0.00     0.048 A 
ATOM      6  S   UNL d   1     -47.071  11.416  23.698  0.00  0.00    -0.052 SA
ATOM      7  C   UNL d   1     -48.192  13.947  22.786  0.00  0.00     0.018 A 
ATOM      8  C   UNL d   1     -46.564  14.152  22.880  0.00  0.00     0.008 A 
ATOM      9  C   UNL d   1     -47.858  14.679  22.586  0.00  0.00     0.002 A 
ATOM     10  C   UNL d   1     -47.049  14.781  22.633  0.00  0.00     0.001 A 
ENDROOT
BRANCH   2  11
ATOM     11  C   UNL d   1     -48.638  12.204  23.295  0.00  0.00     0.152 C 
BRANCH  11  12
ATOM     12  C   UNL d   1     -48.951  11.800  22.647  0.00  0.00     0.230 C 
ATOM     13  O   UNL d   1     -49.593  12.118  22.228  0.00  0.00    -0.643 OA
ATOM     14  O   UNL d   1     -48.627  11.086  22.415  0.00  0.00    -0.643 OA
ENDBRANCH  11  12
ENDBRANCH   2  11
TORSDOF 2
ENDMDL
MODEL 3
REMARK VINA RESULT:      -6.7      1.995      2.907
REMARK  2 active torsions:
REMARK  status: ('A' for Active; 'I' for Inactive)
REMARK    1  A    between atoms: C_6  and  N_2 
REMARK    2  A    between atoms: C_8  and  C_6 
ROOT
ATOM      1  C   UNL d   1     -48.961  13.527  23.047  0.00  0.00     0.151 A 
ATOM      2  N   UNL d   1     -48.468  12.901  23.248  0.00  0.00    -0.286 N 
ATOM      3  S   UNL d   1     -48.486  14.145  22.807  0.00  0.00    -0.057 SA
ATOM      4  C   UNL d   1     -47.702  13.135  23.132  0.00  0.00     0.071 A 
ATOM      5  C   UNL d   1     -47.713  13.905  22.860  0.00  0.00     0.048 A 
ATOM      6  S   UNL d   1     -49.780  13.548  23.074  0.00  0.00    -0.052 SA
ATOM      7  C   UNL d   1     -46.982  12.748  23.239  0.00  0.00     0.018 A 
ATOM      8  C   UNL d   1     -47.004  14.297  22.691  0.00  0.00     0.008 A 
ATOM      9  C   UNL d   1     -46.268  13.134  23.072  0.00  0.00     0.002 A 
ATOM     10  C   UNL d   1     -46.279  13.904  22.799  0.00  0.00     0.001 A 
ENDROOT
BRANCH   2  11
ATOM     11  C   UNL d   1     -48.732  12.155  23.524  0.00  0.00     0.152 C 
BRANCH  11  12
ATOM     12  C   UNL d   1     -49.091  11.616  23.012  0.00  0.00     0.230 C 
ATOM     13  O   UNL d   1     -48.635  11.202  22.456  0.00  0.00    -0.643 OA
ATOM     14  O   UNL d   1     -49.899  11.491  23.051  0.00  0.00    -0.643 OA
ENDBRANCH  11  12
ENDBRANCH   2  11
TORSDOF 2
ENDMDL
MODEL 4
REMARK VINA RESULT:      -6.5      1.869      2.875
REMARK  2 active torsions:
REMARK  status: ('A' for Active; 'I' for Inactive)
REMARK    1  A    between atoms: C_6  and  N_2 
REMARK    2  A    between atoms: C_8  and  C_6 
ROOT
ATOM      1  C   UNL d   1     -48.055  13.936  22.738  0.00  0.00     0.151 A 
ATOM      2  N   UNL d   1     -48.493  13.245  22.818  0.00  0.00    -0.286 N 
ATOM      3  S   UNL d   1     -47.294  13.772  22.981  0.00  0.00    -0.057 SA
ATOM      4  C   UNL d   1     -48.005  12.668  23.106  0.00  0.00     0.071 A 
ATOM      5  C   UNL d   1     -47.262  12.994  23.207  0.00  0.00     0.048 A 
ATOM      6  S   UNL d   1     -48.316  14.664  22.467  0.00  0.00    -0.052 SA
ATOM      7  C   UNL d   1     -48.133  11.876  23.295  0.00  0.00     0.018 A 
ATOM      8  C   UNL d   1     -46.641  12.532  23.497  0.00  0.00     0.008 A 
ATOM      9  C   UNL d   1     -47.515  11.407  23.586  0.00  0.00     0.002 A 
ATOM     10  C   UNL d   1     -46.773  11.733  23.686  0.00  0.00     0.001 A 
ENDROOT
BRANCH   2  11
ATOM     11  C   UNL d   1     -49.307  13.170  22.629  0.00  0.00     0.152 C 
BRANCH  11  12
ATOM     12  C   UNL d   1     -49.546  12.901  21.886  0.00  0.00     0.230 C 
ATOM     13  O   UNL d   1     -49.362  13.339  21.205  0.00  0.00    -0.643 OA
ATOM     14  O   UNL d   1     -49.965  12.202  21.820  0.00  0.00    -0.643 OA
ENDBRANCH  11  12
ENDBRANCH   2  11
TORSDOF 2
ENDMDL
MODEL 5
REMARK VINA RESULT:      -6.4      1.632      2.613
REMARK  2 active torsions:
REMARK  status: ('A' for Active; 'I' for Inactive)
REMARK    1  A    between atoms: C_6  and  N_2 
REMARK    2  A    between atoms: C_8  and  C_6 
ROOT
ATOM      1  C   UNL d   1     -48.798  12.669  23.062  0.00  0.00     0.151 A 
ATOM      2  N   UNL d   1     -48.618  13.445  22.858  0.00  0.00    -0.286 N 
ATOM      3  S   UNL d   1     -48.094  12.293  23.234  0.00  0.00    -0.057 SA
ATOM      4  C   UNL d   1     -47.816  13.540  22.904  0.00  0.00     0.071 A 
ATOM      5  C   UNL d   1     -47.492  12.827  23.137  0.00  0.00     0.048 A 
ATOM      6  S   UNL d   1     -49.538  12.319  23.094  0.00  0.00    -0.052 SA
ATOM      7  C   UNL d   1     -47.325  14.187  22.765  0.00  0.00     0.018 A 
ATOM      8  C   UNL d   1     -46.673  12.754  23.233  0.00  0.00     0.008 A 
ATOM      9  C   UNL d   1     -46.505  14.121  22.859  0.00  0.00     0.002 A 
ATOM     10  C   UNL d   1     -46.180  13.409  23.092  0.00  0.00     0.001 A 
ENDROOT
BRANCH   2  11
ATOM     11  C   UNL d   1     -49.184  14.025  22.640  0.00  0.00     0.152 C 
BRANCH  11  12
ATOM     12  C   UNL d   1     -49.541  14.502  23.211  0.00  0.00     0.230 C 
ATOM     13  O   UNL d   1     -49.314  15.296  23.291  0.00  0.00    -0.643 OA
ATOM     14  O   UNL d   1     -50.121  14.193  23.698  0.00  0.00    -0.643 OA
ENDBRANCH  11  12
ENDBRANCH   2  11
TORSDOF 2
ENDMDL
