MODEL 1
REMARK VINA RESULT:      -7.5      0.000      0.000
REMARK  9 active torsions:
REMARK  status: ('A' for Active; 'I' for Inactive)
REMARK    1  A    between atoms: C_17  and  N_4 
REMARK    2  A    between atoms: S_16  and  C_7 
REMARK    3  A    between atoms: S_15  and  C_8 
REMARK    4  A    between atoms: C_11  and  C_19 
REMARK    5  A    between atoms: C_22  and  S_15 
REMARK    6  A    between atoms: C_19  and  S_16 
REMARK    7  A    between atoms: C_20  and  C_22 
REMARK    8  A    between atoms: O_25  and  C_20 
REMARK    9  A    between atoms: C_29  and  O_25 
ROOT
ATOM      1  N   UNL d   1      51.807  33.531  53.194  0.00  0.00    -0.269 N 
ATOM      2  C   UNL d   1      52.054  32.733  53.153  0.00  0.00     0.201 A 
ATOM      3  C   UNL d   1      51.049  33.580  52.885  0.00  0.00     0.177 A 
ATOM      4  N   UNL d   1      51.443  32.290  52.817  0.00  0.00    -0.121 NA
ATOM      5  N   UNL d   1      50.831  32.821  52.656  0.00  0.00    -0.127 NA
ENDROOT
BRANCH   3   6
ATOM      6  C   UNL d   1      50.670  34.302  52.857  0.00  0.00     0.078 C 
BRANCH   6   7
ATOM      7  S   UNL d   1      50.132  34.476  52.248  0.00  0.00    -0.045 SA
BRANCH   7   8
ATOM      8  C   UNL d   1      49.422  34.902  52.395  0.00  0.00     0.198 A 
ATOM      9  N   UNL d   1      49.332  35.328  53.110  0.00  0.00    -0.183 NA
ATOM     10  C   UNL d   1      48.644  35.745  53.260  0.00  0.00     0.283 A 
ATOM     11  C   UNL d   1      48.027  35.756  52.717  0.00  0.00     0.082 A 
ATOM     12  O   UNL d   1      48.572  36.172  53.995  0.00  0.00    -0.265 OA
ATOM     13  C   UNL d   1      48.098  35.343  52.007  0.00  0.00     0.117 A 
ATOM     14  C   UNL d   1      47.301  36.114  52.720  0.00  0.00     0.013 A 
ATOM     15  N   UNL d   1      48.780  34.915  51.832  0.00  0.00    -0.214 NA
ATOM     16  S   UNL d   1      47.420  35.443  51.574  0.00  0.00    -0.068 SA
ATOM     17  C   UNL d   1      46.923  35.924  52.018  0.00  0.00     0.031 A 
ATOM     18  C   UNL d   1      46.186  36.298  52.042  0.00  0.00     0.006 A 
ATOM     19  C   UNL d   1      46.094  36.709  52.729  0.00  0.00     0.001 A 
ATOM     20  C   UNL d   1      46.804  36.594  53.164  0.00  0.00     0.001 A 
ENDBRANCH   7   8
ENDBRANCH   6   7
ENDBRANCH   3   6
BRANCH   1  21
ATOM     21  C   UNL d   1      52.274  34.140  53.501  0.00  0.00     0.067 A 
ATOM     22  C   UNL d   1      52.761  34.583  53.002  0.00  0.00     0.018 A 
ATOM     23  C   UNL d   1      53.233  35.204  53.341  0.00  0.00     0.002 A 
ATOM     24  C   UNL d   1      53.209  35.364  54.142  0.00  0.00     0.000 A 
ATOM     25  C   UNL d   1      52.717  34.917  54.648  0.00  0.00     0.002 A 
ATOM     26  C   UNL d   1      52.252  34.309  54.333  0.00  0.00     0.018 A 
ENDBRANCH   1  21
BRANCH   2  27
ATOM     27  S   UNL d   1      52.795  32.389  53.401  0.00  0.00    -0.042 SA
BRANCH  27  28
ATOM     28  C   UNL d   1      52.919  31.588  53.264  0.00  0.00     0.107 C 
BRANCH  28  29
ATOM     29  C   UNL d   1      53.518  31.178  53.676  0.00  0.00     0.307 C 
ATOM     30  O   UNL d   1      54.300  31.447  53.657  0.00  0.00    -0.258 OA
BRANCH  29  31
ATOM     31  O   UNL d   1      53.310  30.503  54.098  0.00  0.00    -0.271 OA
BRANCH  31  32
ATOM     32  C   UNL d   1      53.659  29.766  53.944  0.00  0.00     0.126 C 
ATOM     33  C   UNL d   1      53.459  29.092  54.375  0.00  0.00     0.029 C 
ENDBRANCH  31  32
ENDBRANCH  29  31
ENDBRANCH  28  29
ENDBRANCH  27  28
ENDBRANCH   2  27
TORSDOF 9
ENDMDL
MODEL 2
REMARK VINA RESULT:      -6.7      1.837      6.207
REMARK  9 active torsions:
REMARK  status: ('A' for Active; 'I' for Inactive)
REMARK    1  A    between atoms: C_17  and  N_4 
REMARK    2  A    between atoms: S_16  and  C_7 
REMARK    3  A    between atoms: S_15  and  C_8 
REMARK    4  A    between atoms: C_11  and  C_19 
REMARK    5  A    between atoms: C_22  and  S_15 
REMARK    6  A    between atoms: C_19  and  S_16 
REMARK    7  A    between atoms: C_20  and  C_22 
REMARK    8  A    between atoms: O_25  and  C_20 
REMARK    9  A    between atoms: C_29  and  O_25 
ROOT
ATOM      1  N   UNL d   1      48.437  35.190  52.116  0.00  0.00    -0.269 N 
ATOM      2  C   UNL d   1      47.875  35.195  51.496  0.00  0.00     0.201 A 
ATOM      3  C   UNL d   1      49.096  34.778  51.860  0.00  0.00     0.177 A 
ATOM      4  N   UNL d   1      48.193  34.782  50.855  0.00  0.00    -0.121 NA
ATOM      5  N   UNL d   1      48.944  34.531  51.091  0.00  0.00    -0.127 NA
ENDROOT
BRANCH   3   6
ATOM      6  C   UNL d   1      49.736  34.687  52.358  0.00  0.00     0.078 C 
BRANCH   6   7
ATOM      7  S   UNL d   1      50.464  34.410  52.070  0.00  0.00    -0.045 SA
BRANCH   7   8
ATOM      8  C   UNL d   1      51.113  34.259  52.583  0.00  0.00     0.198 A 
ATOM      9  N   UNL d   1      51.459  34.889  53.014  0.00  0.00    -0.183 NA
ATOM     10  C   UNL d   1      52.090  34.749  53.515  0.00  0.00     0.283 A 
ATOM     11  C   UNL d   1      52.401  33.995  53.608  0.00  0.00     0.082 A 
ATOM     12  O   UNL d   1      52.428  35.405  53.945  0.00  0.00    -0.265 OA
ATOM     13  C   UNL d   1      52.074  33.362  53.192  0.00  0.00     0.117 A 
ATOM     14  C   UNL d   1      53.010  33.703  54.056  0.00  0.00     0.013 A 
ATOM     15  N   UNL d   1      51.437  33.475  52.681  0.00  0.00    -0.214 NA
ATOM     16  S   UNL d   1      52.477  32.685  53.381  0.00  0.00    -0.068 SA
ATOM     17  C   UNL d   1      53.061  32.898  53.919  0.00  0.00     0.031 A 
ATOM     18  C   UNL d   1      53.686  32.622  54.384  0.00  0.00     0.006 A 
ATOM     19  C   UNL d   1      54.022  33.224  54.801  0.00  0.00     0.001 A 
ATOM     20  C   UNL d   1      53.592  33.916  54.594  0.00  0.00     0.001 A 
ENDBRANCH   7   8
ENDBRANCH   6   7
ENDBRANCH   3   6
BRANCH   1  21
ATOM     21  C   UNL d   1      48.312  35.552  52.850  0.00  0.00     0.067 A 
ATOM     22  C   UNL d   1      48.456  36.358  52.946  0.00  0.00     0.018 A 
ATOM     23  C   UNL d   1      48.321  36.707  53.710  0.00  0.00     0.002 A 
ATOM     24  C   UNL d   1      48.054  36.258  54.339  0.00  0.00     0.000 A 
ATOM     25  C   UNL d   1      47.908  35.441  54.242  0.00  0.00     0.002 A 
ATOM     26  C   UNL d   1      48.035  35.088  53.505  0.00  0.00     0.018 A 
ENDBRANCH   1  21
BRANCH   2  27
ATOM     27  S   UNL d   1      47.098  35.550  51.481  0.00  0.00    -0.042 SA
BRANCH  27  28
ATOM     28  C   UNL d   1      46.529  35.223  50.985  0.00  0.00     0.107 C 
BRANCH  28  29
ATOM     29  C   UNL d   1      45.734  35.469  51.037  0.00  0.00     0.307 C 
ATOM     30  O   UNL d   1      45.506  36.214  50.760  0.00  0.00    -0.258 OA
BRANCH  29  31
ATOM     31  O   UNL d   1      45.186  34.952  51.369  0.00  0.00    -0.271 OA
BRANCH  31  32
ATOM     32  C   UNL d   1      44.579  35.220  51.868  0.00  0.00     0.126 C 
ATOM     33  C   UNL d   1      44.315  34.773  52.508  0.00  0.00     0.029 C 
ENDBRANCH  31  32
ENDBRANCH  29  31
ENDBRANCH  28  29
ENDBRANCH  27  28
ENDBRANCH   2  27
TORSDOF 9
ENDMDL
MODEL 3
REMARK VINA RESULT:      -6.2      1.175      1.554
REMARK  9 active torsions:
REMARK  status: ('A' for Active; 'I' for Inactive)
REMARK    1  A    between atoms: C_17  and  N_4 
REMARK    2  A    between atoms: S_16  and  C_7 
REMARK    3  A    between atoms: S_15  and  C_8 
REMARK    4  A    between atoms: C_11  and  C_19 
REMARK    5  A    between atoms: C_22  and  S_15 
REMARK    6  A    between atoms: C_19  and  S_16 
REMARK    7  A    between atoms: C_20  and  C_22 
REMARK    8  A    between atoms: O_25  and  C_20 
REMARK    9  A    between atoms: C_29  and  O_25 
ROOT
ATOM      1  N   UNL d   1      52.417  32.709  53.223  0.00  0.00    -0.269 N 
ATOM      2  C   UNL d   1      52.541  31.895  53.077  0.00  0.00     0.201 A 
ATOM      3  C   UNL d   1      51.753  32.946  52.807  0.00  0.00     0.177 A 
ATOM      4  N   UNL d   1      51.947  31.631  52.567  0.00  0.00    -0.121 NA
ATOM      5  N   UNL d   1      51.469  32.286  52.408  0.00  0.00    -0.127 NA
ENDROOT
BRANCH   3   6
ATOM      6  C   UNL d   1      51.503  33.721  52.850  0.00  0.00     0.078 C 
BRANCH   6   7
ATOM      7  S   UNL d   1      51.114  34.079  52.209  0.00  0.00    -0.045 SA
BRANCH   7   8
ATOM      8  C   UNL d   1      50.366  34.453  52.301  0.00  0.00     0.198 A 
ATOM      9  N   UNL d   1      49.815  34.443  51.670  0.00  0.00    -0.183 NA
ATOM     10  C   UNL d   1      49.086  34.805  51.751  0.00  0.00     0.283 A 
ATOM     11  C   UNL d   1      48.876  35.186  52.448  0.00  0.00     0.082 A 
ATOM     12  O   UNL d   1      48.539  34.783  51.096  0.00  0.00    -0.265 OA
ATOM     13  C   UNL d   1      49.404  35.206  53.080  0.00  0.00     0.117 A 
ATOM     14  C   UNL d   1      48.207  35.581  52.677  0.00  0.00     0.013 A 
ATOM     15  N   UNL d   1      50.146  34.849  53.025  0.00  0.00    -0.214 NA
ATOM     16  S   UNL d   1      49.066  35.611  53.696  0.00  0.00    -0.068 SA
ATOM     17  C   UNL d   1      48.319  35.844  53.444  0.00  0.00     0.031 A 
ATOM     18  C   UNL d   1      47.628  36.243  53.657  0.00  0.00     0.006 A 
ATOM     19  C   UNL d   1      47.094  36.237  53.053  0.00  0.00     0.001 A 
ATOM     20  C   UNL d   1      47.461  35.814  52.426  0.00  0.00     0.001 A 
ENDBRANCH   7   8
ENDBRANCH   6   7
ENDBRANCH   3   6
BRANCH   1  21
ATOM     21  C   UNL d   1      52.905  33.165  53.711  0.00  0.00     0.067 A 
ATOM     22  C   UNL d   1      52.710  33.279  54.505  0.00  0.00     0.018 A 
ATOM     23  C   UNL d   1      53.227  33.752  54.987  0.00  0.00     0.002 A 
ATOM     24  C   UNL d   1      53.903  34.090  54.677  0.00  0.00     0.000 A 
ATOM     25  C   UNL d   1      54.101  33.975  53.873  0.00  0.00     0.002 A 
ATOM     26  C   UNL d   1      53.608  33.517  53.392  0.00  0.00     0.018 A 
ENDBRANCH   1  21
BRANCH   2  27
ATOM     27  S   UNL d   1      53.156  31.384  53.377  0.00  0.00    -0.042 SA
BRANCH  27  28
ATOM     28  C   UNL d   1      53.104  30.578  53.223  0.00  0.00     0.107 C 
BRANCH  28  29
ATOM     29  C   UNL d   1      53.572  30.037  53.652  0.00  0.00     0.307 C 
ATOM     30  O   UNL d   1      54.395  30.041  53.575  0.00  0.00    -0.258 OA
BRANCH  29  31
ATOM     31  O   UNL d   1      53.193  29.501  54.149  0.00  0.00    -0.271 OA
BRANCH  31  32
ATOM     32  C   UNL d   1      53.608  28.894  54.535  0.00  0.00     0.126 C 
ATOM     33  C   UNL d   1      53.319  28.537  55.219  0.00  0.00     0.029 C 
ENDBRANCH  31  32
ENDBRANCH  29  31
ENDBRANCH  28  29
ENDBRANCH  27  28
ENDBRANCH   2  27
TORSDOF 9
ENDMDL
MODEL 4
REMARK VINA RESULT:      -4.7      1.022      6.243
REMARK  9 active torsions:
REMARK  status: ('A' for Active; 'I' for Inactive)
REMARK    1  A    between atoms: C_17  and  N_4 
REMARK    2  A    between atoms: S_16  and  C_7 
REMARK    3  A    between atoms: S_15  and  C_8 
REMARK    4  A    between atoms: C_11  and  C_19 
REMARK    5  A    between atoms: C_22  and  S_15 
REMARK    6  A    between atoms: C_19  and  S_16 
REMARK    7  A    between atoms: C_20  and  C_22 
REMARK    8  A    between atoms: O_25  and  C_20 
REMARK    9  A    between atoms: C_29  and  O_25 
ROOT
ATOM      1  N   UNL d   1      51.460  33.981  53.067  0.00  0.00    -0.269 N 
ATOM      2  C   UNL d   1      50.667  34.173  52.882  0.00  0.00     0.201 A 
ATOM      3  C   UNL d   1      51.617  33.232  52.776  0.00  0.00     0.177 A 
ATOM      4  N   UNL d   1      50.335  33.535  52.474  0.00  0.00    -0.121 NA
ATOM      5  N   UNL d   1      50.929  32.963  52.415  0.00  0.00    -0.127 NA
ENDROOT
BRANCH   3   6
ATOM      6  C   UNL d   1      52.356  32.903  52.880  0.00  0.00     0.078 C 
BRANCH   6   7
ATOM      7  S   UNL d   1      52.540  32.159  52.561  0.00  0.00    -0.045 SA
BRANCH   7   8
ATOM      8  C   UNL d   1      52.783  31.517  53.048  0.00  0.00     0.198 A 
ATOM      9  N   UNL d   1      53.293  31.657  53.697  0.00  0.00    -0.183 NA
ATOM     10  C   UNL d   1      53.534  31.038  54.175  0.00  0.00     0.283 A 
ATOM     11  C   UNL d   1      53.283  30.269  54.033  0.00  0.00     0.082 A 
ATOM     12  O   UNL d   1      54.054  31.202  54.831  0.00  0.00    -0.265 OA
ATOM     13  C   UNL d   1      52.780  30.112  53.399  0.00  0.00     0.117 A 
ATOM     14  C   UNL d   1      53.430  29.566  54.407  0.00  0.00     0.013 A 
ATOM     15  N   UNL d   1      52.523  30.717  52.902  0.00  0.00    -0.214 NA
ATOM     16  S   UNL d   1      52.617  29.318  53.380  0.00  0.00    -0.068 SA
ATOM     17  C   UNL d   1      53.022  28.978  54.009  0.00  0.00     0.031 A 
ATOM     18  C   UNL d   1      53.186  28.272  54.407  0.00  0.00     0.006 A 
ATOM     19  C   UNL d   1      53.678  28.400  55.032  0.00  0.00     0.001 A 
ATOM     20  C   UNL d   1      53.835  29.226  55.035  0.00  0.00     0.001 A 
ENDBRANCH   7   8
ENDBRANCH   6   7
ENDBRANCH   3   6
BRANCH   1  21
ATOM     21  C   UNL d   1      51.969  34.488  53.476  0.00  0.00     0.067 A 
ATOM     22  C   UNL d   1      51.964  34.506  54.301  0.00  0.00     0.018 A 
ATOM     23  C   UNL d   1      52.498  35.036  54.700  0.00  0.00     0.002 A 
ATOM     24  C   UNL d   1      53.007  35.518  54.280  0.00  0.00     0.000 A 
ATOM     25  C   UNL d   1      53.012  35.500  53.445  0.00  0.00     0.002 A 
ATOM     26  C   UNL d   1      52.499  34.990  53.043  0.00  0.00     0.018 A 
ENDBRANCH   1  21
BRANCH   2  27
ATOM     27  S   UNL d   1      50.232  34.886  53.060  0.00  0.00    -0.042 SA
BRANCH  27  28
ATOM     28  C   UNL d   1      49.431  34.911  52.879  0.00  0.00     0.107 C 
BRANCH  28  29
ATOM     29  C   UNL d   1      48.977  35.585  53.068  0.00  0.00     0.307 C 
ATOM     30  O   UNL d   1      49.132  36.015  53.757  0.00  0.00    -0.258 OA
BRANCH  29  31
ATOM     31  O   UNL d   1      48.375  35.808  52.553  0.00  0.00    -0.271 OA
BRANCH  31  32
ATOM     32  C   UNL d   1      47.725  36.256  52.809  0.00  0.00     0.126 C 
ATOM     33  C   UNL d   1      47.076  36.397  52.321  0.00  0.00     0.029 C 
ENDBRANCH  31  32
ENDBRANCH  29  31
ENDBRANCH  28  29
ENDBRANCH  27  28
ENDBRANCH   2  27
TORSDOF 9
ENDMDL
