MODEL 1
REMARK VINA RESULT:      -8.0      0.000      0.000
REMARK  2 active torsions:
REMARK  status: ('A' for Active; 'I' for Inactive)
REMARK       I    between atoms: N_2  and  C_1 
REMARK       I    between atoms: N_3  and  C_1 
REMARK    1  A    between atoms: C_12  and  N_3 
REMARK    2  A    between atoms: C_5  and  N_4 
ROOT
ATOM      1  C   UNL d   1      52.242  33.526  53.681  0.00  0.00     0.339 C 
ATOM      2  N   UNL d   1      51.556  33.796  53.312  0.00  0.00    -0.254 N 
ATOM      3  N   UNL d   1      52.914  34.006  53.715  0.00  0.00    -0.257 N 
ATOM      4  N   UNL d   1      50.172  34.339  52.567  0.00  0.00    -0.286 N 
ATOM      5  O   UNL d   1      52.249  32.767  54.017  0.00  0.00    -0.245 OA
ATOM      6  C   UNL d   1      50.882  33.318  53.276  0.00  0.00     0.104 A 
ATOM      7  C   UNL d   1      51.533  34.557  52.969  0.00  0.00     0.104 A 
ATOM      8  C   UNL d   1      50.195  33.587  52.906  0.00  0.00     0.101 A 
ATOM      9  C   UNL d   1      50.843  34.828  52.598  0.00  0.00     0.101 A 
ATOM     10  C   UNL d   1      52.900  34.754  53.381  0.00  0.00     0.104 C 
ENDROOT
BRANCH   3  11
ATOM     11  C   UNL d   1      53.605  33.731  54.089  0.00  0.00     0.068 A 
ATOM     12  C   UNL d   1      54.133  33.240  53.677  0.00  0.00     0.018 A 
ATOM     13  C   UNL d   1      54.815  32.973  54.057  0.00  0.00     0.002 A 
ATOM     14  C   UNL d   1      54.972  33.190  54.840  0.00  0.00     0.000 A 
ATOM     15  C   UNL d   1      54.435  33.681  55.239  0.00  0.00     0.002 A 
ATOM     16  C   UNL d   1      53.752  33.950  54.862  0.00  0.00     0.018 A 
ENDBRANCH   3  11
BRANCH   4  17
ATOM     17  C   UNL d   1      49.485  34.609  52.197  0.00  0.00     0.148 A 
ATOM     18  N   UNL d   1      48.954  35.063  52.622  0.00  0.00    -0.227 NA
ATOM     19  C   UNL d   1      48.271  35.331  52.254  0.00  0.00     0.101 A 
ATOM     20  C   UNL d   1      48.122  35.148  51.477  0.00  0.00     0.021 A 
ATOM     21  C   UNL d   1      48.663  34.690  51.058  0.00  0.00     0.005 A 
ATOM     22  C   UNL d   1      49.340  34.424  51.422  0.00  0.00     0.037 A 
ENDBRANCH   4  17
TORSDOF 2
ENDMDL
MODEL 2
REMARK VINA RESULT:      -7.1      1.031      1.406
REMARK  2 active torsions:
REMARK  status: ('A' for Active; 'I' for Inactive)
REMARK       I    between atoms: N_2  and  C_1 
REMARK       I    between atoms: N_3  and  C_1 
REMARK    1  A    between atoms: C_12  and  N_3 
REMARK    2  A    between atoms: C_5  and  N_4 
ROOT
ATOM      1  C   UNL d   1      51.814  33.568  52.705  0.00  0.00     0.339 C 
ATOM      2  N   UNL d   1      51.095  33.965  52.631  0.00  0.00    -0.254 N 
ATOM      3  N   UNL d   1      52.191  33.522  53.439  0.00  0.00    -0.257 N 
ATOM      4  N   UNL d   1      49.645  34.766  52.481  0.00  0.00    -0.286 N 
ATOM      5  O   UNL d   1      52.153  33.216  52.034  0.00  0.00    -0.245 OA
ATOM      6  C   UNL d   1      50.714  34.013  51.898  0.00  0.00     0.104 A 
ATOM      7  C   UNL d   1      50.742  34.325  53.297  0.00  0.00     0.104 A 
ATOM      8  C   UNL d   1      49.995  34.411  51.824  0.00  0.00     0.101 A 
ATOM      9  C   UNL d   1      50.019  34.724  53.222  0.00  0.00     0.101 A 
ATOM     10  C   UNL d   1      51.852  33.872  54.097  0.00  0.00     0.104 C 
ENDROOT
BRANCH   3  11
ATOM     11  C   UNL d   1      52.917  33.120  53.510  0.00  0.00     0.068 A 
ATOM     12  C   UNL d   1      52.933  32.290  53.521  0.00  0.00     0.018 A 
ATOM     13  C   UNL d   1      53.658  31.903  53.592  0.00  0.00     0.002 A 
ATOM     14  C   UNL d   1      54.361  32.335  53.651  0.00  0.00     0.000 A 
ATOM     15  C   UNL d   1      54.330  33.163  53.639  0.00  0.00     0.002 A 
ATOM     16  C   UNL d   1      53.607  33.554  53.568  0.00  0.00     0.018 A 
ENDBRANCH   3  11
BRANCH   4  17
ATOM     17  C   UNL d   1      48.926  35.163  52.406  0.00  0.00     0.148 A 
ATOM     18  N   UNL d   1      48.482  35.063  51.727  0.00  0.00    -0.227 NA
ATOM     19  C   UNL d   1      47.766  35.458  51.653  0.00  0.00     0.101 A 
ATOM     20  C   UNL d   1      47.501  35.944  52.247  0.00  0.00     0.021 A 
ATOM     21  C   UNL d   1      47.955  36.039  52.928  0.00  0.00     0.005 A 
ATOM     22  C   UNL d   1      48.664  35.647  53.001  0.00  0.00     0.037 A 
ENDBRANCH   4  17
TORSDOF 2
ENDMDL
MODEL 3
REMARK VINA RESULT:      -6.8      0.970      4.963
REMARK  2 active torsions:
REMARK  status: ('A' for Active; 'I' for Inactive)
REMARK       I    between atoms: N_2  and  C_1 
REMARK       I    between atoms: N_3  and  C_1 
REMARK    1  A    between atoms: C_12  and  N_3 
REMARK    2  A    between atoms: C_5  and  N_4 
ROOT
ATOM      1  C   UNL d   1      50.992  34.341  52.205  0.00  0.00     0.339 C 
ATOM      2  N   UNL d   1      51.616  34.171  52.718  0.00  0.00    -0.254 N 
ATOM      3  N   UNL d   1      50.215  34.354  52.484  0.00  0.00    -0.257 N 
ATOM      4  N   UNL d   1      52.873  33.829  53.752  0.00  0.00    -0.286 N 
ATOM      5  O   UNL d   1      51.157  34.497  51.407  0.00  0.00    -0.245 OA
ATOM      6  C   UNL d   1      52.395  34.156  52.442  0.00  0.00     0.104 A 
ATOM      7  C   UNL d   1      51.466  34.011  53.524  0.00  0.00     0.104 A 
ATOM      8  C   UNL d   1      53.019  33.987  52.955  0.00  0.00     0.101 A 
ATOM      9  C   UNL d   1      52.093  33.841  54.039  0.00  0.00     0.101 A 
ATOM     10  C   UNL d   1      50.059  34.199  53.273  0.00  0.00     0.104 C 
ENDROOT
BRANCH   3  11
ATOM     11  C   UNL d   1      49.588  34.526  51.963  0.00  0.00     0.068 A 
ATOM     12  C   UNL d   1      49.536  34.134  51.232  0.00  0.00     0.018 A 
ATOM     13  C   UNL d   1      48.910  34.313  50.724  0.00  0.00     0.002 A 
ATOM     14  C   UNL d   1      48.342  34.874  50.939  0.00  0.00     0.000 A 
ATOM     15  C   UNL d   1      48.407  35.257  51.672  0.00  0.00     0.002 A 
ATOM     16  C   UNL d   1      49.031  35.081  52.182  0.00  0.00     0.018 A 
ENDBRANCH   3  11
BRANCH   4  17
ATOM     17  C   UNL d   1      53.496  33.659  54.265  0.00  0.00     0.148 A 
ATOM     18  N   UNL d   1      53.861  34.270  54.666  0.00  0.00    -0.227 NA
ATOM     19  C   UNL d   1      54.482  34.101  55.176  0.00  0.00     0.101 A 
ATOM     20  C   UNL d   1      54.731  33.336  55.283  0.00  0.00     0.021 A 
ATOM     21  C   UNL d   1      54.357  32.727  54.874  0.00  0.00     0.005 A 
ATOM     22  C   UNL d   1      53.742  32.894  54.368  0.00  0.00     0.037 A 
ENDBRANCH   4  17
TORSDOF 2
ENDMDL
MODEL 4
REMARK VINA RESULT:      -6.2      1.605      3.062
REMARK  2 active torsions:
REMARK  status: ('A' for Active; 'I' for Inactive)
REMARK       I    between atoms: N_2  and  C_1 
REMARK       I    between atoms: N_3  and  C_1 
REMARK    1  A    between atoms: C_12  and  N_3 
REMARK    2  A    between atoms: C_5  and  N_4 
ROOT
ATOM      1  C   UNL d   1      49.829  34.876  52.924  0.00  0.00     0.339 C 
ATOM      2  N   UNL d   1      49.086  35.093  52.639  0.00  0.00    -0.254 N 
ATOM      3  N   UNL d   1      50.319  34.382  52.478  0.00  0.00    -0.257 N 
ATOM      4  N   UNL d   1      47.588  35.530  52.064  0.00  0.00    -0.286 N 
ATOM      5  O   UNL d   1      50.076  35.159  53.664  0.00  0.00    -0.245 OA
ATOM      6  C   UNL d   1      48.592  35.586  53.082  0.00  0.00     0.104 A 
ATOM      7  C   UNL d   1      48.822  34.816  51.897  0.00  0.00     0.104 A 
ATOM      8  C   UNL d   1      47.849  35.803  52.797  0.00  0.00     0.101 A 
ATOM      9  C   UNL d   1      48.076  35.034  51.610  0.00  0.00     0.101 A 
ATOM     10  C   UNL d   1      50.069  34.106  51.749  0.00  0.00     0.104 C 
ENDROOT
BRANCH   3  11
ATOM     11  C   UNL d   1      51.069  34.165  52.770  0.00  0.00     0.068 A 
ATOM     12  C   UNL d   1      51.157  33.467  53.211  0.00  0.00     0.018 A 
ATOM     13  C   UNL d   1      51.904  33.262  53.494  0.00  0.00     0.002 A 
ATOM     14  C   UNL d   1      52.558  33.745  53.342  0.00  0.00     0.000 A 
ATOM     15  C   UNL d   1      52.455  34.440  52.901  0.00  0.00     0.002 A 
ATOM     16  C   UNL d   1      51.709  34.648  52.615  0.00  0.00     0.018 A 
ENDBRANCH   3  11
BRANCH   4  17
ATOM     17  C   UNL d   1      46.845  35.747  51.778  0.00  0.00     0.148 A 
ATOM     18  N   UNL d   1      46.501  35.306  51.181  0.00  0.00    -0.227 NA
ATOM     19  C   UNL d   1      45.762  35.522  50.897  0.00  0.00     0.101 A 
ATOM     20  C   UNL d   1      45.374  36.167  51.205  0.00  0.00     0.021 A 
ATOM     21  C   UNL d   1      45.729  36.604  51.806  0.00  0.00     0.005 A 
ATOM     22  C   UNL d   1      46.461  36.390  52.087  0.00  0.00     0.037 A 
ENDBRANCH   4  17
TORSDOF 2
ENDMDL
MODEL 5
REMARK VINA RESULT:      -5.6     10.222     11.163
REMARK  2 active torsions:
REMARK  status: ('A' for Active; 'I' for Inactive)
REMARK       I    between atoms: N_2  and  C_1 
REMARK       I    between atoms: N_3  and  C_1 
REMARK    1  A    between atoms: C_12  and  N_3 
REMARK    2  A    between atoms: C_5  and  N_4 
ROOT
ATOM      1  C   UNL d   1      44.788  30.290  60.652  0.00  0.00     0.339 C 
ATOM      2  N   UNL d   1      44.857  29.798  59.993  0.00  0.00    -0.254 N 
ATOM      3  N   UNL d   1      44.517  29.987  61.371  0.00  0.00    -0.257 N 
ATOM      4  N   UNL d   1      44.995  28.808  58.664  0.00  0.00    -0.286 N 
ATOM      5  O   UNL d   1      44.996  31.090  60.582  0.00  0.00    -0.245 OA
ATOM      6  C   UNL d   1      45.128  30.098  59.271  0.00  0.00     0.104 A 
ATOM      7  C   UNL d   1      44.652  28.991  60.046  0.00  0.00     0.104 A 
ATOM      8  C   UNL d   1      45.197  29.606  58.612  0.00  0.00     0.101 A 
ATOM      9  C   UNL d   1      44.721  28.497  59.384  0.00  0.00     0.101 A 
ATOM     10  C   UNL d   1      44.314  29.196  61.433  0.00  0.00     0.104 C 
ENDROOT
BRANCH   3  11
ATOM     11  C   UNL d   1      44.449  30.486  62.034  0.00  0.00     0.068 A 
ATOM     12  C   UNL d   1      44.382  31.308  61.931  0.00  0.00     0.018 A 
ATOM     13  C   UNL d   1      44.315  31.792  62.595  0.00  0.00     0.002 A 
ATOM     14  C   UNL d   1      44.316  31.466  63.356  0.00  0.00     0.000 A 
ATOM     15  C   UNL d   1      44.384  30.644  63.443  0.00  0.00     0.002 A 
ATOM     16  C   UNL d   1      44.450  30.156  62.781  0.00  0.00     0.018 A 
ENDBRANCH   3  11
BRANCH   4  17
ATOM     17  C   UNL d   1      45.063  28.317  58.005  0.00  0.00     0.148 A 
ATOM     18  N   UNL d   1      45.588  27.690  58.026  0.00  0.00    -0.227 NA
ATOM     19  C   UNL d   1      45.656  27.201  57.370  0.00  0.00     0.101 A 
ATOM     20  C   UNL d   1      45.208  27.337  56.706  0.00  0.00     0.021 A 
ATOM     21  C   UNL d   1      44.682  27.971  56.695  0.00  0.00     0.005 A 
ATOM     22  C   UNL d   1      44.615  28.455  57.344  0.00  0.00     0.037 A 
ENDBRANCH   4  17
TORSDOF 2
ENDMDL
MODEL 6
REMARK VINA RESULT:      -5.1     10.240     11.431
REMARK  2 active torsions:
REMARK  status: ('A' for Active; 'I' for Inactive)
REMARK       I    between atoms: N_2  and  C_1 
REMARK       I    between atoms: N_3  and  C_1 
REMARK    1  A    between atoms: C_12  and  N_3 
REMARK    2  A    between atoms: C_5  and  N_4 
ROOT
ATOM      1  C   UNL d   1      45.000  28.199  57.775  0.00  0.00     0.339 C 
ATOM      2  N   UNL d   1      44.900  27.380  57.791  0.00  0.00    -0.254 N 
ATOM      3  N   UNL d   1      44.708  28.667  58.390  0.00  0.00    -0.257 N 
ATOM      4  N   UNL d   1      44.699  25.730  57.824  0.00  0.00    -0.286 N 
ATOM      5  O   UNL d   1      45.397  28.545  57.134  0.00  0.00    -0.245 OA
ATOM      6  C   UNL d   1      45.192  26.909  57.177  0.00  0.00     0.104 A 
ATOM      7  C   UNL d   1      44.503  27.017  58.429  0.00  0.00     0.104 A 
ATOM      8  C   UNL d   1      45.092  26.090  57.194  0.00  0.00     0.101 A 
ATOM      9  C   UNL d   1      44.403  26.194  58.446  0.00  0.00     0.101 A 
ATOM     10  C   UNL d   1      44.317  28.319  59.020  0.00  0.00     0.104 C 
ENDROOT
BRANCH   3  11
ATOM     11  C   UNL d   1      44.810  29.494  58.370  0.00  0.00     0.068 A 
ATOM     12  C   UNL d   1      45.350  29.858  58.885  0.00  0.00     0.018 A 
ATOM     13  C   UNL d   1      45.444  30.677  58.857  0.00  0.00     0.002 A 
ATOM     14  C   UNL d   1      45.005  31.131  58.322  0.00  0.00     0.000 A 
ATOM     15  C   UNL d   1      44.470  30.754  57.814  0.00  0.00     0.002 A 
ATOM     16  C   UNL d   1      44.374  29.935  57.839  0.00  0.00     0.018 A 
ENDBRANCH   3  11
BRANCH   4  17
ATOM     17  C   UNL d   1      44.600  24.911  57.840  0.00  0.00     0.148 A 
ATOM     18  N   UNL d   1      44.415  24.517  57.148  0.00  0.00    -0.227 NA
ATOM     19  C   UNL d   1      44.316  23.702  57.164  0.00  0.00     0.101 A 
ATOM     20  C   UNL d   1      44.400  23.290  57.859  0.00  0.00     0.021 A 
ATOM     21  C   UNL d   1      44.586  23.697  58.551  0.00  0.00     0.005 A 
ATOM     22  C   UNL d   1      44.684  24.504  58.535  0.00  0.00     0.037 A 
ENDBRANCH   4  17
TORSDOF 2
ENDMDL
MODEL 7
REMARK VINA RESULT:      -5.1      9.552     10.700
REMARK  2 active torsions:
REMARK  status: ('A' for Active; 'I' for Inactive)
REMARK       I    between atoms: N_2  and  C_1 
REMARK       I    between atoms: N_3  and  C_1 
REMARK    1  A    between atoms: C_12  and  N_3 
REMARK    2  A    between atoms: C_5  and  N_4 
ROOT
ATOM      1  C   UNL d   1      44.993  26.623  57.364  0.00  0.00     0.339 C 
ATOM      2  N   UNL d   1      44.977  27.442  57.467  0.00  0.00    -0.254 N 
ATOM      3  N   UNL d   1      44.661  26.281  56.690  0.00  0.00    -0.257 N 
ATOM      4  N   UNL d   1      44.945  29.092  57.673  0.00  0.00    -0.286 N 
ATOM      5  O   UNL d   1      45.346  26.150  57.947  0.00  0.00    -0.245 OA
ATOM      6  C   UNL d   1      45.308  27.788  58.141  0.00  0.00     0.104 A 
ATOM      7  C   UNL d   1      44.625  27.932  56.889  0.00  0.00     0.104 A 
ATOM      8  C   UNL d   1      45.292  28.607  58.243  0.00  0.00     0.101 A 
ATOM      9  C   UNL d   1      44.609  28.754  56.992  0.00  0.00     0.101 A 
ATOM     10  C   UNL d   1      44.314  26.754  56.118  0.00  0.00     0.104 C 
ENDROOT
BRANCH   3  11
ATOM     11  C   UNL d   1      44.679  25.454  56.590  0.00  0.00     0.068 A 
ATOM     12  C   UNL d   1      45.024  25.125  55.910  0.00  0.00     0.018 A 
ATOM     13  C   UNL d   1      45.037  24.305  55.822  0.00  0.00     0.002 A 
ATOM     14  C   UNL d   1      44.709  23.815  56.403  0.00  0.00     0.000 A 
ATOM     15  C   UNL d   1      44.368  24.158  57.076  0.00  0.00     0.002 A 
ATOM     16  C   UNL d   1      44.354  24.978  57.168  0.00  0.00     0.018 A 
ENDBRANCH   3  11
BRANCH   4  17
ATOM     17  C   UNL d   1      44.929  29.910  57.775  0.00  0.00     0.148 A 
ATOM     18  N   UNL d   1      44.753  30.390  57.137  0.00  0.00    -0.227 NA
ATOM     19  C   UNL d   1      44.737  31.204  57.239  0.00  0.00     0.101 A 
ATOM     20  C   UNL d   1      44.894  31.532  57.965  0.00  0.00     0.021 A 
ATOM     21  C   UNL d   1      45.070  31.040  58.602  0.00  0.00     0.005 A 
ATOM     22  C   UNL d   1      45.086  30.234  58.501  0.00  0.00     0.037 A 
ENDBRANCH   4  17
TORSDOF 2
ENDMDL
