MODEL 1
REMARK VINA RESULT:      -0.8      0.000      0.000
REMARK  5 active torsions:
REMARK  status: ('A' for Active; 'I' for Inactive)
REMARK    1  A    between atoms: C_8  and  N_1 
REMARK    2  A    between atoms: C_6  and  C_2 
REMARK    3  A    between atoms: C_9  and  C_6 
REMARK    4  A    between atoms: C_7  and  C_9 
REMARK    5  A    between atoms: C_14  and  C_8 
ROOT
ATOM      1  N   UNL d   1     -41.288-122.609 -51.564  0.00  0.00    -0.289 N 
ATOM      2  C   UNL d   1     -41.268-122.612 -52.384  0.00  0.00     0.148 A 
ATOM      3  N   UNL d   1     -41.203-121.805 -52.640  0.00  0.00    -0.227 NA
ATOM      4  C   UNL d   1     -41.237-121.826 -51.279  0.00  0.00     0.083 A 
ATOM      5  C   UNL d   1     -41.184-121.340 -51.981  0.00  0.00     0.099 A 
ATOM      6  C   UNL d   1     -41.231-121.501 -50.521  0.00  0.00     0.019 A 
ATOM      7  C   UNL d   1     -41.125-120.499 -51.864  0.00  0.00     0.021 A 
ATOM      8  C   UNL d   1     -41.175-120.708 -50.440  0.00  0.00     0.002 A 
ATOM      9  C   UNL d   1     -41.123-120.215 -51.101  0.00  0.00     0.002 A 
ENDROOT
BRANCH   1  10
ATOM     10  C   UNL d   1     -41.350-123.352 -51.258  0.00  0.00     0.082 C 
BRANCH  10  11
ATOM     11  C   UNL d   1     -41.813-123.467 -50.594  0.00  0.00     0.018 A 
ATOM     12  C   UNL d   1     -42.634-123.499 -50.659  0.00  0.00     0.002 A 
ATOM     13  C   UNL d   1     -43.099-123.619 -49.957  0.00  0.00     0.000 A 
ATOM     14  C   UNL d   1     -42.740-123.704 -49.220  0.00  0.00     0.000 A 
ATOM     15  C   UNL d   1     -41.919-123.673 -49.155  0.00  0.00     0.000 A 
ATOM     16  C   UNL d   1     -43.201-123.817 -48.571  0.00  0.00     0.000 C 
ATOM     17  C   UNL d   1     -41.455-123.556 -49.827  0.00  0.00     0.002 A 
ENDBRANCH  10  11
ENDBRANCH   1  10
BRANCH   2  18
ATOM     18  C   UNL d   1     -41.290-123.115 -53.038  0.00  0.00     0.039 C 
BRANCH  18  19
ATOM     19  C   UNL d   1     -41.123-122.820 -53.781  0.00  0.00     0.028 C 
BRANCH  19  20
ATOM     20  C   UNL d   1     -41.668-122.921 -54.396  0.00  0.00     0.100 A 
ATOM     21  O   UNL d   1     -41.990-123.634 -54.659  0.00  0.00    -0.305 OA
ATOM     22  C   UNL d   1     -42.506-123.462 -55.283  0.00  0.00     0.123 A 
ATOM     23  C   UNL d   1     -42.509-122.648 -55.413  0.00  0.00     0.029 A 
ATOM     24  C   UNL d   1     -41.980-122.318 -54.852  0.00  0.00     0.027 A 
ENDBRANCH  19  20
ENDBRANCH  18  19
ENDBRANCH   2  18
TORSDOF 5
ENDMDL
