MODEL 1
REMARK VINA RESULT:      -2.9      0.000      0.000
REMARK  4 active torsions:
REMARK  status: ('A' for Active; 'I' for Inactive)
REMARK    1  A    between atoms: C_6  and  N_1 
REMARK    2  A    between atoms: N_7  and  C_5 
REMARK    3  A    between atoms: C_8  and  C_6 
REMARK    4  A    between atoms: C_12  and  N_7 
ROOT
ATOM      1  N   UNL d   1      29.438  16.553 -24.332  0.00  0.00    -0.227 N 
ATOM      2  C   UNL d   1      29.712  17.220 -24.731  0.00  0.00     0.300 A 
ATOM      3  S   UNL d   1      30.518  17.352 -24.809  0.00  0.00    -0.003 SA
ATOM      4  C   UNL d   1      30.783  16.150 -24.086  0.00  0.00     0.292 A 
ATOM      5  C   UNL d   1      31.056  16.816 -24.486  0.00  0.00     0.172 A 
ATOM      6  O   UNL d   1      29.175  17.755 -25.054  0.00  0.00    -0.259 OA
ATOM      7  O   UNL d   1      31.173  15.454 -23.667  0.00  0.00    -0.264 OA
ENDROOT
BRANCH   5   8
ATOM      8  N   UNL d   1      31.867  16.947 -24.562  0.00  0.00    -0.234 NA
BRANCH   8   9
ATOM      9  C   UNL d   1      32.211  17.615 -24.220  0.00  0.00     0.082 A 
ATOM     10  C   UNL d   1      32.415  18.264 -24.700  0.00  0.00     0.019 A 
ATOM     11  C   UNL d   1      32.757  18.928 -24.360  0.00  0.00     0.002 A 
ATOM     12  C   UNL d   1      32.898  18.953 -23.545  0.00  0.00     0.000 A 
ATOM     13  C   UNL d   1      32.692  18.300 -23.068  0.00  0.00     0.002 A 
ATOM     14  C   UNL d   1      33.241  19.616 -23.195  0.00  0.00     0.000 C 
ATOM     15  C   UNL d   1      32.348  17.636 -23.418  0.00  0.00     0.019 A 
ENDBRANCH   8   9
ENDBRANCH   5   8
BRANCH   1  16
ATOM     16  C   UNL d   1      28.619  16.220 -24.134  0.00  0.00     0.157 C 
BRANCH  16  17
ATOM     17  C   UNL d   1      28.324  16.213 -23.263  0.00  0.00     0.230 C 
ATOM     18  O   UNL d   1      27.775  16.878 -22.979  0.00  0.00    -0.643 OA
ATOM     19  O   UNL d   1      28.579  15.556 -22.707  0.00  0.00    -0.643 OA
ENDBRANCH  16  17
ENDBRANCH   1  16
TORSDOF 4
ENDMDL
MODEL 2
REMARK VINA RESULT:      -1.2      2.345      3.684
REMARK  4 active torsions:
REMARK  status: ('A' for Active; 'I' for Inactive)
REMARK    1  A    between atoms: C_6  and  N_1 
REMARK    2  A    between atoms: N_7  and  C_5 
REMARK    3  A    between atoms: C_8  and  C_6 
REMARK    4  A    between atoms: C_12  and  N_7 
ROOT
ATOM      1  N   UNL d   1      32.480  18.591 -24.408  0.00  0.00    -0.227 N 
ATOM      2  C   UNL d   1      32.741  19.370 -24.342  0.00  0.00     0.300 A 
ATOM      3  S   UNL d   1      32.994  19.660 -23.617  0.00  0.00    -0.003 SA
ATOM      4  C   UNL d   1      32.725  18.392 -23.019  0.00  0.00     0.292 A 
ATOM      5  C   UNL d   1      32.987  19.170 -22.953  0.00  0.00     0.172 A 
ATOM      6  O   UNL d   1      32.749  19.859 -25.006  0.00  0.00    -0.259 OA
ATOM      7  O   UNL d   1      32.632  17.701 -22.448  0.00  0.00    -0.264 OA
ENDROOT
BRANCH   5   8
ATOM      8  N   UNL d   1      33.241  19.459 -22.223  0.00  0.00    -0.234 NA
BRANCH   8   9
ATOM      9  C   UNL d   1      33.012  20.212 -21.976  0.00  0.00     0.082 A 
ATOM     10  C   UNL d   1      32.548  20.298 -21.289  0.00  0.00     0.019 A 
ATOM     11  C   UNL d   1      32.321  21.046 -21.043  0.00  0.00     0.002 A 
ATOM     12  C   UNL d   1      32.550  21.714 -21.475  0.00  0.00     0.000 A 
ATOM     13  C   UNL d   1      33.014  21.624 -22.163  0.00  0.00     0.002 A 
ATOM     14  C   UNL d   1      32.325  22.470 -21.235  0.00  0.00     0.000 C 
ATOM     15  C   UNL d   1      33.239  20.867 -22.403  0.00  0.00     0.019 A 
ENDBRANCH   8   9
ENDBRANCH   5   8
BRANCH   1  16
ATOM     16  C   UNL d   1      32.166  18.080 -25.088  0.00  0.00     0.157 C 
BRANCH  16  17
ATOM     17  C   UNL d   1      31.389  17.601 -24.981  0.00  0.00     0.230 C 
ATOM     18  O   UNL d   1      31.437  16.699 -24.889  0.00  0.00    -0.643 OA
ATOM     19  O   UNL d   1      30.598  18.024 -24.969  0.00  0.00    -0.643 OA
ENDBRANCH  16  17
ENDBRANCH   1  16
TORSDOF 4
ENDMDL
MODEL 3
REMARK VINA RESULT:      -0.1      3.674      5.178
REMARK  4 active torsions:
REMARK  status: ('A' for Active; 'I' for Inactive)
REMARK    1  A    between atoms: C_6  and  N_1 
REMARK    2  A    between atoms: N_7  and  C_5 
REMARK    3  A    between atoms: C_8  and  C_6 
REMARK    4  A    between atoms: C_12  and  N_7 
ROOT
ATOM      1  N   UNL d   1      32.919  19.511 -22.907  0.00  0.00    -0.227 N 
ATOM      2  C   UNL d   1      33.004  19.848 -22.160  0.00  0.00     0.300 A 
ATOM      3  S   UNL d   1      33.107  20.659 -22.083  0.00  0.00    -0.003 SA
ATOM      4  C   UNL d   1      33.040  20.801 -23.502  0.00  0.00     0.292 A 
ATOM      5  C   UNL d   1      33.125  21.137 -22.755  0.00  0.00     0.172 A 
ATOM      6  O   UNL d   1      32.986  19.371 -21.489  0.00  0.00    -0.259 OA
ATOM      7  O   UNL d   1      33.029  21.117 -24.346  0.00  0.00    -0.264 OA
ENDROOT
BRANCH   5   8
ATOM      8  N   UNL d   1      33.228  21.953 -22.680  0.00  0.00    -0.234 NA
BRANCH   8   9
ATOM      9  C   UNL d   1      32.834  22.365 -22.084  0.00  0.00     0.082 A 
ATOM     10  C   UNL d   1      32.034  22.573 -22.188  0.00  0.00     0.019 A 
ATOM     11  C   UNL d   1      31.641  22.983 -21.596  0.00  0.00     0.002 A 
ATOM     12  C   UNL d   1      32.037  23.188 -20.898  0.00  0.00     0.000 A 
ATOM     13  C   UNL d   1      32.838  22.977 -20.799  0.00  0.00     0.002 A 
ATOM     14  C   UNL d   1      31.650  23.600 -20.298  0.00  0.00     0.000 C 
ATOM     15  C   UNL d   1      33.226  22.565 -21.400  0.00  0.00     0.019 A 
ENDBRANCH   8   9
ENDBRANCH   5   8
BRANCH   1  16
ATOM     16  C   UNL d   1      32.799  18.667 -23.216  0.00  0.00     0.157 C 
BRANCH  16  17
ATOM     17  C   UNL d   1      32.526  18.530 -24.083  0.00  0.00     0.230 C 
ATOM     18  O   UNL d   1      31.693  18.203 -24.235  0.00  0.00    -0.643 OA
ATOM     19  O   UNL d   1      33.080  18.718 -24.763  0.00  0.00    -0.643 OA
ENDBRANCH  16  17
ENDBRANCH   1  16
TORSDOF 4
ENDMDL
