MODEL 1
REMARK VINA RESULT:      31.0      0.000      0.000
REMARK  4 active torsions:
REMARK  status: ('A' for Active; 'I' for Inactive)
REMARK    1  A    between atoms: C_8  and  N_1 
REMARK    2  A    between atoms: C_6  and  C_3 
REMARK       I    between atoms: N_9  and  C_6 
REMARK    3  A    between atoms: C_13  and  N_9 
REMARK    4  A    between atoms: C_14  and  C_13 
ROOT
ATOM      1  N   UNL d   1      13.984  12.402  -2.022  0.00  0.00    -0.276 N 
ATOM      2  C   UNL d   1      14.713  12.638  -1.713  0.00  0.00     0.181 A 
ATOM      3  C   UNL d   1      14.722  12.473  -0.910  0.00  0.00     0.126 A 
ATOM      4  C   UNL d   1      13.539  12.087  -1.396  0.00  0.00     0.152 A 
ATOM      5  S   UNL d   1      13.995  12.131  -0.708  0.00  0.00    -0.051 SA
ATOM      6  S   UNL d   1      12.768  11.781  -1.452  0.00  0.00    -0.052 SA
ATOM      7  N   UNL d   1      15.329  12.982  -2.143  0.00  0.00    -0.128 N 
ENDROOT
BRANCH   3   8
ATOM      8  C   UNL d   1      15.344  12.619  -0.384  0.00  0.00     0.288 C 
ATOM      9  N   UNL d   1      15.484  13.386  -0.116  0.00  0.00    -0.204 NA
ATOM     10  O   UNL d   1      15.826  12.002  -0.126  0.00  0.00    -0.265 OA
BRANCH   9  11
ATOM     11  C   UNL d   1      15.001  14.011  -0.373  0.00  0.00     0.127 C 
BRANCH  11  12
ATOM     12  C   UNL d   1      15.237  14.793  -0.269  0.00  0.00     0.119 A 
ATOM     13  O   UNL d   1      14.756  15.455  -0.356  0.00  0.00    -0.304 OA
ATOM     14  C   UNL d   1      15.211  16.133  -0.203  0.00  0.00     0.123 A 
ATOM     15  C   UNL d   1      15.980  15.875  -0.020  0.00  0.00     0.029 A 
ATOM     16  C   UNL d   1      15.996  15.051  -0.061  0.00  0.00     0.028 A 
ENDBRANCH  11  12
ENDBRANCH   9  11
ENDBRANCH   3   8
BRANCH   1  17
ATOM     17  C   UNL d   1      13.735  12.465  -2.810  0.00  0.00     0.067 A 
ATOM     18  C   UNL d   1      13.614  13.202  -3.143  0.00  0.00     0.018 A 
ATOM     19  C   UNL d   1      13.366  13.266  -3.930  0.00  0.00     0.002 A 
ATOM     20  C   UNL d   1      13.242  12.583  -4.374  0.00  0.00     0.000 A 
ATOM     21  C   UNL d   1      13.367  11.831  -4.028  0.00  0.00     0.002 A 
ATOM     22  C   UNL d   1      13.612  11.780  -3.250  0.00  0.00     0.018 A 
ENDBRANCH   1  17
TORSDOF 4
ENDMDL
