MODEL 1
REMARK VINA RESULT:      -2.8      0.000      0.000
REMARK  2 active torsions:
REMARK  status: ('A' for Active; 'I' for Inactive)
REMARK    1  A    between atoms: N_3  and  C_1 
REMARK       I    between atoms: C_6  and  N_3 
REMARK    2  A    between atoms: C_8  and  C_6 
ROOT
ATOM      1  N   UNL d   1      31.811  15.453 -24.880  0.00  0.00    -0.183 NA
ATOM      2  C   UNL d   1      32.506  15.921 -24.764  0.00  0.00     0.281 C 
ATOM      3  O   UNL d   1      33.237  15.630 -24.995  0.00  0.00    -0.265 OA
ENDROOT
BRANCH   1   4
ATOM      4  C   UNL d   1      31.082  15.743 -24.650  0.00  0.00     0.197 A 
ATOM      5  N   UNL d   1      30.591  16.218 -25.096  0.00  0.00    -0.221 NA
ATOM      6  C   UNL d   1      29.926  16.379 -24.662  0.00  0.00     0.090 A 
ATOM      7  C   UNL d   1      29.250  16.822 -24.823  0.00  0.00     0.020 A 
ATOM      8  C   UNL d   1      30.005  15.997 -23.933  0.00  0.00     0.050 A 
ATOM      9  C   UNL d   1      28.651  16.887 -24.259  0.00  0.00     0.002 A 
ATOM     10  C   UNL d   1      28.729  16.505 -23.530  0.00  0.00     0.001 A 
ATOM     11  C   UNL d   1      29.406  16.063 -23.372  0.00  0.00     0.008 A 
ATOM     12  S   UNL d   1      30.716  15.609 -23.933  0.00  0.00    -0.047 SA
ENDBRANCH   1   4
BRANCH   2  13
ATOM     13  C   UNL d   1      32.445  16.653 -24.425  0.00  0.00     0.058 A 
ATOM     14  C   UNL d   1      32.421  17.324 -24.904  0.00  0.00     0.005 A 
ATOM     15  C   UNL d   1      32.358  18.075 -24.567  0.00  0.00     0.000 A 
ATOM     16  C   UNL d   1      32.335  18.737 -25.036  0.00  0.00     0.000 C 
ATOM     17  C   UNL d   1      32.319  18.155 -23.744  0.00  0.00     0.000 A 
ATOM     18  C   UNL d   1      32.344  17.468 -23.268  0.00  0.00     0.000 A 
ATOM     19  C   UNL d   1      32.405  16.732 -23.602  0.00  0.00     0.005 A 
ENDBRANCH   2  13
TORSDOF 2
ENDMDL
MODEL 2
REMARK VINA RESULT:      -2.1      1.550      3.109
REMARK  2 active torsions:
REMARK  status: ('A' for Active; 'I' for Inactive)
REMARK    1  A    between atoms: N_3  and  C_1 
REMARK       I    between atoms: C_6  and  N_3 
REMARK    2  A    between atoms: C_8  and  C_6 
ROOT
ATOM      1  N   UNL d   1      33.084  16.512 -24.414  0.00  0.00    -0.183 NA
ATOM      2  C   UNL d   1      32.345  16.145 -24.604  0.00  0.00     0.281 C 
ATOM      3  O   UNL d   1      32.334  15.454 -25.046  0.00  0.00    -0.265 OA
ENDROOT
BRANCH   1   4
ATOM      4  C   UNL d   1      33.095  17.200 -23.974  0.00  0.00     0.197 A 
ATOM      5  N   UNL d   1      33.029  17.959 -24.266  0.00  0.00    -0.221 NA
ATOM      6  C   UNL d   1      33.066  18.477 -23.644  0.00  0.00     0.090 A 
ATOM      7  C   UNL d   1      33.031  19.300 -23.602  0.00  0.00     0.020 A 
ATOM      8  C   UNL d   1      33.157  18.033 -22.952  0.00  0.00     0.050 A 
ATOM      9  C   UNL d   1      33.086  19.682 -22.873  0.00  0.00     0.002 A 
ATOM     10  C   UNL d   1      33.176  19.238 -22.181  0.00  0.00     0.001 A 
ATOM     11  C   UNL d   1      33.211  18.416 -22.226  0.00  0.00     0.008 A 
ATOM     12  S   UNL d   1      33.173  17.251 -23.163  0.00  0.00    -0.047 SA
ENDBRANCH   1   4
BRANCH   2  13
ATOM     13  C   UNL d   1      31.655  16.478 -24.347  0.00  0.00     0.058 A 
ATOM     14  C   UNL d   1      31.223  16.966 -24.853  0.00  0.00     0.005 A 
ATOM     15  C   UNL d   1      30.517  17.311 -24.600  0.00  0.00     0.000 A 
ATOM     16  C   UNL d   1      30.091  17.791 -25.097  0.00  0.00     0.000 C 
ATOM     17  C   UNL d   1      30.241  17.166 -23.833  0.00  0.00     0.000 A 
ATOM     18  C   UNL d   1      30.686  16.670 -23.328  0.00  0.00     0.000 A 
ATOM     19  C   UNL d   1      31.378  16.334 -23.580  0.00  0.00     0.005 A 
ENDBRANCH   2  13
TORSDOF 2
ENDMDL
MODEL 3
REMARK VINA RESULT:      -2.1      1.250      2.023
REMARK  2 active torsions:
REMARK  status: ('A' for Active; 'I' for Inactive)
REMARK    1  A    between atoms: N_3  and  C_1 
REMARK       I    between atoms: C_6  and  N_3 
REMARK    2  A    between atoms: C_8  and  C_6 
ROOT
ATOM      1  N   UNL d   1      31.365  18.080 -24.498  0.00  0.00    -0.183 NA
ATOM      2  C   UNL d   1      32.193  17.905 -24.499  0.00  0.00     0.281 C 
ATOM      3  O   UNL d   1      32.738  18.514 -24.563  0.00  0.00    -0.265 OA
ENDROOT
BRANCH   1   4
ATOM      4  C   UNL d   1      30.822  17.473 -24.434  0.00  0.00     0.197 A 
ATOM      5  N   UNL d   1      30.548  17.144 -23.739  0.00  0.00    -0.221 NA
ATOM      6  C   UNL d   1      30.017  16.560 -23.923  0.00  0.00     0.090 A 
ATOM      7  C   UNL d   1      29.571  16.047 -23.458  0.00  0.00     0.020 A 
ATOM      8  C   UNL d   1      29.959  16.525 -24.748  0.00  0.00     0.050 A 
ATOM      9  C   UNL d   1      29.066  15.497 -23.811  0.00  0.00     0.002 A 
ATOM     10  C   UNL d   1      29.008  15.462 -24.635  0.00  0.00     0.001 A 
ATOM     11  C   UNL d   1      29.455  15.976 -25.097  0.00  0.00     0.008 A 
ATOM     12  S   UNL d   1      30.455  17.088 -25.054  0.00  0.00    -0.047 SA
ENDBRANCH   1   4
BRANCH   2  13
ATOM     13  C   UNL d   1      32.441  17.138 -24.436  0.00  0.00     0.058 A 
ATOM     14  C   UNL d   1      32.703  16.851 -23.708  0.00  0.00     0.005 A 
ATOM     15  C   UNL d   1      32.957  16.070 -23.634  0.00  0.00     0.000 A 
ATOM     16  C   UNL d   1      33.215  15.786 -22.919  0.00  0.00     0.000 C 
ATOM     17  C   UNL d   1      32.950  15.571 -24.295  0.00  0.00     0.000 A 
ATOM     18  C   UNL d   1      32.682  15.871 -25.028  0.00  0.00     0.000 A 
ATOM     19  C   UNL d   1      32.433  16.639 -25.096  0.00  0.00     0.005 A 
ENDBRANCH   2  13
TORSDOF 2
ENDMDL
MODEL 4
REMARK VINA RESULT:      -0.1      1.611      3.147
REMARK  2 active torsions:
REMARK  status: ('A' for Active; 'I' for Inactive)
REMARK    1  A    between atoms: N_3  and  C_1 
REMARK       I    between atoms: C_6  and  N_3 
REMARK    2  A    between atoms: C_8  and  C_6 
ROOT
ATOM      1  N   UNL d   1      30.566  17.500 -24.623  0.00  0.00    -0.183 NA
ATOM      2  C   UNL d   1      30.704  16.677 -24.482  0.00  0.00     0.281 C 
ATOM      3  O   UNL d   1      30.098  16.137 -24.591  0.00  0.00    -0.265 OA
ENDROOT
BRANCH   1   4
ATOM      4  C   UNL d   1      31.171  18.038 -24.515  0.00  0.00     0.197 A 
ATOM      5  N   UNL d   1      31.660  18.336 -25.096  0.00  0.00    -0.221 NA
ATOM      6  C   UNL d   1      32.181  18.852 -24.752  0.00  0.00     0.090 A 
ATOM      7  C   UNL d   1      32.794  19.312 -25.059  0.00  0.00     0.020 A 
ATOM      8  C   UNL d   1      32.014  18.876 -23.942  0.00  0.00     0.050 A 
ATOM      9  C   UNL d   1      33.240  19.796 -24.561  0.00  0.00     0.002 A 
ATOM     10  C   UNL d   1      33.073  19.820 -23.752  0.00  0.00     0.001 A 
ATOM     11  C   UNL d   1      32.461  19.360 -23.449  0.00  0.00     0.008 A 
ATOM     12  S   UNL d   1      31.393  18.375 -23.804  0.00  0.00    -0.047 SA
ENDBRANCH   1   4
BRANCH   2  13
ATOM     13  C   UNL d   1      31.435  16.430 -24.239  0.00  0.00     0.058 A 
ATOM     14  C   UNL d   1      31.944  16.066 -24.777  0.00  0.00     0.005 A 
ATOM     15  C   UNL d   1      32.691  15.811 -24.539  0.00  0.00     0.000 A 
ATOM     16  C   UNL d   1      33.193  15.453 -25.067  0.00  0.00     0.000 C 
ATOM     17  C   UNL d   1      32.932  15.920 -23.754  0.00  0.00     0.000 A 
ATOM     18  C   UNL d   1      32.409  16.289 -23.216  0.00  0.00     0.000 A 
ATOM     19  C   UNL d   1      31.676  16.539 -23.454  0.00  0.00     0.005 A 
ENDBRANCH   2  13
TORSDOF 2
ENDMDL
MODEL 5
REMARK VINA RESULT:      -0.0      1.804      2.459
REMARK  2 active torsions:
REMARK  status: ('A' for Active; 'I' for Inactive)
REMARK    1  A    between atoms: N_3  and  C_1 
REMARK       I    between atoms: C_6  and  N_3 
REMARK    2  A    between atoms: C_8  and  C_6 
ROOT
ATOM      1  N   UNL d   1      32.390  18.547 -25.097  0.00  0.00    -0.183 NA
ATOM      2  C   UNL d   1      32.839  19.103 -24.644  0.00  0.00     0.281 C 
ATOM      3  O   UNL d   1      33.241  19.709 -25.024  0.00  0.00    -0.265 OA
ENDROOT
BRANCH   1   4
ATOM      4  C   UNL d   1      31.989  17.944 -24.718  0.00  0.00     0.197 A 
ATOM      5  N   UNL d   1      31.216  17.968 -24.460  0.00  0.00    -0.221 NA
ATOM      6  C   UNL d   1      31.038  17.257 -24.116  0.00  0.00     0.090 A 
ATOM      7  C   UNL d   1      30.352  16.966 -23.762  0.00  0.00     0.020 A 
ATOM      8  C   UNL d   1      31.712  16.781 -24.160  0.00  0.00     0.050 A 
ATOM      9  C   UNL d   1      30.336  16.200 -23.453  0.00  0.00     0.002 A 
ATOM     10  C   UNL d   1      31.011  15.724 -23.498  0.00  0.00     0.001 A 
ATOM     11  C   UNL d   1      31.694  16.018 -23.851  0.00  0.00     0.008 A 
ATOM     12  S   UNL d   1      32.292  17.209 -24.531  0.00  0.00    -0.047 SA
ENDBRANCH   1   4
BRANCH   2  13
ATOM     13  C   UNL d   1      32.868  19.033 -23.839  0.00  0.00     0.058 A 
ATOM     14  C   UNL d   1      32.551  19.630 -23.364  0.00  0.00     0.005 A 
ATOM     15  C   UNL d   1      32.576  19.567 -22.542  0.00  0.00     0.000 A 
ATOM     16  C   UNL d   1      32.265  20.152 -22.074  0.00  0.00     0.000 C 
ATOM     17  C   UNL d   1      32.922  18.902 -22.191  0.00  0.00     0.000 A 
ATOM     18  C   UNL d   1      33.241  18.303 -22.680  0.00  0.00     0.000 A 
ATOM     19  C   UNL d   1      33.214  18.368 -23.487  0.00  0.00     0.005 A 
ENDBRANCH   2  13
TORSDOF 2
ENDMDL
