MODEL 1
REMARK VINA RESULT:      -8.2      0.000      0.000
REMARK  5 active torsions:
REMARK  status: ('A' for Active; 'I' for Inactive)
REMARK    1  A    between atoms: N_2  and  C_1 
REMARK    2  A    between atoms: C_9  and  C_5 
REMARK    3  A    between atoms: C_6  and  C_10 
REMARK       I    between atoms: N_11  and  C_6 
REMARK    4  A    between atoms: C_8  and  N_11 
REMARK    5  A    between atoms: C_10  and  C_9 
ROOT
ATOM      1  C   UNL d   1      51.656  33.476  53.032  0.00  0.00     0.279 C 
ATOM      2  N   UNL d   1      52.257  33.129  52.577  0.00  0.00    -0.208 NA
ATOM      3  O   UNL d   1      51.630  33.376  53.851  0.00  0.00    -0.265 OA
ENDROOT
BRANCH   1   4
ATOM      4  C   UNL d   1      51.082  33.922  52.663  0.00  0.00     0.063 C 
BRANCH   4   5
ATOM      5  C   UNL d   1      50.491  34.280  53.116  0.00  0.00     0.011 C 
BRANCH   5   6
ATOM      6  C   UNL d   1      49.815  34.585  52.740  0.00  0.00     0.031 A 
ATOM      7  S   UNL d   1      49.458  34.421  52.024  0.00  0.00    -0.064 SA
ATOM      8  C   UNL d   1      48.797  34.895  51.938  0.00  0.00     0.156 A 
ATOM      9  C   UNL d   1      48.751  35.356  52.614  0.00  0.00     0.031 A 
ATOM     10  C   UNL d   1      49.372  35.174  53.114  0.00  0.00     0.009 A 
BRANCH   8  11
ATOM     11  N   UNL d   1      48.270  34.912  51.293  0.00  0.00    -0.107 N 
ATOM     12  O   UNL d   1      47.664  35.471  51.281  0.00  0.00    -0.531 OA
ATOM     13  O   UNL d   1      48.359  34.368  50.672  0.00  0.00    -0.531 OA
ENDBRANCH   8  11
ENDBRANCH   5   6
ENDBRANCH   4   5
ENDBRANCH   1   4
BRANCH   2  14
ATOM     14  C   UNL d   1      52.840  32.676  52.951  0.00  0.00     0.085 A 
ATOM     15  C   UNL d   1      52.782  31.868  52.966  0.00  0.00     0.019 A 
ATOM     16  C   UNL d   1      53.358  31.420  53.336  0.00  0.00     0.002 A 
ATOM     17  C   UNL d   1      53.308  30.591  53.357  0.00  0.00     0.000 C 
ATOM     18  C   UNL d   1      53.981  31.790  53.684  0.00  0.00     0.000 A 
ATOM     19  C   UNL d   1      54.058  32.611  53.679  0.00  0.00     0.002 A 
ATOM     20  C   UNL d   1      53.484  33.057  53.311  0.00  0.00     0.019 A 
ATOM     21  C   UNL d   1      54.702  32.987  54.039  0.00  0.00     0.000 C 
ENDBRANCH   2  14
TORSDOF 5
ENDMDL
MODEL 2
REMARK VINA RESULT:      -8.0      1.131      1.374
REMARK  5 active torsions:
REMARK  status: ('A' for Active; 'I' for Inactive)
REMARK    1  A    between atoms: N_2  and  C_1 
REMARK    2  A    between atoms: C_9  and  C_5 
REMARK    3  A    between atoms: C_6  and  C_10 
REMARK       I    between atoms: N_11  and  C_6 
REMARK    4  A    between atoms: C_8  and  N_11 
REMARK    5  A    between atoms: C_10  and  C_9 
ROOT
ATOM      1  C   UNL d   1      52.043  34.054  53.320  0.00  0.00     0.279 C 
ATOM      2  N   UNL d   1      52.210  33.636  54.017  0.00  0.00    -0.208 NA
ATOM      3  O   UNL d   1      52.598  34.106  52.710  0.00  0.00    -0.265 OA
ENDROOT
BRANCH   1   4
ATOM      4  C   UNL d   1      51.320  34.420  53.237  0.00  0.00     0.063 C 
BRANCH   4   5
ATOM      5  C   UNL d   1      50.783  34.138  52.676  0.00  0.00     0.011 C 
BRANCH   5   6
ATOM      6  C   UNL d   1      50.056  34.529  52.571  0.00  0.00     0.031 A 
ATOM      7  S   UNL d   1      49.623  35.030  53.049  0.00  0.00    -0.064 SA
ATOM      8  C   UNL d   1      48.940  35.252  52.657  0.00  0.00     0.156 A 
ATOM      9  C   UNL d   1      48.959  34.880  51.927  0.00  0.00     0.031 A 
ATOM     10  C   UNL d   1      49.641  34.433  51.863  0.00  0.00     0.009 A 
BRANCH   8  11
ATOM     11  N   UNL d   1      48.340  35.757  52.938  0.00  0.00    -0.107 N 
ATOM     12  O   UNL d   1      47.614  35.778  52.546  0.00  0.00    -0.531 OA
ATOM     13  O   UNL d   1      48.478  36.231  53.605  0.00  0.00    -0.531 OA
ENDBRANCH   8  11
ENDBRANCH   5   6
ENDBRANCH   4   5
ENDBRANCH   1   4
BRANCH   2  14
ATOM     14  C   UNL d   1      52.945  33.264  54.101  0.00  0.00     0.085 A 
ATOM     15  C   UNL d   1      53.074  32.535  53.772  0.00  0.00     0.019 A 
ATOM     16  C   UNL d   1      53.800  32.167  53.855  0.00  0.00     0.002 A 
ATOM     17  C   UNL d   1      53.942  31.419  53.521  0.00  0.00     0.000 C 
ATOM     18  C   UNL d   1      54.383  32.536  54.266  0.00  0.00     0.000 A 
ATOM     19  C   UNL d   1      54.272  33.278  54.609  0.00  0.00     0.002 A 
ATOM     20  C   UNL d   1      53.548  33.644  54.526  0.00  0.00     0.019 A 
ATOM     21  C   UNL d   1      54.876  33.655  55.032  0.00  0.00     0.000 C 
ENDBRANCH   2  14
TORSDOF 5
ENDMDL
MODEL 3
REMARK VINA RESULT:      -8.0      3.045      5.475
REMARK  5 active torsions:
REMARK  status: ('A' for Active; 'I' for Inactive)
REMARK    1  A    between atoms: N_2  and  C_1 
REMARK    2  A    between atoms: C_9  and  C_5 
REMARK    3  A    between atoms: C_6  and  C_10 
REMARK       I    between atoms: N_11  and  C_6 
REMARK    4  A    between atoms: C_8  and  N_11 
REMARK    5  A    between atoms: C_10  and  C_9 
ROOT
ATOM      1  C   UNL d   1      53.448  32.456  53.599  0.00  0.00     0.279 C 
ATOM      2  N   UNL d   1      52.852  32.837  54.033  0.00  0.00    -0.208 NA
ATOM      3  O   UNL d   1      53.819  32.831  52.963  0.00  0.00    -0.265 OA
ENDROOT
BRANCH   1   4
ATOM      4  C   UNL d   1      53.671  31.700  53.804  0.00  0.00     0.063 C 
BRANCH   4   5
ATOM      5  C   UNL d   1      53.534  31.078  53.277  0.00  0.00     0.011 C 
BRANCH   5   6
ATOM      6  C   UNL d   1      53.362  30.320  53.573  0.00  0.00     0.031 A 
ATOM      7  S   UNL d   1      53.633  29.904  54.223  0.00  0.00    -0.064 SA
ATOM      8  C   UNL d   1      53.269  29.172  54.245  0.00  0.00     0.156 A 
ATOM      9  C   UNL d   1      52.767  29.142  53.597  0.00  0.00     0.031 A 
ATOM     10  C   UNL d   1      52.816  29.842  53.177  0.00  0.00     0.009 A 
BRANCH   8  11
ATOM     11  N   UNL d   1      53.381  28.571  54.810  0.00  0.00    -0.107 N 
ATOM     12  O   UNL d   1      53.754  27.870  54.587  0.00  0.00    -0.531 OA
ATOM     13  O   UNL d   1      53.117  28.683  55.589  0.00  0.00    -0.531 OA
ENDBRANCH   8  11
ENDBRANCH   5   6
ENDBRANCH   4   5
ENDBRANCH   1   4
BRANCH   2  14
ATOM     14  C   UNL d   1      52.626  33.606  53.824  0.00  0.00     0.085 A 
ATOM     15  C   UNL d   1      52.994  34.245  54.161  0.00  0.00     0.019 A 
ATOM     16  C   UNL d   1      52.770  35.004  53.955  0.00  0.00     0.002 A 
ATOM     17  C   UNL d   1      53.141  35.666  54.295  0.00  0.00     0.000 C 
ATOM     18  C   UNL d   1      52.184  35.110  53.416  0.00  0.00     0.000 A 
ATOM     19  C   UNL d   1      51.798  34.473  53.062  0.00  0.00     0.002 A 
ATOM     20  C   UNL d   1      52.021  33.716  53.267  0.00  0.00     0.019 A 
ATOM     21  C   UNL d   1      51.195  34.587  52.507  0.00  0.00     0.000 C 
ENDBRANCH   2  14
TORSDOF 5
ENDMDL
MODEL 4
REMARK VINA RESULT:      -7.6      1.952      5.328
REMARK  5 active torsions:
REMARK  status: ('A' for Active; 'I' for Inactive)
REMARK    1  A    between atoms: N_2  and  C_1 
REMARK    2  A    between atoms: C_9  and  C_5 
REMARK    3  A    between atoms: C_6  and  C_10 
REMARK       I    between atoms: N_11  and  C_6 
REMARK    4  A    between atoms: C_8  and  N_11 
REMARK    5  A    between atoms: C_10  and  C_9 
ROOT
ATOM      1  C   UNL d   1      51.228  34.118  52.944  0.00  0.00     0.279 C 
ATOM      2  N   UNL d   1      50.446  33.840  52.952  0.00  0.00    -0.208 NA
ATOM      3  O   UNL d   1      51.421  34.838  52.589  0.00  0.00    -0.265 OA
ENDROOT
BRANCH   1   4
ATOM      4  C   UNL d   1      51.815  33.671  53.291  0.00  0.00     0.063 C 
BRANCH   4   5
ATOM      5  C   UNL d   1      52.598  33.768  53.047  0.00  0.00     0.011 C 
BRANCH   5   6
ATOM      6  C   UNL d   1      53.215  33.481  53.527  0.00  0.00     0.031 A 
ATOM      7  S   UNL d   1      53.514  33.722  54.248  0.00  0.00    -0.064 SA
ATOM      8  C   UNL d   1      54.130  33.230  54.462  0.00  0.00     0.156 A 
ATOM      9  C   UNL d   1      54.208  32.678  53.860  0.00  0.00     0.031 A 
ATOM     10  C   UNL d   1      53.650  32.824  53.280  0.00  0.00     0.009 A 
BRANCH   8  11
ATOM     11  N   UNL d   1      54.593  33.273  55.153  0.00  0.00    -0.107 N 
ATOM     12  O   UNL d   1      54.412  32.783  55.792  0.00  0.00    -0.531 OA
ATOM     13  O   UNL d   1      55.228  33.806  55.193  0.00  0.00    -0.531 OA
ENDBRANCH   8  11
ENDBRANCH   5   6
ENDBRANCH   4   5
ENDBRANCH   1   4
BRANCH   2  14
ATOM     14  C   UNL d   1      49.850  34.293  52.598  0.00  0.00     0.085 A 
ATOM     15  C   UNL d   1      49.659  34.179  51.820  0.00  0.00     0.019 A 
ATOM     16  C   UNL d   1      49.070  34.627  51.470  0.00  0.00     0.002 A 
ATOM     17  C   UNL d   1      48.866  34.518  50.672  0.00  0.00     0.000 C 
ATOM     18  C   UNL d   1      48.684  35.180  51.907  0.00  0.00     0.000 A 
ATOM     19  C   UNL d   1      48.865  35.311  52.701  0.00  0.00     0.002 A 
ATOM     20  C   UNL d   1      49.451  34.865  53.049  0.00  0.00     0.019 A 
ATOM     21  C   UNL d   1      48.465  35.882  53.148  0.00  0.00     0.000 C 
ENDBRANCH   2  14
TORSDOF 5
ENDMDL
MODEL 5
REMARK VINA RESULT:      -5.4      9.554     10.287
REMARK  5 active torsions:
REMARK  status: ('A' for Active; 'I' for Inactive)
REMARK    1  A    between atoms: N_2  and  C_1 
REMARK    2  A    between atoms: C_9  and  C_5 
REMARK    3  A    between atoms: C_6  and  C_10 
REMARK       I    between atoms: N_11  and  C_6 
REMARK    4  A    between atoms: C_8  and  N_11 
REMARK    5  A    between atoms: C_10  and  C_9 
ROOT
ATOM      1  C   UNL d   1      44.967  30.421  59.721  0.00  0.00     0.279 C 
ATOM      2  N   UNL d   1      44.369  30.114  60.207  0.00  0.00    -0.208 NA
ATOM      3  O   UNL d   1      45.634  30.786  60.044  0.00  0.00    -0.265 OA
ENDROOT
BRANCH   1   4
ATOM      4  C   UNL d   1      44.895  30.360  58.911  0.00  0.00     0.063 C 
BRANCH   4   5
ATOM      5  C   UNL d   1      44.718  31.034  58.467  0.00  0.00     0.011 C 
BRANCH   5   6
ATOM      6  C   UNL d   1      44.598  30.964  57.646  0.00  0.00     0.031 A 
ATOM      7  S   UNL d   1      44.566  30.320  57.144  0.00  0.00    -0.064 SA
ATOM      8  C   UNL d   1      44.433  30.582  56.381  0.00  0.00     0.156 A 
ATOM      9  C   UNL d   1      44.383  31.399  56.419  0.00  0.00     0.031 A 
ATOM     10  C   UNL d   1      44.483  31.645  57.193  0.00  0.00     0.009 A 
BRANCH   8  11
ATOM     11  N   UNL d   1      44.361  30.115  55.695  0.00  0.00    -0.107 N 
ATOM     12  O   UNL d   1      44.316  29.294  55.767  0.00  0.00    -0.531 OA
ATOM     13  O   UNL d   1      44.334  30.478  54.949  0.00  0.00    -0.531 OA
ENDBRANCH   8  11
ENDBRANCH   5   6
ENDBRANCH   4   5
ENDBRANCH   1   4
BRANCH   2  14
ATOM     14  C   UNL d   1      44.442  30.176  61.029  0.00  0.00     0.085 A 
ATOM     15  C   UNL d   1      44.611  29.520  61.474  0.00  0.00     0.019 A 
ATOM     16  C   UNL d   1      44.684  29.580  62.286  0.00  0.00     0.002 A 
ATOM     17  C   UNL d   1      44.857  28.913  62.752  0.00  0.00     0.000 C 
ATOM     18  C   UNL d   1      44.586  30.296  62.638  0.00  0.00     0.000 A 
ATOM     19  C   UNL d   1      44.414  30.975  62.203  0.00  0.00     0.002 A 
ATOM     20  C   UNL d   1      44.342  30.915  61.394  0.00  0.00     0.019 A 
ATOM     21  C   UNL d   1      44.314  31.710  62.570  0.00  0.00     0.000 C 
ENDBRANCH   2  14
TORSDOF 5
ENDMDL
MODEL 6
REMARK VINA RESULT:      -5.2      9.882     10.742
REMARK  5 active torsions:
REMARK  status: ('A' for Active; 'I' for Inactive)
REMARK    1  A    between atoms: N_2  and  C_1 
REMARK    2  A    between atoms: C_9  and  C_5 
REMARK    3  A    between atoms: C_6  and  C_10 
REMARK       I    between atoms: N_11  and  C_6 
REMARK    4  A    between atoms: C_8  and  N_11 
REMARK    5  A    between atoms: C_10  and  C_9 
ROOT
ATOM      1  C   UNL d   1      45.021  28.149  57.931  0.00  0.00     0.279 C 
ATOM      2  N   UNL d   1      44.418  28.691  58.109  0.00  0.00    -0.208 NA
ATOM      3  O   UNL d   1      45.815  28.337  58.058  0.00  0.00    -0.265 OA
ENDROOT
BRANCH   1   4
ATOM      4  C   UNL d   1      44.825  27.419  57.627  0.00  0.00     0.063 C 
BRANCH   4   5
ATOM      5  C   UNL d   1      45.147  27.179  56.905  0.00  0.00     0.011 C 
BRANCH   5   6
ATOM      6  C   UNL d   1      44.923  26.447  56.579  0.00  0.00     0.031 A 
ATOM      7  S   UNL d   1      45.087  25.674  56.788  0.00  0.00    -0.064 SA
ATOM      8  C   UNL d   1      44.715  25.169  56.263  0.00  0.00     0.156 A 
ATOM      9  C   UNL d   1      44.317  25.643  55.725  0.00  0.00     0.031 A 
ATOM     10  C   UNL d   1      44.438  26.431  55.910  0.00  0.00     0.009 A 
BRANCH   8  11
ATOM     11  N   UNL d   1      44.733  24.337  56.268  0.00  0.00    -0.107 N 
ATOM     12  O   UNL d   1      44.527  23.932  56.957  0.00  0.00    -0.531 OA
ATOM     13  O   UNL d   1      44.955  23.924  55.582  0.00  0.00    -0.531 OA
ENDBRANCH   8  11
ENDBRANCH   5   6
ENDBRANCH   4   5
ENDBRANCH   1   4
BRANCH   2  14
ATOM     14  C   UNL d   1      44.618  29.433  58.418  0.00  0.00     0.085 A 
ATOM     15  C   UNL d   1      44.750  30.060  57.922  0.00  0.00     0.019 A 
ATOM     16  C   UNL d   1      44.947  30.792  58.228  0.00  0.00     0.002 A 
ATOM     17  C   UNL d   1      45.085  31.442  57.727  0.00  0.00     0.000 C 
ATOM     18  C   UNL d   1      45.008  30.884  59.024  0.00  0.00     0.000 A 
ATOM     19  C   UNL d   1      44.876  30.259  59.545  0.00  0.00     0.002 A 
ATOM     20  C   UNL d   1      44.680  29.529  59.241  0.00  0.00     0.019 A 
ATOM     21  C   UNL d   1      44.940  30.358  60.364  0.00  0.00     0.000 C 
ENDBRANCH   2  14
TORSDOF 5
ENDMDL
MODEL 7
REMARK VINA RESULT:      -5.2     10.291     11.196
REMARK  5 active torsions:
REMARK  status: ('A' for Active; 'I' for Inactive)
REMARK    1  A    between atoms: N_2  and  C_1 
REMARK    2  A    between atoms: C_9  and  C_5 
REMARK    3  A    between atoms: C_6  and  C_10 
REMARK       I    between atoms: N_11  and  C_6 
REMARK    4  A    between atoms: C_8  and  N_11 
REMARK    5  A    between atoms: C_10  and  C_9 
ROOT
ATOM      1  C   UNL d   1      44.948  26.760  56.858  0.00  0.00     0.279 C 
ATOM      2  N   UNL d   1      45.408  27.421  56.658  0.00  0.00    -0.208 NA
ATOM      3  O   UNL d   1      44.314  26.824  57.384  0.00  0.00    -0.265 OA
ENDROOT
BRANCH   1   4
ATOM      4  C   UNL d   1      45.125  26.035  56.530  0.00  0.00     0.063 C 
BRANCH   4   5
ATOM      5  C   UNL d   1      44.513  25.515  56.337  0.00  0.00     0.011 C 
BRANCH   5   6
ATOM      6  C   UNL d   1      44.692  24.788  55.973  0.00  0.00     0.031 A 
ATOM      7  S   UNL d   1      44.911  24.059  56.270  0.00  0.00    -0.064 SA
ATOM      8  C   UNL d   1      45.018  23.538  55.649  0.00  0.00     0.156 A 
ATOM      9  C   UNL d   1      44.862  23.957  54.962  0.00  0.00     0.031 A 
ATOM     10  C   UNL d   1      44.660  24.727  55.149  0.00  0.00     0.009 A 
BRANCH   8  11
ATOM     11  N   UNL d   1      45.242  22.737  55.697  0.00  0.00    -0.107 N 
ATOM     12  O   UNL d   1      44.996  22.212  55.110  0.00  0.00    -0.531 OA
ATOM     13  O   UNL d   1      45.708  22.476  56.333  0.00  0.00    -0.531 OA
ENDBRANCH   8  11
ENDBRANCH   5   6
ENDBRANCH   4   5
ENDBRANCH   1   4
BRANCH   2  14
ATOM     14  C   UNL d   1      45.228  28.157  56.991  0.00  0.00     0.085 A 
ATOM     15  C   UNL d   1      45.364  28.293  57.778  0.00  0.00     0.019 A 
ATOM     16  C   UNL d   1      45.186  29.020  58.107  0.00  0.00     0.002 A 
ATOM     17  C   UNL d   1      45.323  29.170  58.914  0.00  0.00     0.000 C 
ATOM     18  C   UNL d   1      44.875  29.597  57.643  0.00  0.00     0.000 A 
ATOM     19  C   UNL d   1      44.728  29.478  56.840  0.00  0.00     0.002 A 
ATOM     20  C   UNL d   1      44.906  28.754  56.512  0.00  0.00     0.019 A 
ATOM     21  C   UNL d   1      44.408  30.076  56.366  0.00  0.00     0.000 C 
ENDBRANCH   2  14
TORSDOF 5
ENDMDL
