MODEL 1
REMARK VINA RESULT:      -8.3      0.000      0.000
REMARK  3 active torsions:
REMARK  status: ('A' for Active; 'I' for Inactive)
REMARK    1  A    between atoms: C_10  and  N_1 
REMARK    2  A    between atoms: C_11  and  C_14 
REMARK    3  A    between atoms: O_20  and  C_11 
ROOT
ATOM      1  N   UNL d   1     -47.678  13.019  22.848  0.00  0.00    -0.242 N 
ATOM      2  C   UNL d   1     -47.800  13.808  22.976  0.00  0.00     0.267 A 
ATOM      3  C   UNL d   1     -48.363  12.662  22.560  0.00  0.00     0.267 A 
ATOM      4  C   UNL d   1     -48.592  13.963  22.762  0.00  0.00     0.061 A 
ATOM      5  C   UNL d   1     -48.934  13.268  22.509  0.00  0.00     0.061 A 
ATOM      6  C   UNL d   1     -49.724  13.251  22.260  0.00  0.00     0.005 A 
ATOM      7  C   UNL d   1     -49.030  14.664  22.772  0.00  0.00     0.005 A 
ATOM      8  C   UNL d   1     -50.152  13.952  22.274  0.00  0.00     0.000 A 
ATOM      9  C   UNL d   1     -49.811  14.647  22.526  0.00  0.00     0.000 A 
ATOM     10  O   UNL d   1     -47.226  14.329  23.263  0.00  0.00    -0.267 OA
ATOM     11  O   UNL d   1     -48.473  11.852  22.356  0.00  0.00    -0.267 OA
ATOM     12  C   UNL d   1     -50.966  13.928  22.016  0.00  0.00     0.000 C 
ATOM     13  C   UNL d   1     -50.254  15.376  22.541  0.00  0.00     0.000 C 
ENDROOT
BRANCH   1  14
ATOM     14  C   UNL d   1     -47.003  12.565  22.963  0.00  0.00     0.070 A 
ATOM     15  C   UNL d   1     -46.979  12.000  23.570  0.00  0.00     0.018 A 
ATOM     16  C   UNL d   1     -46.313  11.542  23.695  0.00  0.00     0.007 A 
ATOM     17  C   UNL d   1     -45.665  11.654  23.202  0.00  0.00     0.063 A 
ATOM     18  C   UNL d   1     -45.682  12.218  22.591  0.00  0.00     0.007 A 
ATOM     19  C   UNL d   1     -46.358  12.665  22.484  0.00  0.00     0.018 A 
BRANCH  17  20
ATOM     20  C   UNL d   1     -44.970  11.188  23.319  0.00  0.00     0.296 C 
ATOM     21  O   UNL d   1     -44.246  11.470  23.092  0.00  0.00    -0.259 OA
BRANCH  20  22
ATOM     22  O   UNL d   1     -45.047  10.448  23.664  0.00  0.00    -0.296 OA
ATOM     23  C   UNL d   1     -44.402   9.947  23.696  0.00  0.00     0.185 C 
ENDBRANCH  20  22
ENDBRANCH  17  20
ENDBRANCH   1  14
TORSDOF 3
ENDMDL
MODEL 2
REMARK VINA RESULT:      -8.3      1.393      1.646
REMARK  3 active torsions:
REMARK  status: ('A' for Active; 'I' for Inactive)
REMARK    1  A    between atoms: C_10  and  N_1 
REMARK    2  A    between atoms: C_11  and  C_14 
REMARK    3  A    between atoms: O_20  and  C_11 
ROOT
ATOM      1  N   UNL d   1     -47.675  13.882  22.781  0.00  0.00    -0.242 N 
ATOM      2  C   UNL d   1     -47.958  14.638  22.739  0.00  0.00     0.267 A 
ATOM      3  C   UNL d   1     -48.267  13.363  23.025  0.00  0.00     0.267 A 
ATOM      4  C   UNL d   1     -48.762  14.603  22.965  0.00  0.00     0.061 A 
ATOM      5  C   UNL d   1     -48.949  13.830  23.139  0.00  0.00     0.061 A 
ATOM      6  C   UNL d   1     -49.715  13.624  23.381  0.00  0.00     0.005 A 
ATOM      7  C   UNL d   1     -49.334  15.196  23.028  0.00  0.00     0.005 A 
ATOM      8  C   UNL d   1     -50.278  14.219  23.441  0.00  0.00     0.000 A 
ATOM      9  C   UNL d   1     -50.090  14.993  23.268  0.00  0.00     0.000 A 
ATOM     10  O   UNL d   1     -47.509  15.294  22.512  0.00  0.00    -0.267 OA
ATOM     11  O   UNL d   1     -48.205  12.530  23.140  0.00  0.00    -0.267 OA
ATOM     12  C   UNL d   1     -51.064  14.001  23.692  0.00  0.00     0.000 C 
ATOM     13  C   UNL d   1     -50.674  15.613  23.330  0.00  0.00     0.000 C 
ENDROOT
BRANCH   1  14
ATOM     14  C   UNL d   1     -46.924  13.592  22.621  0.00  0.00     0.070 A 
ATOM     15  C   UNL d   1     -46.758  13.249  21.884  0.00  0.00     0.018 A 
ATOM     16  C   UNL d   1     -46.013  12.956  21.711  0.00  0.00     0.007 A 
ATOM     17  C   UNL d   1     -45.431  13.009  22.288  0.00  0.00     0.063 A 
ATOM     18  C   UNL d   1     -45.590  13.351  23.030  0.00  0.00     0.007 A 
ATOM     19  C   UNL d   1     -46.341  13.638  23.180  0.00  0.00     0.018 A 
BRANCH  17  20
ATOM     20  C   UNL d   1     -44.658  12.711  22.126  0.00  0.00     0.296 C 
ATOM     21  O   UNL d   1     -44.378  12.061  22.519  0.00  0.00    -0.259 OA
BRANCH  20  22
ATOM     22  O   UNL d   1     -44.200  13.094  21.563  0.00  0.00    -0.296 OA
ATOM     23  C   UNL d   1     -43.443  12.827  21.405  0.00  0.00     0.185 C 
ENDBRANCH  20  22
ENDBRANCH  17  20
ENDBRANCH   1  14
TORSDOF 3
ENDMDL
MODEL 3
REMARK VINA RESULT:      -6.9      1.149      4.716
REMARK  3 active torsions:
REMARK  status: ('A' for Active; 'I' for Inactive)
REMARK    1  A    between atoms: C_10  and  N_1 
REMARK    2  A    between atoms: C_11  and  C_14 
REMARK    3  A    between atoms: O_20  and  C_11 
ROOT
ATOM      1  N   UNL d   1     -46.902  12.830  22.802  0.00  0.00    -0.242 N 
ATOM      2  C   UNL d   1     -46.153  12.967  22.530  0.00  0.00     0.267 A 
ATOM      3  C   UNL d   1     -46.937  12.114  23.210  0.00  0.00     0.267 A 
ATOM      4  C   UNL d   1     -45.690  12.315  22.772  0.00  0.00     0.061 A 
ATOM      5  C   UNL d   1     -46.166  11.797  23.184  0.00  0.00     0.061 A 
ATOM      6  C   UNL d   1     -45.856  11.094  23.495  0.00  0.00     0.005 A 
ATOM      7  C   UNL d   1     -44.889  12.145  22.656  0.00  0.00     0.005 A 
ATOM      8  C   UNL d   1     -45.060  10.933  23.376  0.00  0.00     0.000 A 
ATOM      9  C   UNL d   1     -44.584  11.450  22.963  0.00  0.00     0.000 A 
ATOM     10  O   UNL d   1     -45.928  13.635  22.099  0.00  0.00    -0.267 OA
ATOM     11  O   UNL d   1     -47.609  11.766  23.580  0.00  0.00    -0.267 OA
ATOM     12  C   UNL d   1     -44.747  10.207  23.698  0.00  0.00     0.000 C 
ATOM     13  C   UNL d   1     -43.756  11.284  22.839  0.00  0.00     0.000 C 
ENDROOT
BRANCH   1  14
ATOM     14  C   UNL d   1     -47.581  13.286  22.727  0.00  0.00     0.070 A 
ATOM     15  C   UNL d   1     -48.134  13.114  22.132  0.00  0.00     0.018 A 
ATOM     16  C   UNL d   1     -48.815  13.560  22.045  0.00  0.00     0.007 A 
ATOM     17  C   UNL d   1     -48.938  14.185  22.564  0.00  0.00     0.063 A 
ATOM     18  C   UNL d   1     -48.389  14.363  23.163  0.00  0.00     0.007 A 
ATOM     19  C   UNL d   1     -47.716  13.904  23.231  0.00  0.00     0.018 A 
BRANCH  17  20
ATOM     20  C   UNL d   1     -49.636  14.655  22.488  0.00  0.00     0.296 C 
ATOM     21  O   UNL d   1     -49.581  15.454  22.370  0.00  0.00    -0.259 OA
BRANCH  20  22
ATOM     22  O   UNL d   1     -50.366  14.284  22.536  0.00  0.00    -0.296 OA
ATOM     23  C   UNL d   1     -51.048  14.734  22.582  0.00  0.00     0.185 C 
ENDBRANCH  20  22
ENDBRANCH  17  20
ENDBRANCH   1  14
TORSDOF 3
ENDMDL
MODEL 4
REMARK VINA RESULT:      -5.8      8.551      9.301
REMARK  3 active torsions:
REMARK  status: ('A' for Active; 'I' for Inactive)
REMARK    1  A    between atoms: C_10  and  N_1 
REMARK    2  A    between atoms: C_11  and  C_14 
REMARK    3  A    between atoms: O_20  and  C_11 
ROOT
ATOM      1  N   UNL d   1     -39.636  15.193  19.656  0.00  0.00    -0.242 N 
ATOM      2  C   UNL d   1     -40.370  15.361  19.361  0.00  0.00     0.267 A 
ATOM      3  C   UNL d   1     -39.073  15.194  19.053  0.00  0.00     0.267 A 
ATOM      4  C   UNL d   1     -40.275  15.473  18.539  0.00  0.00     0.061 A 
ATOM      5  C   UNL d   1     -39.488  15.372  18.352  0.00  0.00     0.061 A 
ATOM      6  C   UNL d   1     -39.226  15.451  17.569  0.00  0.00     0.005 A 
ATOM      7  C   UNL d   1     -40.825  15.656  17.949  0.00  0.00     0.005 A 
ATOM      8  C   UNL d   1     -39.778  15.632  16.990  0.00  0.00     0.000 A 
ATOM      9  C   UNL d   1     -40.565  15.733  17.176  0.00  0.00     0.000 A 
ATOM     10  O   UNL d   1     -41.058  15.403  19.817  0.00  0.00    -0.267 OA
ATOM     11  O   UNL d   1     -38.246  15.047  19.122  0.00  0.00    -0.267 OA
ATOM     12  C   UNL d   1     -39.502  15.712  16.186  0.00  0.00     0.000 C 
ATOM     13  C   UNL d   1     -41.141  15.922  16.575  0.00  0.00     0.000 C 
ENDROOT
BRANCH   1  14
ATOM     14  C   UNL d   1     -39.402  15.034  20.427  0.00  0.00     0.070 A 
ATOM     15  C   UNL d   1     -39.144  15.650  20.920  0.00  0.00     0.018 A 
ATOM     16  C   UNL d   1     -38.908  15.506  21.690  0.00  0.00     0.007 A 
ATOM     17  C   UNL d   1     -38.933  14.732  21.965  0.00  0.00     0.063 A 
ATOM     18  C   UNL d   1     -39.190  14.110  21.477  0.00  0.00     0.007 A 
ATOM     19  C   UNL d   1     -39.421  14.277  20.712  0.00  0.00     0.018 A 
BRANCH  17  20
ATOM     20  C   UNL d   1     -38.692  14.567  22.758  0.00  0.00     0.296 C 
ATOM     21  O   UNL d   1     -38.778  15.127  23.337  0.00  0.00    -0.259 OA
BRANCH  20  22
ATOM     22  O   UNL d   1     -38.372  13.831  22.925  0.00  0.00    -0.296 OA
ATOM     23  C   UNL d   1     -38.131  13.657  23.688  0.00  0.00     0.185 C 
ENDBRANCH  20  22
ENDBRANCH  17  20
ENDBRANCH   1  14
TORSDOF 3
ENDMDL
MODEL 5
REMARK VINA RESULT:      -5.6      9.191     10.313
REMARK  3 active torsions:
REMARK  status: ('A' for Active; 'I' for Inactive)
REMARK    1  A    between atoms: C_10  and  N_1 
REMARK    2  A    between atoms: C_11  and  C_14 
REMARK    3  A    between atoms: O_20  and  C_11 
ROOT
ATOM      1  N   UNL d   1     -38.669  14.197  19.673  0.00  0.00    -0.242 N 
ATOM      2  C   UNL d   1     -38.984  14.739  20.183  0.00  0.00     0.267 A 
ATOM      3  C   UNL d   1     -38.327  13.572  20.087  0.00  0.00     0.267 A 
ATOM      4  C   UNL d   1     -38.840  14.452  20.954  0.00  0.00     0.061 A 
ATOM      5  C   UNL d   1     -38.441  13.743  20.896  0.00  0.00     0.061 A 
ATOM      6  C   UNL d   1     -38.221  13.325  21.577  0.00  0.00     0.005 A 
ATOM      7  C   UNL d   1     -39.031  14.764  21.694  0.00  0.00     0.005 A 
ATOM      8  C   UNL d   1     -38.415  13.642  22.309  0.00  0.00     0.000 A 
ATOM      9  C   UNL d   1     -38.814  14.350  22.367  0.00  0.00     0.000 A 
ATOM     10  O   UNL d   1     -39.368  15.433  19.948  0.00  0.00    -0.267 OA
ATOM     11  O   UNL d   1     -37.940  12.894  19.769  0.00  0.00    -0.267 OA
ATOM     12  C   UNL d   1     -38.186  13.207  23.007  0.00  0.00     0.000 C 
ATOM     13  C   UNL d   1     -39.017  14.682  23.127  0.00  0.00     0.000 C 
ENDROOT
BRANCH   1  14
ATOM     14  C   UNL d   1     -38.650  14.195  18.851  0.00  0.00     0.070 A 
ATOM     15  C   UNL d   1     -39.257  13.828  18.421  0.00  0.00     0.018 A 
ATOM     16  C   UNL d   1     -39.250  13.819  17.603  0.00  0.00     0.007 A 
ATOM     17  C   UNL d   1     -38.625  14.185  17.215  0.00  0.00     0.063 A 
ATOM     18  C   UNL d   1     -38.013  14.555  17.640  0.00  0.00     0.007 A 
ATOM     19  C   UNL d   1     -38.040  14.552  18.457  0.00  0.00     0.018 A 
BRANCH  17  20
ATOM     20  C   UNL d   1     -38.604  14.184  16.371  0.00  0.00     0.296 C 
ATOM     21  O   UNL d   1     -39.033  14.727  15.950  0.00  0.00    -0.259 OA
BRANCH  20  22
ATOM     22  O   UNL d   1     -38.141  13.624  15.990  0.00  0.00    -0.296 OA
ATOM     23  C   UNL d   1     -38.045  13.661  15.179  0.00  0.00     0.185 C 
ENDBRANCH  20  22
ENDBRANCH  17  20
ENDBRANCH   1  14
TORSDOF 3
ENDMDL
