MODEL 1
REMARK VINA RESULT:      63.0      0.000      0.000
REMARK  3 active torsions:
REMARK  status: ('A' for Active; 'I' for Inactive)
REMARK    1  A    between atoms: C_8  and  N_2 
REMARK    2  A    between atoms: C_14  and  C_8 
REMARK    3  A    between atoms: N_13  and  C_14 
ROOT
ATOM      1  C   UNL d   1     -50.955  25.574  33.310  0.00  0.00     0.166 A 
ATOM      2  N   UNL d   1     -51.756  25.735  33.311  0.00  0.00    -0.288 N 
ATOM      3  C   UNL d   1     -50.500  26.266  33.311  0.00  0.00     0.117 A 
ATOM      4  C   UNL d   1     -51.032  26.859  33.312  0.00  0.00     0.037 A 
ATOM      5  C   UNL d   1     -51.824  26.528  33.312  0.00  0.00     0.067 A 
ATOM      6  N   UNL d   1     -50.564  24.885  33.310  0.00  0.00    -0.225 NA
ATOM      7  N   UNL d   1     -49.671  26.271  33.310  0.00  0.00    -0.241 NA
ATOM      8  C   UNL d   1     -49.730  24.893  33.309  0.00  0.00     0.101 A 
ATOM      9  C   UNL d   1     -49.287  25.589  33.309  0.00  0.00     0.099 A 
ATOM     10  C   UNL d   1     -52.480  26.998  33.312  0.00  0.00     0.018 A 
ATOM     11  C   UNL d   1     -50.915  27.652  33.312  0.00  0.00     0.010 A 
ATOM     12  C   UNL d   1     -51.561  28.125  33.313  0.00  0.00     0.035 A 
ATOM     13  C   UNL d   1     -52.353  27.794  33.313  0.00  0.00     0.008 A 
ATOM     14 BR   UNL d   1     -51.478  28.925  33.314  0.00  0.00    -0.049 Br
ATOM     15  C   UNL d   1     -48.455  25.586  33.309  0.00  0.00     0.021 A 
ATOM     16  C   UNL d   1     -49.346  24.207  33.308  0.00  0.00     0.021 A 
ATOM     17  C   UNL d   1     -48.516  24.213  33.308  0.00  0.00     0.002 A 
ATOM     18  C   UNL d   1     -48.072  24.904  33.308  0.00  0.00     0.002 A 
ENDROOT
BRANCH   2  19
ATOM     19  C   UNL d   1     -52.406  25.190  33.311  0.00  0.00     0.101 C 
BRANCH  19  20
ATOM     20  C   UNL d   1     -52.234  24.386  33.500  0.00  0.00     0.100 C 
BRANCH  20  21
ATOM     21  N   UNL d   1     -52.972  24.062  33.742  0.00  0.00    -0.298 N 
ATOM     22  C   UNL d   1     -53.673  24.246  33.308  0.00  0.00     0.107 A 
ATOM     23  C   UNL d   1     -54.405  23.925  33.547  0.00  0.00     0.142 A 
ATOM     24  O   UNL d   1     -54.445  23.421  34.216  0.00  0.00    -0.300 OA
ATOM     25  C   UNL d   1     -53.743  23.242  34.643  0.00  0.00     0.142 A 
ATOM     26  C   UNL d   1     -53.006  23.564  34.405  0.00  0.00     0.107 A 
ENDBRANCH  20  21
ENDBRANCH  19  20
ENDBRANCH   2  19
TORSDOF 3
ENDMDL
MODEL 2
REMARK VINA RESULT:      64.9      2.009      4.343
REMARK  3 active torsions:
REMARK  status: ('A' for Active; 'I' for Inactive)
REMARK    1  A    between atoms: C_8  and  N_2 
REMARK    2  A    between atoms: C_14  and  C_8 
REMARK    3  A    between atoms: N_13  and  C_14 
ROOT
ATOM      1  C   UNL d   1     -51.433  25.226  33.324  0.00  0.00     0.166 A 
ATOM      2  N   UNL d   1     -50.753  25.677  33.318  0.00  0.00    -0.288 N 
ATOM      3  C   UNL d   1     -51.266  24.414  33.335  0.00  0.00     0.117 A 
ATOM      4  C   UNL d   1     -50.470  24.370  33.335  0.00  0.00     0.037 A 
ATOM      5  C   UNL d   1     -50.144  25.164  33.324  0.00  0.00     0.067 A 
ATOM      6  N   UNL d   1     -52.197  25.435  33.322  0.00  0.00    -0.225 NA
ATOM      7  N   UNL d   1     -51.849  23.824  33.343  0.00  0.00    -0.241 NA
ATOM      8  C   UNL d   1     -52.781  24.841  33.331  0.00  0.00     0.101 A 
ATOM      9  C   UNL d   1     -52.602  24.036  33.341  0.00  0.00     0.099 A 
ATOM     10  C   UNL d   1     -49.348  25.295  33.321  0.00  0.00     0.018 A 
ATOM     11  C   UNL d   1     -49.993  23.727  33.343  0.00  0.00     0.010 A 
ATOM     12  C   UNL d   1     -49.201  23.849  33.340  0.00  0.00     0.035 A 
ATOM     13  C   UNL d   1     -48.875  24.643  33.329  0.00  0.00     0.008 A 
ATOM     14 BR   UNL d   1     -48.695  23.224  33.348  0.00  0.00    -0.049 Br
ATOM     15  C   UNL d   1     -53.194  23.449  33.349  0.00  0.00     0.021 A 
ATOM     16  C   UNL d   1     -53.538  25.055  33.329  0.00  0.00     0.021 A 
ATOM     17  C   UNL d   1     -54.121  24.464  33.337  0.00  0.00     0.002 A 
ATOM     18  C   UNL d   1     -53.946  23.661  33.347  0.00  0.00     0.002 A 
ENDROOT
BRANCH   2  19
ATOM     19  C   UNL d   1     -50.679  26.522  33.307  0.00  0.00     0.101 C 
BRANCH  19  20
ATOM     20  C   UNL d   1     -50.681  26.918  34.050  0.00  0.00     0.100 C 
BRANCH  20  21
ATOM     21  N   UNL d   1     -50.804  27.729  33.860  0.00  0.00    -0.298 N 
ATOM     22  C   UNL d   1     -50.151  28.206  33.614  0.00  0.00     0.107 A 
ATOM     23  C   UNL d   1     -50.272  29.009  33.425  0.00  0.00     0.142 A 
ATOM     24  O   UNL d   1     -51.040  29.343  33.478  0.00  0.00    -0.300 OA
ATOM     25  C   UNL d   1     -51.685  28.862  33.723  0.00  0.00     0.142 A 
ATOM     26  C   UNL d   1     -51.566  28.055  33.914  0.00  0.00     0.107 A 
ENDBRANCH  20  21
ENDBRANCH  19  20
ENDBRANCH   2  19
TORSDOF 3
ENDMDL
