MODEL 1
REMARK VINA RESULT:      49.6      0.000      0.000
REMARK  4 active torsions:
REMARK  status: ('A' for Active; 'I' for Inactive)
REMARK    1  A    between atoms: C_11  and  N_2 
REMARK    2  A    between atoms: C_9  and  C_3 
REMARK    3  A    between atoms: C_12  and  C_11 
REMARK    4  A    between atoms: O_19  and  C_16 
ROOT
ATOM      1  N   UNL d   1      14.398  14.481  -2.935  0.00  0.00    -0.206 NA
ATOM      2  N   UNL d   1      13.628  13.477  -3.354  0.00  0.00    -0.273 N 
ATOM      3  C   UNL d   1      13.902  14.233  -3.544  0.00  0.00     0.151 A 
ATOM      4  C   UNL d   1      13.953  13.260  -2.633  0.00  0.00     0.185 A 
ATOM      5  C   UNL d   1      14.433  13.881  -2.368  0.00  0.00     0.199 A 
ATOM      6  N   UNL d   1      13.882  12.569  -2.163  0.00  0.00    -0.224 NA
ATOM      7  N   UNL d   1      14.831  13.817  -1.659  0.00  0.00    -0.223 NA
ATOM      8  C   UNL d   1      14.289  12.516  -1.448  0.00  0.00     0.101 A 
ATOM      9  C   UNL d   1      14.764  13.142  -1.196  0.00  0.00     0.101 A 
ATOM     10  C   UNL d   1      14.217  11.834  -0.987  0.00  0.00     0.021 A 
ATOM     11  C   UNL d   1      15.166  13.082  -0.483  0.00  0.00     0.021 A 
ATOM     12  C   UNL d   1      15.101  12.411  -0.020  0.00  0.00     0.002 A 
ATOM     13  C   UNL d   1      14.624  11.781  -0.271  0.00  0.00     0.002 A 
ENDROOT
BRANCH   3  14
ATOM     14  C   UNL d   1      13.710  14.655  -4.218  0.00  0.00     0.035 A 
ATOM     15  C   UNL d   1      12.945  14.687  -4.478  0.00  0.00     0.005 A 
ATOM     16  C   UNL d   1      12.774  15.103  -5.137  0.00  0.00     0.024 A 
ATOM     17  C   UNL d   1      13.372  15.498  -5.553  0.00  0.00     0.094 A 
ATOM     18  C   UNL d   1      14.126  15.468  -5.300  0.00  0.00     0.024 A 
ATOM     19  C   UNL d   1      14.308  15.050  -4.634  0.00  0.00     0.005 A 
BRANCH  17  20
ATOM     20  O   UNL d   1      13.171  15.904  -6.206  0.00  0.00    -0.328 OA
ATOM     21  C   UNL d   1      13.532  16.838  -6.389  0.00  0.00     0.181 C 
ENDBRANCH  17  20
ENDBRANCH   3  14
BRANCH   2  22
ATOM     22  C   UNL d   1      13.113  13.018  -3.812  0.00  0.00     0.083 C 
BRANCH  22  23
ATOM     23  C   UNL d   1      13.307  12.240  -3.996  0.00  0.00     0.019 C 
ATOM     24  C   UNL d   1      12.910  11.844  -4.603  0.00  0.00     0.002 C 
ENDBRANCH  22  23
ENDBRANCH   2  22
TORSDOF 4
ENDMDL
MODEL 2
REMARK VINA RESULT:      52.6      2.058      3.864
REMARK  4 active torsions:
REMARK  status: ('A' for Active; 'I' for Inactive)
REMARK    1  A    between atoms: C_11  and  N_2 
REMARK    2  A    between atoms: C_9  and  C_3 
REMARK    3  A    between atoms: C_12  and  C_11 
REMARK    4  A    between atoms: O_19  and  C_16 
ROOT
ATOM      1  N   UNL d   1      14.176  14.783  -3.029  0.00  0.00    -0.206 NA
ATOM      2  N   UNL d   1      14.309  13.735  -2.217  0.00  0.00    -0.273 N 
ATOM      3  C   UNL d   1      14.434  14.549  -2.283  0.00  0.00     0.151 A 
ATOM      4  C   UNL d   1      13.976  13.469  -2.918  0.00  0.00     0.185 A 
ATOM      5  C   UNL d   1      13.892  14.117  -3.427  0.00  0.00     0.199 A 
ATOM      6  N   UNL d   1      13.731  12.710  -3.178  0.00  0.00    -0.224 NA
ATOM      7  N   UNL d   1      13.573  14.015  -4.171  0.00  0.00    -0.223 NA
ATOM      8  C   UNL d   1      13.409  12.619  -3.932  0.00  0.00     0.101 A 
ATOM      9  C   UNL d   1      13.331  13.273  -4.428  0.00  0.00     0.101 A 
ATOM     10  C   UNL d   1      13.168  11.871  -4.185  0.00  0.00     0.021 A 
ATOM     11  C   UNL d   1      13.010  13.175  -5.178  0.00  0.00     0.021 A 
ATOM     12  C   UNL d   1      12.768  12.438  -5.436  0.00  0.00     0.002 A 
ATOM     13  C   UNL d   1      12.847  11.780  -4.939  0.00  0.00     0.002 A 
ENDROOT
BRANCH   3  14
ATOM     14  C   UNL d   1      14.756  15.030  -1.706  0.00  0.00     0.035 A 
ATOM     15  C   UNL d   1      14.924  14.735  -0.972  0.00  0.00     0.005 A 
ATOM     16  C   UNL d   1      15.238  15.218  -0.420  0.00  0.00     0.024 A 
ATOM     17  C   UNL d   1      15.393  16.014  -0.594  0.00  0.00     0.094 A 
ATOM     18  C   UNL d   1      15.229  16.307  -1.316  0.00  0.00     0.024 A 
ATOM     19  C   UNL d   1      14.911  15.826  -1.880  0.00  0.00     0.005 A 
BRANCH  17  20
ATOM     20  O   UNL d   1      15.706  16.470  -0.023  0.00  0.00    -0.328 OA
ATOM     21  C   UNL d   1      15.890  17.460  -0.170  0.00  0.00     0.181 C 
ENDBRANCH  17  20
ENDBRANCH   3  14
BRANCH   2  22
ATOM     22  C   UNL d   1      14.488  13.268  -1.557  0.00  0.00     0.083 C 
BRANCH  22  23
ATOM     23  C   UNL d   1      14.251  12.481  -1.531  0.00  0.00     0.019 C 
ATOM     24  C   UNL d   1      14.682  11.929  -1.094  0.00  0.00     0.002 C 
ENDBRANCH  22  23
ENDBRANCH   2  22
TORSDOF 4
ENDMDL
