MODEL 1
REMARK VINA RESULT:      21.4      0.000      0.000
REMARK  7 active torsions:
REMARK  status: ('A' for Active; 'I' for Inactive)
REMARK    1  A    between atoms: C_7  and  C_1 
REMARK    2  A    between atoms: C_11  and  N_2 
REMARK    3  A    between atoms: C_10  and  C_5 
REMARK    4  A    between atoms: C_6  and  C_7 
REMARK    5  A    between atoms: C_18  and  C_11 
REMARK    6  A    between atoms: O_20  and  C_15 
REMARK    7  A    between atoms: N_19  and  C_18 
ROOT
ATOM      1  C   UNL d   1     -42.521-121.896 -51.779  0.00  0.00     0.101 A 
ATOM      2  N   UNL d   1     -43.517-122.086 -50.910  0.00  0.00    -0.269 N 
ATOM      3  C   UNL d   1     -43.209-121.566 -52.101  0.00  0.00     0.256 A 
ATOM      4  C   UNL d   1     -43.822-121.683 -51.566  0.00  0.00     0.304 A 
ATOM      5  C   UNL d   1     -42.718-122.215 -51.045  0.00  0.00     0.075 A 
ATOM      6  O   UNL d   1     -44.608-121.437 -51.668  0.00  0.00    -0.263 OA
ATOM      7  O   UNL d   1     -43.271-121.183 -52.835  0.00  0.00    -0.281 OA
ENDROOT
BRANCH   1   8
ATOM      8  C   UNL d   1     -41.777-121.902 -52.135  0.00  0.00     0.223 C 
ATOM      9  O   UNL d   1     -41.123-121.595 -51.730  0.00  0.00    -0.284 OA
BRANCH   8  10
ATOM     10  C   UNL d   1     -41.675-122.211 -52.893  0.00  0.00     0.139 A 
ATOM     11  O   UNL d   1     -41.593-123.012 -53.086  0.00  0.00    -0.304 OA
ATOM     12  C   UNL d   1     -41.506-123.063 -53.903  0.00  0.00     0.100 A 
ATOM     13  C   UNL d   1     -41.404-123.713 -54.402  0.00  0.00     0.025 A 
ATOM     14  C   UNL d   1     -41.534-122.307 -54.215  0.00  0.00     0.025 A 
ATOM     15  C   UNL d   1     -41.331-123.599 -55.210  0.00  0.00     0.002 A 
ATOM     16  C   UNL d   1     -41.360-122.835 -55.518  0.00  0.00     0.000 A 
ATOM     17  C   UNL d   1     -41.461-122.191 -55.026  0.00  0.00     0.002 A 
ATOM     18  C   UNL d   1     -41.639-121.780 -53.586  0.00  0.00     0.030 A 
ENDBRANCH   8  10
ENDBRANCH   1   8
BRANCH   5  19
ATOM     19  C   UNL d   1     -42.184-122.603 -50.532  0.00  0.00     0.039 A 
ATOM     20  C   UNL d   1     -41.740-122.161 -49.991  0.00  0.00     0.096 A 
ATOM     21  C   UNL d   1     -41.214-122.540 -49.484  0.00  0.00     0.024 A 
ATOM     22  C   UNL d   1     -41.125-123.374 -49.514  0.00  0.00     0.002 A 
ATOM     23  C   UNL d   1     -41.575-123.812 -50.061  0.00  0.00     0.000 A 
ATOM     24  C   UNL d   1     -42.101-123.424 -50.567  0.00  0.00     0.003 A 
BRANCH  20  25
ATOM     25  O   UNL d   1     -41.829-121.341 -49.963  0.00  0.00    -0.328 OA
ATOM     26  C   UNL d   1     -41.171-120.863 -49.810  0.00  0.00     0.181 C 
ENDBRANCH  20  25
ENDBRANCH   5  19
BRANCH   2  27
ATOM     27  C   UNL d   1     -43.948-122.315 -50.240  0.00  0.00     0.102 C 
BRANCH  27  28
ATOM     28  C   UNL d   1     -44.427-122.984 -50.263  0.00  0.00     0.100 C 
BRANCH  28  29
ATOM     29  N   UNL d   1     -44.846-123.219 -49.584  0.00  0.00    -0.299 N 
ATOM     30  C   UNL d   1     -45.575-122.870 -49.414  0.00  0.00     0.100 C 
ATOM     31  C   UNL d   1     -44.530-123.794 -49.090  0.00  0.00     0.100 C 
ENDBRANCH  28  29
ENDBRANCH  27  28
ENDBRANCH   2  27
TORSDOF 7
ENDMDL
