MODEL 1
REMARK VINA RESULT:      33.4      0.000      0.000
REMARK  4 active torsions:
REMARK  status: ('A' for Active; 'I' for Inactive)
REMARK    1  A    between atoms: C_6  and  C_2 
REMARK    2  A    between atoms: C_8  and  N_3 
REMARK       I    between atoms: N_7  and  C_6 
REMARK    3  A    between atoms: C_16  and  N_7 
REMARK    4  A    between atoms: C_9  and  C_16 
ROOT
ATOM      1  C   UNL d   1     -54.797-101.622 -38.701  0.00  0.00     0.211 A 
ATOM      2  C   UNL d   1     -54.840-102.111 -38.031  0.00  0.00     0.199 A 
ATOM      3  N   UNL d   1     -54.811-102.095 -39.372  0.00  0.00    -0.191 N 
ATOM      4  N   UNL d   1     -54.864-102.878 -39.116  0.00  0.00    -0.058 NA
ATOM      5  N   UNL d   1     -54.882-102.879 -38.290  0.00  0.00    -0.122 NA
ATOM      6  N   UNL d   1     -54.747-100.798 -38.699  0.00  0.00    -0.125 N 
ENDROOT
BRANCH   2   7
ATOM      7  C   UNL d   1     -54.841-101.852 -37.249  0.00  0.00     0.302 C 
ATOM      8  N   UNL d   1     -54.712-101.062 -37.072  0.00  0.00    -0.203 NA
ATOM      9  O   UNL d   1     -54.973-102.398 -36.643  0.00  0.00    -0.263 OA
BRANCH   8  10
ATOM     10  C   UNL d   1     -54.714-100.806 -36.282  0.00  0.00     0.127 C 
BRANCH  10  11
ATOM     11  C   UNL d   1     -54.920-100.035 -36.096  0.00  0.00     0.119 A 
ATOM     12  O   UNL d   1     -55.171 -99.451 -36.641  0.00  0.00    -0.304 OA
ATOM     13  C   UNL d   1     -55.319 -98.764 -36.218  0.00  0.00     0.123 A 
ATOM     14  C   UNL d   1     -55.160 -98.919 -35.406  0.00  0.00     0.029 A 
ATOM     15  C   UNL d   1     -54.919 -99.692 -35.348  0.00  0.00     0.028 A 
ENDBRANCH  10  11
ENDBRANCH   8  10
ENDBRANCH   2   7
BRANCH   3  16
ATOM     16  C   UNL d   1     -54.779-101.840 -40.156  0.00  0.00     0.086 A 
ATOM     17  C   UNL d   1     -54.770-101.031 -40.323  0.00  0.00     0.019 A 
ATOM     18  C   UNL d   1     -54.738-100.777 -41.107  0.00  0.00     0.002 A 
ATOM     19  C   UNL d   1     -54.716-101.329 -41.724  0.00  0.00     0.000 A 
ATOM     20  C   UNL d   1     -54.725-102.136 -41.548  0.00  0.00     0.002 A 
ATOM     21  C   UNL d   1     -54.757-102.395 -40.765  0.00  0.00     0.019 A 
ENDBRANCH   3  16
TORSDOF 4
ENDMDL
