MODEL 1
REMARK VINA RESULT:      -4.4      0.000      0.000
REMARK  7 active torsions:
REMARK  status: ('A' for Active; 'I' for Inactive)
REMARK    1  A    between atoms: C_3  and  S_1 
REMARK    2  A    between atoms: N_4  and  S_1 
REMARK    3  A    between atoms: C_6  and  C_2 
REMARK       I    between atoms: N_13  and  C_6 
REMARK    4  A    between atoms: C_17  and  N_13 
REMARK    5  A    between atoms: C_18  and  C_17 
REMARK    6  A    between atoms: C_20  and  C_18 
REMARK    7  A    between atoms: C_19  and  C_20 
ROOT
ATOM      1  C   UNL d   1      58.391  -0.497  29.913  0.00  0.00     0.086 A 
ATOM      2  C   UNL d   1      59.143  -1.432  29.128  0.00  0.00     0.104 A 
ATOM      3  C   UNL d   1      58.825  -1.202  29.853  0.00  0.00     0.020 A 
ATOM      4  C   UNL d   1      58.278  -0.026  29.248  0.00  0.00     0.145 A 
ATOM      5  C   UNL d   1      59.029  -0.957  28.456  0.00  0.00     0.015 A 
ATOM      6  C   UNL d   1      58.601  -0.260  28.516  0.00  0.00     0.030 A 
ATOM      7  F   UNL d   1      57.851   0.672  29.298  0.00  0.00    -0.204 F 
ENDROOT
BRANCH   2   8
ATOM      8  S   UNL d   1      59.578  -2.139  29.067  0.00  0.00     0.271 S 
ATOM      9  O   UNL d   1      58.865  -2.564  29.073  0.00  0.00    -0.200 OA
ATOM     10  O   UNL d   1      60.281  -1.707  29.061  0.00  0.00    -0.200 OA
BRANCH   8  11
ATOM     11  N   UNL d   1      59.999  -2.843  29.007  0.00  0.00    -0.229 N 
ATOM     12  C   UNL d   1      59.725  -3.442  28.513  0.00  0.00     0.092 A 
ATOM     13  C   UNL d   1      60.150  -4.145  28.457  0.00  0.00     0.020 A 
ATOM     14  C   UNL d   1      60.840  -4.252  28.885  0.00  0.00     0.003 A 
ATOM     15  C   UNL d   1      61.113  -3.648  29.380  0.00  0.00     0.020 A 
ATOM     16  C   UNL d   1      60.689  -2.940  29.440  0.00  0.00     0.092 A 
ENDBRANCH   8  11
ENDBRANCH   2   8
BRANCH   1  17
ATOM     17  C   UNL d   1      58.074  -0.271  30.643  0.00  0.00     0.281 C 
ATOM     18  O   UNL d   1      58.449   0.324  31.080  0.00  0.00    -0.265 OA
ATOM     19  N   UNL d   1      57.395  -0.632  30.934  0.00  0.00    -0.206 NA
BRANCH  19  20
ATOM     20  C   UNL d   1      57.077  -0.407  31.663  0.00  0.00     0.102 C 
BRANCH  20  21
ATOM     21  C   UNL d   1      56.593  -0.921  32.082  0.00  0.00     0.021 C 
BRANCH  21  22
ATOM     22  C   UNL d   1      55.937  -0.629  32.480  0.00  0.00     0.002 C 
BRANCH  22  23
ATOM     23  C   UNL d   1      55.927  -0.614  33.308  0.00  0.00     0.000 C 
ATOM     24  C   UNL d   1      55.368  -0.161  33.706  0.00  0.00     0.000 C 
ENDBRANCH  22  23
ENDBRANCH  21  22
ENDBRANCH  20  21
ENDBRANCH  19  20
ENDBRANCH   1  17
TORSDOF 7
ENDMDL
MODEL 2
REMARK VINA RESULT:      -4.1      1.344      4.831
REMARK  7 active torsions:
REMARK  status: ('A' for Active; 'I' for Inactive)
REMARK    1  A    between atoms: C_3  and  S_1 
REMARK    2  A    between atoms: N_4  and  S_1 
REMARK    3  A    between atoms: C_6  and  C_2 
REMARK       I    between atoms: N_13  and  C_6 
REMARK    4  A    between atoms: C_17  and  N_13 
REMARK    5  A    between atoms: C_18  and  C_17 
REMARK    6  A    between atoms: C_20  and  C_18 
REMARK    7  A    between atoms: C_19  and  C_20 
ROOT
ATOM      1  C   UNL d   1      58.491  -0.462  29.887  0.00  0.00     0.086 A 
ATOM      2  C   UNL d   1      57.819  -0.047  31.084  0.00  0.00     0.104 A 
ATOM      3  C   UNL d   1      57.886  -0.565  30.446  0.00  0.00     0.020 A 
ATOM      4  C   UNL d   1      59.025   0.159  29.969  0.00  0.00     0.145 A 
ATOM      5  C   UNL d   1      58.358   0.580  31.167  0.00  0.00     0.015 A 
ATOM      6  C   UNL d   1      58.955   0.682  30.615  0.00  0.00     0.030 A 
ATOM      7  F   UNL d   1      59.625   0.269  29.421  0.00  0.00    -0.204 F 
ENDROOT
BRANCH   2   8
ATOM      8  S   UNL d   1      57.212  -0.151  31.645  0.00  0.00     0.271 S 
ATOM      9  O   UNL d   1      56.918  -0.780  31.192  0.00  0.00    -0.200 OA
ATOM     10  O   UNL d   1      57.514   0.477  32.087  0.00  0.00    -0.200 OA
BRANCH   8  11
ATOM     11  N   UNL d   1      56.610  -0.260  32.194  0.00  0.00    -0.229 N 
ATOM     12  C   UNL d   1      56.387  -1.023  32.407  0.00  0.00     0.092 A 
ATOM     13  C   UNL d   1      55.782  -1.129  32.957  0.00  0.00     0.020 A 
ATOM     14  C   UNL d   1      55.405  -0.483  33.291  0.00  0.00     0.003 A 
ATOM     15  C   UNL d   1      55.631   0.282  33.075  0.00  0.00     0.020 A 
ATOM     16  C   UNL d   1      56.238   0.392  32.523  0.00  0.00     0.092 A 
ENDBRANCH   8  11
ENDBRANCH   2   8
BRANCH   1  17
ATOM     17  C   UNL d   1      58.554  -0.985  29.249  0.00  0.00     0.281 C 
ATOM     18  O   UNL d   1      58.235  -0.768  28.516  0.00  0.00    -0.265 OA
ATOM     19  N   UNL d   1      58.928  -1.711  29.338  0.00  0.00    -0.206 NA
BRANCH  19  20
ATOM     20  C   UNL d   1      58.992  -2.234  28.702  0.00  0.00     0.102 C 
BRANCH  20  21
ATOM     21  C   UNL d   1      59.277  -2.996  28.816  0.00  0.00     0.021 C 
BRANCH  21  22
ATOM     22  C   UNL d   1      60.082  -3.144  28.746  0.00  0.00     0.002 C 
BRANCH  22  23
ATOM     23  C   UNL d   1      60.378  -3.901  28.899  0.00  0.00     0.000 C 
ATOM     24  C   UNL d   1      61.133  -3.994  29.210  0.00  0.00     0.000 C 
ENDBRANCH  22  23
ENDBRANCH  21  22
ENDBRANCH  20  21
ENDBRANCH  19  20
ENDBRANCH   1  17
TORSDOF 7
ENDMDL
MODEL 3
REMARK VINA RESULT:      -2.7      3.034      5.925
REMARK  7 active torsions:
REMARK  status: ('A' for Active; 'I' for Inactive)
REMARK    1  A    between atoms: C_3  and  S_1 
REMARK    2  A    between atoms: N_4  and  S_1 
REMARK    3  A    between atoms: C_6  and  C_2 
REMARK       I    between atoms: N_13  and  C_6 
REMARK    4  A    between atoms: C_17  and  N_13 
REMARK    5  A    between atoms: C_18  and  C_17 
REMARK    6  A    between atoms: C_20  and  C_18 
REMARK    7  A    between atoms: C_19  and  C_20 
ROOT
ATOM      1  C   UNL d   1      56.898  -0.370  31.658  0.00  0.00     0.086 A 
ATOM      2  C   UNL d   1      56.130  -0.548  32.856  0.00  0.00     0.104 A 
ATOM      3  C   UNL d   1      56.542  -0.056  32.338  0.00  0.00     0.020 A 
ATOM      4  C   UNL d   1      56.840  -1.176  31.499  0.00  0.00     0.145 A 
ATOM      5  C   UNL d   1      56.071  -1.361  32.696  0.00  0.00     0.015 A 
ATOM      6  C   UNL d   1      56.422  -1.672  32.023  0.00  0.00     0.030 A 
ATOM      7  F   UNL d   1      57.188  -1.495  30.829  0.00  0.00    -0.204 F 
ENDROOT
BRANCH   2   8
ATOM      8  S   UNL d   1      55.773  -0.232  33.539  0.00  0.00     0.271 S 
ATOM      9  O   UNL d   1      56.135  -0.829  33.988  0.00  0.00    -0.200 OA
ATOM     10  O   UNL d   1      55.417   0.355  33.081  0.00  0.00    -0.200 OA
BRANCH   8  11
ATOM     11  N   UNL d   1      55.424   0.072  34.218  0.00  0.00    -0.229 N 
ATOM     12  C   UNL d   1      55.899   0.342  34.834  0.00  0.00     0.092 A 
ATOM     13  C   UNL d   1      55.546   0.646  35.513  0.00  0.00     0.020 A 
ATOM     14  C   UNL d   1      54.730   0.682  35.579  0.00  0.00     0.003 A 
ATOM     15  C   UNL d   1      54.256   0.410  34.959  0.00  0.00     0.020 A 
ATOM     16  C   UNL d   1      54.607   0.104  34.275  0.00  0.00     0.092 A 
ENDBRANCH   8  11
ENDBRANCH   2   8
BRANCH   1  17
ATOM     17  C   UNL d   1      57.310   0.128  31.142  0.00  0.00     0.281 C 
ATOM     18  O   UNL d   1      56.887   0.660  30.669  0.00  0.00    -0.265 OA
ATOM     19  N   UNL d   1      58.130   0.098  31.097  0.00  0.00    -0.206 NA
BRANCH  19  20
ATOM     20  C   UNL d   1      58.544   0.595  30.582  0.00  0.00     0.102 C 
BRANCH  20  21
ATOM     21  C   UNL d   1      59.364   0.625  30.601  0.00  0.00     0.021 C 
BRANCH  21  22
ATOM     22  C   UNL d   1      59.794   0.456  29.922  0.00  0.00     0.002 C 
BRANCH  22  23
ATOM     23  C   UNL d   1      60.609   0.594  29.903  0.00  0.00     0.000 C 
ATOM     24  C   UNL d   1      61.014   0.583  29.188  0.00  0.00     0.000 C 
ENDBRANCH  22  23
ENDBRANCH  21  22
ENDBRANCH  20  21
ENDBRANCH  19  20
ENDBRANCH   1  17
TORSDOF 7
ENDMDL
MODEL 4
REMARK VINA RESULT:      -2.1      8.192      8.816
REMARK  7 active torsions:
REMARK  status: ('A' for Active; 'I' for Inactive)
REMARK    1  A    between atoms: C_3  and  S_1 
REMARK    2  A    between atoms: N_4  and  S_1 
REMARK    3  A    between atoms: C_6  and  C_2 
REMARK       I    between atoms: N_13  and  C_6 
REMARK    4  A    between atoms: C_17  and  N_13 
REMARK    5  A    between atoms: C_18  and  C_17 
REMARK    6  A    between atoms: C_20  and  C_18 
REMARK    7  A    between atoms: C_19  and  C_20 
ROOT
ATOM      1  C   UNL d   1      59.578  -9.367  34.036  0.00  0.00     0.086 A 
ATOM      2  C   UNL d   1      59.223  -9.604  32.667  0.00  0.00     0.104 A 
ATOM      3  C   UNL d   1      59.009  -9.382  33.432  0.00  0.00     0.020 A 
ATOM      4  C   UNL d   1      60.357  -9.574  33.871  0.00  0.00     0.145 A 
ATOM      5  C   UNL d   1      60.009  -9.813  32.500  0.00  0.00     0.015 A 
ATOM      6  C   UNL d   1      60.571  -9.799  33.097  0.00  0.00     0.030 A 
ATOM      7  F   UNL d   1      60.926  -9.562  34.462  0.00  0.00    -0.204 F 
ENDROOT
BRANCH   2   8
ATOM      8  S   UNL d   1      58.651  -9.619  32.061  0.00  0.00     0.271 S 
ATOM      9  O   UNL d   1      58.058  -9.536  32.635  0.00  0.00    -0.200 OA
ATOM     10  O   UNL d   1      59.250  -9.703  31.499  0.00  0.00    -0.200 OA
BRANCH   8  11
ATOM     11  N   UNL d   1      58.081  -9.633  31.469  0.00  0.00    -0.229 N 
ATOM     12  C   UNL d   1      58.303  -9.518  30.685  0.00  0.00     0.092 A 
ATOM     13  C   UNL d   1      57.727  -9.533  30.096  0.00  0.00     0.020 A 
ATOM     14  C   UNL d   1      56.940  -9.661  30.284  0.00  0.00     0.003 A 
ATOM     15  C   UNL d   1      56.721  -9.776  31.072  0.00  0.00     0.020 A 
ATOM     16  C   UNL d   1      57.295  -9.762  31.667  0.00  0.00     0.092 A 
ENDBRANCH   8  11
ENDBRANCH   2   8
BRANCH   1  17
ATOM     17  C   UNL d   1      59.359  -9.144  34.801  0.00  0.00     0.281 C 
ATOM     18  O   UNL d   1      59.042  -9.712  35.313  0.00  0.00    -0.265 OA
ATOM     19  N   UNL d   1      59.453  -8.367  35.054  0.00  0.00    -0.206 NA
BRANCH  19  20
ATOM     20  C   UNL d   1      59.234  -8.142  35.819  0.00  0.00     0.102 C 
BRANCH  20  21
ATOM     21  C   UNL d   1      59.201  -7.348  36.026  0.00  0.00     0.021 C 
BRANCH  21  22
ATOM     22  C   UNL d   1      59.869  -6.978  36.326  0.00  0.00     0.002 C 
BRANCH  22  23
ATOM     23  C   UNL d   1      59.918  -6.152  36.329  0.00  0.00     0.000 C 
ATOM     24  C   UNL d   1      60.640  -5.780  36.202  0.00  0.00     0.000 C 
ENDBRANCH  22  23
ENDBRANCH  21  22
ENDBRANCH  20  21
ENDBRANCH  19  20
ENDBRANCH   1  17
TORSDOF 7
ENDMDL
