MODEL 1
REMARK VINA RESULT:      62.2      0.000      0.000
REMARK  8 active torsions:
REMARK  status: ('A' for Active; 'I' for Inactive)
REMARK    1  A    between atoms: C_6  and  N_1 
REMARK    2  A    between atoms: C_7  and  C_2 
REMARK    3  A    between atoms: C_8  and  C_6 
REMARK    4  A    between atoms: O_14  and  C_8 
REMARK    5  A    between atoms: O_15  and  C_8 
REMARK    6  A    between atoms: O_18  and  C_11 
REMARK    7  A    between atoms: C_20  and  O_14 
REMARK    8  A    between atoms: C_19  and  O_15 
ROOT
ATOM      1  N   UNL d   1     -51.346  26.103  33.403  0.00  0.00    -0.286 N 
ATOM      2  C   UNL d   1     -52.161  26.179  33.518  0.00  0.00     0.148 A 
ATOM      3  N   UNL d   1     -52.305  26.989  33.582  0.00  0.00    -0.227 NA
ATOM      4  C   UNL d   1     -51.010  26.834  33.398  0.00  0.00     0.083 A 
ATOM      5  C   UNL d   1     -51.612  27.389  33.510  0.00  0.00     0.099 A 
ATOM      6  C   UNL d   1     -50.226  27.082  33.306  0.00  0.00     0.019 A 
ATOM      7  C   UNL d   1     -51.411  28.176  33.526  0.00  0.00     0.021 A 
ATOM      8  C   UNL d   1     -50.067  27.870  33.327  0.00  0.00     0.002 A 
ATOM      9  C   UNL d   1     -50.668  28.425  33.439  0.00  0.00     0.002 A 
ENDROOT
BRANCH   1  10
ATOM     10  C   UNL d   1     -50.954  25.401  33.312  0.00  0.00     0.133 C 
BRANCH  10  11
ATOM     11  C   UNL d   1     -50.358  25.206  33.863  0.00  0.00     0.222 C 
BRANCH  11  12
ATOM     12  O   UNL d   1     -50.358  24.472  34.247  0.00  0.00    -0.282 OA
BRANCH  12  13
ATOM     13  C   UNL d   1     -50.017  23.746  34.387  0.00  0.00     0.125 C 
ATOM     14  C   UNL d   1     -49.669  23.330  33.759  0.00  0.00     0.029 C 
ENDBRANCH  12  13
ENDBRANCH  11  12
BRANCH  11  15
ATOM     15  O   UNL d   1     -49.738  25.756  34.040  0.00  0.00    -0.282 OA
BRANCH  15  16
ATOM     16  C   UNL d   1     -48.938  25.723  34.226  0.00  0.00     0.125 C 
ATOM     17  C   UNL d   1     -48.480  25.079  33.994  0.00  0.00     0.029 C 
ENDBRANCH  15  16
ENDBRANCH  11  15
ENDBRANCH  10  11
ENDBRANCH   1  10
BRANCH   2  18
ATOM     18  C   UNL d   1     -52.716  25.569  33.559  0.00  0.00     0.035 A 
ATOM     19  C   UNL d   1     -53.476  25.724  33.851  0.00  0.00     0.005 A 
ATOM     20  C   UNL d   1     -54.031  25.115  33.892  0.00  0.00     0.024 A 
ATOM     21  C   UNL d   1     -53.826  24.351  33.643  0.00  0.00     0.094 A 
ATOM     22  C   UNL d   1     -53.068  24.201  33.353  0.00  0.00     0.024 A 
ATOM     23  C   UNL d   1     -52.513  24.810  33.311  0.00  0.00     0.005 A 
BRANCH  21  24
ATOM     24  O   UNL d   1     -54.381  23.742  33.684  0.00  0.00    -0.328 OA
ATOM     25  C   UNL d   1     -54.350  23.198  34.309  0.00  0.00     0.181 C 
ENDBRANCH  21  24
ENDBRANCH   2  18
TORSDOF 8
ENDMDL
MODEL 2
REMARK VINA RESULT:      64.6      2.531      3.831
REMARK  8 active torsions:
REMARK  status: ('A' for Active; 'I' for Inactive)
REMARK    1  A    between atoms: C_6  and  N_1 
REMARK    2  A    between atoms: C_7  and  C_2 
REMARK    3  A    between atoms: C_8  and  C_6 
REMARK    4  A    between atoms: O_14  and  C_8 
REMARK    5  A    between atoms: O_15  and  C_8 
REMARK    6  A    between atoms: O_18  and  C_11 
REMARK    7  A    between atoms: C_20  and  O_14 
REMARK    8  A    between atoms: C_19  and  O_15 
ROOT
ATOM      1  N   UNL d   1     -52.233  24.846  34.970  0.00  0.00    -0.286 N 
ATOM      2  C   UNL d   1     -52.638  24.821  35.691  0.00  0.00     0.148 A 
ATOM      3  N   UNL d   1     -53.239  24.264  35.593  0.00  0.00    -0.227 NA
ATOM      4  C   UNL d   1     -52.574  24.327  34.458  0.00  0.00     0.083 A 
ATOM      5  C   UNL d   1     -53.204  23.962  34.848  0.00  0.00     0.099 A 
ATOM      6  C   UNL d   1     -52.397  24.129  33.674  0.00  0.00     0.019 A 
ATOM      7  C   UNL d   1     -53.639  23.410  34.442  0.00  0.00     0.021 A 
ATOM      8  C   UNL d   1     -52.852  23.577  33.306  0.00  0.00     0.002 A 
ATOM      9  C   UNL d   1     -53.482  23.212  33.696  0.00  0.00     0.002 A 
ENDROOT
BRANCH   1  10
ATOM     10  C   UNL d   1     -51.597  25.319  34.813  0.00  0.00     0.133 C 
BRANCH  10  11
ATOM     11  C   UNL d   1     -51.537  25.663  34.054  0.00  0.00     0.222 C 
BRANCH  11  12
ATOM     12  O   UNL d   1     -50.915  25.464  33.545  0.00  0.00    -0.282 OA
BRANCH  12  13
ATOM     13  C   UNL d   1     -50.140  25.545  33.309  0.00  0.00     0.125 C 
ATOM     14  C   UNL d   1     -49.569  25.015  33.596  0.00  0.00     0.029 C 
ENDBRANCH  12  13
ENDBRANCH  11  12
BRANCH  11  15
ATOM     15  O   UNL d   1     -52.114  26.224  33.789  0.00  0.00    -0.282 OA
BRANCH  15  16
ATOM     16  C   UNL d   1     -52.129  26.893  33.310  0.00  0.00     0.125 C 
ATOM     17  C   UNL d   1     -51.693  27.561  33.510  0.00  0.00     0.029 C 
ENDBRANCH  15  16
ENDBRANCH  11  15
ENDBRANCH  10  11
ENDBRANCH   1  10
BRANCH   2  18
ATOM     18  C   UNL d   1     -52.474  25.262  36.368  0.00  0.00     0.035 A 
ATOM     19  C   UNL d   1     -52.995  25.237  37.012  0.00  0.00     0.005 A 
ATOM     20  C   UNL d   1     -52.832  25.678  37.690  0.00  0.00     0.024 A 
ATOM     21  C   UNL d   1     -52.147  26.145  37.724  0.00  0.00     0.094 A 
ATOM     22  C   UNL d   1     -51.631  26.168  37.081  0.00  0.00     0.024 A 
ATOM     23  C   UNL d   1     -51.794  25.727  36.403  0.00  0.00     0.005 A 
BRANCH  21  24
ATOM     24  O   UNL d   1     -51.983  26.587  38.401  0.00  0.00    -0.328 OA
ATOM     25  C   UNL d   1     -51.439  27.211  38.366  0.00  0.00     0.181 C 
ENDBRANCH  21  24
ENDBRANCH   2  18
TORSDOF 8
ENDMDL
