MODEL 1
REMARK VINA RESULT:       2.7      0.000      0.000
REMARK  3 active torsions:
REMARK  status: ('A' for Active; 'I' for Inactive)
REMARK    1  A    between atoms: C_10  and  C_5 
REMARK    2  A    between atoms: C_16  and  C_10 
REMARK    3  A    between atoms: C_17  and  C_16 
ROOT
ATOM      1  C   UNL d   1     -41.138-120.976 -51.974  0.00  0.00     0.111 A 
ATOM      2  C   UNL d   1     -41.143-122.203 -51.219  0.00  0.00     0.062 A 
ATOM      3  C   UNL d   1     -41.146-120.553 -51.199  0.00  0.00     0.213 A 
ATOM      4  C   UNL d   1     -41.150-121.803 -50.528  0.00  0.00     0.101 A 
ATOM      5  C   UNL d   1     -41.137-121.788 -51.944  0.00  0.00     0.018 A 
ATOM      6  O   UNL d   1     -41.152-120.979 -50.520  0.00  0.00    -0.288 OA
ATOM      7  C   UNL d   1     -41.141-123.035 -51.233  0.00  0.00     0.194 A 
ATOM      8  C   UNL d   1     -41.132-120.567 -52.689  0.00  0.00     0.105 C 
ATOM      9  N   UNL d   1     -41.126-120.175 -53.420  0.00  0.00    -0.191 NA
ATOM     10  C   UNL d   1     -41.156-122.212 -49.812  0.00  0.00     0.002 A 
ATOM     11  C   UNL d   1     -41.155-123.024 -49.783  0.00  0.00     0.042 A 
ATOM     12  C   UNL d   1     -41.147-123.453 -50.548  0.00  0.00     0.019 A 
ATOM     13  O   UNL d   1     -41.133-123.463 -51.977  0.00  0.00    -0.287 OA
ATOM     14  N   UNL d   1     -41.148-119.697 -51.147  0.00  0.00    -0.120 N 
ATOM     15  C   UNL d   1     -41.163-123.013 -48.949  0.00  0.00     0.009 C 
ATOM     16  C   UNL d   1     -41.155-123.817 -49.595  0.00  0.00     0.009 C 
ENDROOT
BRANCH   5  17
ATOM     17  C   UNL d   1     -41.129-122.198 -52.698  0.00  0.00     0.001 C 
BRANCH  17  18
ATOM     18  C   UNL d   1     -41.845-122.421 -53.039  0.00  0.00     0.000 C 
BRANCH  18  19
ATOM     19  C   UNL d   1     -41.840-122.623 -53.839  0.00  0.00     0.000 A 
ATOM     20  C   UNL d   1     -42.469-122.354 -54.314  0.00  0.00     0.000 A 
ATOM     21  C   UNL d   1     -42.478-122.546 -55.106  0.00  0.00     0.000 A 
ATOM     22  C   UNL d   1     -41.869-123.002 -55.437  0.00  0.00     0.000 A 
ATOM     23  C   UNL d   1     -41.240-123.271 -54.964  0.00  0.00     0.000 A 
ATOM     24  C   UNL d   1     -41.227-123.082 -54.173  0.00  0.00     0.000 A 
ENDBRANCH  18  19
ENDBRANCH  17  18
ENDBRANCH   5  17
TORSDOF 3
ENDMDL
MODEL 2
REMARK VINA RESULT:       5.0      1.754      2.128
REMARK  3 active torsions:
REMARK  status: ('A' for Active; 'I' for Inactive)
REMARK    1  A    between atoms: C_10  and  C_5 
REMARK    2  A    between atoms: C_16  and  C_10 
REMARK    3  A    between atoms: C_17  and  C_16 
ROOT
ATOM      1  C   UNL d   1     -43.300-121.957 -50.797  0.00  0.00     0.111 A 
ATOM      2  C   UNL d   1     -42.352-122.701 -50.009  0.00  0.00     0.062 A 
ATOM      3  C   UNL d   1     -43.799-121.910 -50.070  0.00  0.00     0.213 A 
ATOM      4  C   UNL d   1     -42.816-122.648 -49.362  0.00  0.00     0.101 A 
ATOM      5  C   UNL d   1     -42.595-122.354 -50.729  0.00  0.00     0.018 A 
ATOM      6  O   UNL d   1     -43.537-122.253 -49.393  0.00  0.00    -0.288 OA
ATOM      7  C   UNL d   1     -41.621-123.099 -49.982  0.00  0.00     0.194 A 
ATOM      8  C   UNL d   1     -43.540-121.615 -51.507  0.00  0.00     0.105 C 
ATOM      9  N   UNL d   1     -43.763-121.277 -52.232  0.00  0.00    -0.191 NA
ATOM     10  C   UNL d   1     -42.576-122.991 -48.651  0.00  0.00     0.002 A 
ATOM     11  C   UNL d   1     -41.870-123.387 -48.583  0.00  0.00     0.042 A 
ATOM     12  C   UNL d   1     -41.369-123.439 -49.301  0.00  0.00     0.019 A 
ATOM     13  O   UNL d   1     -41.123-123.154 -50.680  0.00  0.00    -0.287 OA
ATOM     14  N   UNL d   1     -44.556-121.508 -50.061  0.00  0.00    -0.120 N 
ATOM     15  C   UNL d   1     -42.017-123.552 -47.779  0.00  0.00     0.009 C 
ATOM     16  C   UNL d   1     -41.207-123.808 -48.364  0.00  0.00     0.009 C 
ENDROOT
BRANCH   5  17
ATOM     17  C   UNL d   1     -42.112-122.398 -51.437  0.00  0.00     0.001 C 
BRANCH  17  18
ATOM     18  C   UNL d   1     -42.057-123.115 -51.839  0.00  0.00     0.000 C 
BRANCH  18  19
ATOM     19  C   UNL d   1     -41.742-123.101 -52.602  0.00  0.00     0.000 A 
ATOM     20  C   UNL d   1     -41.723-123.816 -53.029  0.00  0.00     0.000 A 
ATOM     21  C   UNL d   1     -41.415-123.817 -53.784  0.00  0.00     0.000 A 
ATOM     22  C   UNL d   1     -41.124-123.118 -54.124  0.00  0.00     0.000 A 
ATOM     23  C   UNL d   1     -41.143-122.404 -53.697  0.00  0.00     0.000 A 
ATOM     24  C   UNL d   1     -41.449-122.398 -52.944  0.00  0.00     0.000 A 
ENDBRANCH  18  19
ENDBRANCH  17  18
ENDBRANCH   5  17
TORSDOF 3
ENDMDL
