MODEL 1
REMARK VINA RESULT:      -1.4      0.000      0.000
REMARK  5 active torsions:
REMARK  status: ('A' for Active; 'I' for Inactive)
REMARK    1  A    between atoms: C_16  and  N_2 
REMARK    2  A    between atoms: S_9  and  C_4 
REMARK    3  A    between atoms: C_17  and  S_9 
REMARK    4  A    between atoms: C_10  and  C_17 
REMARK       I    between atoms: N_12  and  C_10 
REMARK    5  A    between atoms: C_14  and  N_12 
ROOT
ATOM      1  C   UNL d   1      28.914  16.686 -23.707  0.00  0.00     0.104 A 
ATOM      2  N   UNL d   1      29.854  17.309 -24.580  0.00  0.00    -0.252 N 
ATOM      3  C   UNL d   1      29.107  17.295 -24.212  0.00  0.00     0.274 A 
ATOM      4  C   UNL d   1      30.394  16.704 -24.431  0.00  0.00     0.182 A 
ATOM      5  C   UNL d   1      29.455  16.081 -23.558  0.00  0.00     0.095 A 
ATOM      6  N   UNL d   1      30.188  16.085 -23.913  0.00  0.00    -0.222 NA
ATOM      7  S   UNL d   1      28.233  16.529 -23.273  0.00  0.00    -0.081 SA
ATOM      8  C   UNL d   1      29.107  15.550 -23.032  0.00  0.00     0.026 A 
ATOM      9  O   UNL d   1      28.566  17.900 -24.361  0.00  0.00    -0.266 OA
ATOM     10  C   UNL d   1      28.357  15.823 -22.856  0.00  0.00     0.031 A 
ATOM     11  C   UNL d   1      27.823  15.453 -22.349  0.00  0.00     0.007 C 
ENDROOT
BRANCH   4  12
ATOM     12  S   UNL d   1      31.144  16.709 -24.795  0.00  0.00    -0.044 SA
BRANCH  12  13
ATOM     13  C   UNL d   1      31.812  16.902 -24.349  0.00  0.00     0.101 C 
BRANCH  13  14
ATOM     14  C   UNL d   1      32.532  16.529 -24.503  0.00  0.00     0.286 C 
ATOM     15  N   UNL d   1      33.232  16.840 -24.196  0.00  0.00    -0.208 NA
ATOM     16  O   UNL d   1      32.552  15.843 -24.962  0.00  0.00    -0.265 OA
BRANCH  15  17
ATOM     17  C   UNL d   1      33.211  17.526 -23.737  0.00  0.00     0.085 A 
ATOM     18  C   UNL d   1      33.236  18.258 -24.099  0.00  0.00     0.019 A 
ATOM     19  C   UNL d   1      33.215  18.942 -23.639  0.00  0.00     0.002 A 
ATOM     20  C   UNL d   1      33.241  19.694 -24.009  0.00  0.00     0.000 C 
ATOM     21  C   UNL d   1      33.170  18.886 -22.822  0.00  0.00     0.000 A 
ATOM     22  C   UNL d   1      33.146  18.146 -22.460  0.00  0.00     0.002 A 
ATOM     23  C   UNL d   1      33.166  17.469 -22.919  0.00  0.00     0.019 A 
ENDBRANCH  15  17
ENDBRANCH  13  14
ENDBRANCH  12  13
ENDBRANCH   4  12
BRANCH   2  24
ATOM     24  C   UNL d   1      30.054  17.930 -25.096  0.00  0.00     0.085 C 
ATOM     25  C   UNL d   1      29.677  18.661 -25.027  0.00  0.00     0.021 C 
ENDBRANCH   2  24
TORSDOF 5
ENDMDL
MODEL 2
REMARK VINA RESULT:       0.4      2.864      5.123
REMARK  5 active torsions:
REMARK  status: ('A' for Active; 'I' for Inactive)
REMARK    1  A    between atoms: C_16  and  N_2 
REMARK    2  A    between atoms: S_9  and  C_4 
REMARK    3  A    between atoms: C_17  and  S_9 
REMARK    4  A    between atoms: C_10  and  C_17 
REMARK       I    between atoms: N_12  and  C_10 
REMARK    5  A    between atoms: C_14  and  N_12 
ROOT
ATOM      1  C   UNL d   1      33.124  21.180 -21.808  0.00  0.00     0.104 A 
ATOM      2  N   UNL d   1      33.201  19.775 -22.041  0.00  0.00    -0.252 N 
ATOM      3  C   UNL d   1      33.162  20.421 -21.516  0.00  0.00     0.274 A 
ATOM      4  C   UNL d   1      33.201  19.911 -22.855  0.00  0.00     0.182 A 
ATOM      5  C   UNL d   1      33.123  21.315 -22.622  0.00  0.00     0.095 A 
ATOM      6  N   UNL d   1      33.161  20.692 -23.144  0.00  0.00    -0.222 NA
ATOM      7  S   UNL d   1      33.081  21.910 -21.431  0.00  0.00    -0.081 SA
ATOM      8  C   UNL d   1      33.080  22.129 -22.747  0.00  0.00     0.026 A 
ATOM      9  O   UNL d   1      33.163  20.286 -20.703  0.00  0.00    -0.266 OA
ATOM     10  C   UNL d   1      33.054  22.495 -22.017  0.00  0.00     0.031 A 
ATOM     11  C   UNL d   1      33.009  23.310 -21.896  0.00  0.00     0.007 C 
ENDROOT
BRANCH   4  12
ATOM     12  S   UNL d   1      33.240  19.272 -23.389  0.00  0.00    -0.044 SA
BRANCH  12  13
ATOM     13  C   UNL d   1      32.590  19.102 -23.869  0.00  0.00     0.101 C 
BRANCH  13  14
ATOM     14  C   UNL d   1      32.689  19.022 -24.685  0.00  0.00     0.286 C 
ATOM     15  N   UNL d   1      32.291  18.426 -25.093  0.00  0.00    -0.208 NA
ATOM     16  O   UNL d   1      33.188  19.539 -25.093  0.00  0.00    -0.265 OA
BRANCH  15  17
ATOM     17  C   UNL d   1      31.793  17.909 -24.685  0.00  0.00     0.085 A 
ATOM     18  C   UNL d   1      32.072  17.178 -24.449  0.00  0.00     0.019 A 
ATOM     19  C   UNL d   1      31.575  16.663 -24.041  0.00  0.00     0.002 A 
ATOM     20  C   UNL d   1      31.860  15.913 -23.798  0.00  0.00     0.000 C 
ATOM     21  C   UNL d   1      30.802  16.884 -23.875  0.00  0.00     0.000 A 
ATOM     22  C   UNL d   1      30.524  17.622 -24.115  0.00  0.00     0.002 A 
ATOM     23  C   UNL d   1      31.020  18.131 -24.519  0.00  0.00     0.019 A 
ENDBRANCH  15  17
ENDBRANCH  13  14
ENDBRANCH  12  13
ENDBRANCH   4  12
BRANCH   2  24
ATOM     24  C   UNL d   1      33.241  18.999 -21.748  0.00  0.00     0.085 C 
ATOM     25  C   UNL d   1      33.185  18.863 -20.935  0.00  0.00     0.021 C 
ENDBRANCH   2  24
TORSDOF 5
ENDMDL
MODEL 3
REMARK VINA RESULT:       0.8      1.421      2.270
REMARK  5 active torsions:
REMARK  status: ('A' for Active; 'I' for Inactive)
REMARK    1  A    between atoms: C_16  and  N_2 
REMARK    2  A    between atoms: S_9  and  C_4 
REMARK    3  A    between atoms: C_17  and  S_9 
REMARK    4  A    between atoms: C_10  and  C_17 
REMARK       I    between atoms: N_12  and  C_10 
REMARK    5  A    between atoms: C_14  and  N_12 
ROOT
ATOM      1  C   UNL d   1      30.127  16.598 -23.918  0.00  0.00     0.104 A 
ATOM      2  N   UNL d   1      31.539  16.711 -24.083  0.00  0.00    -0.252 N 
ATOM      3  C   UNL d   1      30.869  16.268 -23.861  0.00  0.00     0.274 A 
ATOM      4  C   UNL d   1      31.444  17.483 -24.359  0.00  0.00     0.182 A 
ATOM      5  C   UNL d   1      30.033  17.370 -24.194  0.00  0.00     0.095 A 
ATOM      6  N   UNL d   1      30.680  17.812 -24.413  0.00  0.00    -0.222 NA
ATOM      7  S   UNL d   1      29.381  16.300 -23.742  0.00  0.00    -0.081 SA
ATOM      8  C   UNL d   1      29.228  17.548 -24.188  0.00  0.00     0.026 A 
ATOM      9  O   UNL d   1      30.963  15.496 -23.586  0.00  0.00    -0.266 OA
ATOM     10  C   UNL d   1      28.826  16.892 -23.912  0.00  0.00     0.031 A 
ATOM     11  C   UNL d   1      28.008  16.840 -23.820  0.00  0.00     0.007 C 
ENDROOT
BRANCH   4  12
ATOM     12  S   UNL d   1      32.108  17.935 -24.584  0.00  0.00    -0.044 SA
BRANCH  12  13
ATOM     13  C   UNL d   1      32.468  18.433 -24.033  0.00  0.00     0.101 C 
BRANCH  13  14
ATOM     14  C   UNL d   1      32.916  19.077 -24.289  0.00  0.00     0.286 C 
ATOM     15  N   UNL d   1      33.234  19.604 -23.740  0.00  0.00    -0.208 NA
ATOM     16  O   UNL d   1      33.047  19.194 -25.096  0.00  0.00    -0.265 OA
BRANCH  15  17
ATOM     17  C   UNL d   1      33.103  19.487 -22.933  0.00  0.00     0.085 A 
ATOM     18  C   UNL d   1      32.869  20.114 -22.465  0.00  0.00     0.019 A 
ATOM     19  C   UNL d   1      32.739  19.997 -21.659  0.00  0.00     0.002 A 
ATOM     20  C   UNL d   1      32.499  20.639 -21.177  0.00  0.00     0.000 C 
ATOM     21  C   UNL d   1      32.843  19.252 -21.331  0.00  0.00     0.000 A 
ATOM     22  C   UNL d   1      33.079  18.621 -21.807  0.00  0.00     0.002 A 
ATOM     23  C   UNL d   1      33.208  18.742 -22.605  0.00  0.00     0.019 A 
ENDBRANCH  15  17
ENDBRANCH  13  14
ENDBRANCH  12  13
ENDBRANCH   4  12
BRANCH   2  24
ATOM     24  C   UNL d   1      32.298  16.378 -24.028  0.00  0.00     0.085 C 
ATOM     25  C   UNL d   1      32.605  15.945 -24.660  0.00  0.00     0.021 C 
ENDBRANCH   2  24
TORSDOF 5
ENDMDL
