MODEL 1
REMARK VINA RESULT:      -7.1      0.000      0.000
REMARK  3 active torsions:
REMARK  status: ('A' for Active; 'I' for Inactive)
REMARK    1  A    between atoms: C_4  and  C_1 
REMARK    2  A    between atoms: N_7  and  C_4 
REMARK    3  A    between atoms: C_9  and  N_7 
ROOT
ATOM      1  C   UNL d   1     -47.934  13.601  22.771  0.00  0.00     0.171 C 
ATOM      2  S   UNL d   1     -47.846  13.262  22.011  0.00  0.00    -0.054 SA
ENDROOT
BRANCH   1   3
ATOM      3  C   UNL d   1     -48.620  14.012  22.963  0.00  0.00     0.191 A 
ATOM      4  N   UNL d   1     -49.340  13.672  23.197  0.00  0.00    -0.223 NA
ATOM      5  C   UNL d   1     -49.875  14.287  23.334  0.00  0.00     0.101 A 
ATOM      6  C   UNL d   1     -50.667  14.281  23.576  0.00  0.00     0.021 A 
ATOM      7  C   UNL d   1     -49.488  15.003  23.186  0.00  0.00     0.101 A 
ATOM      8  C   UNL d   1     -51.064  14.999  23.667  0.00  0.00     0.002 A 
ATOM      9  C   UNL d   1     -50.677  15.715  23.519  0.00  0.00     0.002 A 
ATOM     10  C   UNL d   1     -49.892  15.715  23.279  0.00  0.00     0.021 A 
ATOM     11  N   UNL d   1     -48.716  14.826  22.958  0.00  0.00    -0.223 NA
ENDBRANCH   1   3
BRANCH   1  12
ATOM     12  N   UNL d   1     -47.326  13.518  23.322  0.00  0.00    -0.232 NA
BRANCH  12  13
ATOM     13  C   UNL d   1     -46.849  12.843  23.323  0.00  0.00     0.082 A 
ATOM     14  C   UNL d   1     -46.111  12.862  22.948  0.00  0.00     0.019 A 
ATOM     15  C   UNL d   1     -45.635  12.190  22.949  0.00  0.00     0.002 A 
ATOM     16  C   UNL d   1     -45.893  11.493  23.325  0.00  0.00     0.000 A 
ATOM     17  C   UNL d   1     -46.633  11.485  23.698  0.00  0.00     0.002 A 
ATOM     18  C   UNL d   1     -45.418  10.822  23.327  0.00  0.00     0.000 C 
ATOM     19  C   UNL d   1     -47.106  12.159  23.695  0.00  0.00     0.019 A 
ENDBRANCH  12  13
ENDBRANCH   1  12
TORSDOF 3
ENDMDL
MODEL 2
REMARK VINA RESULT:      -7.0      0.642      1.382
REMARK  3 active torsions:
REMARK  status: ('A' for Active; 'I' for Inactive)
REMARK    1  A    between atoms: C_4  and  C_1 
REMARK    2  A    between atoms: N_7  and  C_4 
REMARK    3  A    between atoms: C_9  and  N_7 
ROOT
ATOM      1  C   UNL d   1     -48.050  13.502  22.847  0.00  0.00     0.171 C 
ATOM      2  S   UNL d   1     -48.088  12.968  22.204  0.00  0.00    -0.054 SA
ENDROOT
BRANCH   1   3
ATOM      3  C   UNL d   1     -48.700  13.969  23.034  0.00  0.00     0.191 A 
ATOM      4  N   UNL d   1     -48.706  14.798  23.080  0.00  0.00    -0.223 NA
ATOM      5  C   UNL d   1     -49.472  15.033  23.284  0.00  0.00     0.101 A 
ATOM      6  C   UNL d   1     -49.801  15.783  23.406  0.00  0.00     0.021 A 
ATOM      7  C   UNL d   1     -49.938  14.354  23.362  0.00  0.00     0.101 A 
ATOM      8  C   UNL d   1     -50.599  15.843  23.608  0.00  0.00     0.002 A 
ATOM      9  C   UNL d   1     -51.064  15.164  23.687  0.00  0.00     0.002 A 
ATOM     10  C   UNL d   1     -50.733  14.422  23.564  0.00  0.00     0.021 A 
ATOM     11  N   UNL d   1     -49.456  13.703  23.207  0.00  0.00    -0.223 NA
ENDBRANCH   1   3
BRANCH   1  12
ATOM     12  N   UNL d   1     -47.355  13.553  23.288  0.00  0.00    -0.232 NA
BRANCH  12  13
ATOM     13  C   UNL d   1     -46.630  13.340  22.956  0.00  0.00     0.082 A 
ATOM     14  C   UNL d   1     -46.349  12.566  23.043  0.00  0.00     0.019 A 
ATOM     15  C   UNL d   1     -45.626  12.354  22.713  0.00  0.00     0.002 A 
ATOM     16  C   UNL d   1     -45.176  12.914  22.291  0.00  0.00     0.000 A 
ATOM     17  C   UNL d   1     -45.466  13.686  22.209  0.00  0.00     0.002 A 
ATOM     18  C   UNL d   1     -44.454  12.702  21.961  0.00  0.00     0.000 C 
ATOM     19  C   UNL d   1     -46.189  13.894  22.541  0.00  0.00     0.019 A 
ENDBRANCH  12  13
ENDBRANCH   1  12
TORSDOF 3
ENDMDL
MODEL 3
REMARK VINA RESULT:      -6.7      2.073      5.001
REMARK  3 active torsions:
REMARK  status: ('A' for Active; 'I' for Inactive)
REMARK    1  A    between atoms: C_4  and  C_1 
REMARK    2  A    between atoms: N_7  and  C_4 
REMARK    3  A    between atoms: C_9  and  N_7 
ROOT
ATOM      1  C   UNL d   1     -46.883  11.939  23.455  0.00  0.00     0.171 C 
ATOM      2  S   UNL d   1     -46.968  12.769  23.514  0.00  0.00    -0.054 SA
ENDROOT
BRANCH   1   3
ATOM      3  C   UNL d   1     -46.135  11.603  23.416  0.00  0.00     0.191 A 
ATOM      4  N   UNL d   1     -45.925  10.849  23.694  0.00  0.00    -0.223 NA
ATOM      5  C   UNL d   1     -45.120  10.739  23.541  0.00  0.00     0.101 A 
ATOM      6  C   UNL d   1     -44.615  10.101  23.695  0.00  0.00     0.021 A 
ATOM      7  C   UNL d   1     -44.833  11.420  23.170  0.00  0.00     0.101 A 
ATOM      8  C   UNL d   1     -43.822  10.155  23.473  0.00  0.00     0.002 A 
ATOM      9  C   UNL d   1     -43.535  10.837  23.102  0.00  0.00     0.002 A 
ATOM     10  C   UNL d   1     -44.040  11.466  22.952  0.00  0.00     0.021 A 
ATOM     11  N   UNL d   1     -45.463  11.947  23.096  0.00  0.00    -0.223 NA
ENDBRANCH   1   3
BRANCH   1  12
ATOM     12  N   UNL d   1     -47.558  11.465  23.437  0.00  0.00    -0.232 NA
BRANCH  12  13
ATOM     13  C   UNL d   1     -48.278  11.768  23.165  0.00  0.00     0.082 A 
ATOM     14  C   UNL d   1     -48.761  12.201  23.679  0.00  0.00     0.019 A 
ATOM     15  C   UNL d   1     -49.478  12.503  23.409  0.00  0.00     0.002 A 
ATOM     16  C   UNL d   1     -49.717  12.374  22.622  0.00  0.00     0.000 A 
ATOM     17  C   UNL d   1     -49.226  11.940  22.115  0.00  0.00     0.002 A 
ATOM     18  C   UNL d   1     -50.433  12.675  22.351  0.00  0.00     0.000 C 
ATOM     19  C   UNL d   1     -48.511  11.640  22.389  0.00  0.00     0.019 A 
ENDBRANCH  12  13
ENDBRANCH   1  12
TORSDOF 3
ENDMDL
MODEL 4
REMARK VINA RESULT:      -6.3      0.693      4.493
REMARK  3 active torsions:
REMARK  status: ('A' for Active; 'I' for Inactive)
REMARK    1  A    between atoms: C_4  and  C_1 
REMARK    2  A    between atoms: N_7  and  C_4 
REMARK    3  A    between atoms: C_9  and  N_7 
ROOT
ATOM      1  C   UNL d   1     -48.096  13.352  22.636  0.00  0.00     0.171 C 
ATOM      2  S   UNL d   1     -48.679  13.119  22.084  0.00  0.00    -0.054 SA
ENDROOT
BRANCH   1   3
ATOM      3  C   UNL d   1     -47.488  12.837  22.837  0.00  0.00     0.191 A 
ATOM      4  N   UNL d   1     -46.686  12.935  22.646  0.00  0.00    -0.223 NA
ATOM      5  C   UNL d   1     -46.273  12.289  22.955  0.00  0.00     0.101 A 
ATOM      6  C   UNL d   1     -45.469  12.092  22.937  0.00  0.00     0.021 A 
ATOM      7  C   UNL d   1     -46.816  11.795  23.335  0.00  0.00     0.101 A 
ATOM      8  C   UNL d   1     -45.218  11.396  23.302  0.00  0.00     0.002 A 
ATOM      9  C   UNL d   1     -45.761  10.902  23.682  0.00  0.00     0.002 A 
ATOM     10  C   UNL d   1     -46.557  11.102  23.698  0.00  0.00     0.021 A 
ATOM     11  N   UNL d   1     -47.561  12.138  23.258  0.00  0.00    -0.223 NA
ENDBRANCH   1   3
BRANCH   1  12
ATOM     12  N   UNL d   1     -48.140  14.103  22.976  0.00  0.00    -0.232 NA
BRANCH  12  13
ATOM     13  C   UNL d   1     -48.870  14.475  23.080  0.00  0.00     0.082 A 
ATOM     14  C   UNL d   1     -49.030  15.184  22.682  0.00  0.00     0.019 A 
ATOM     15  C   UNL d   1     -49.757  15.555  22.786  0.00  0.00     0.002 A 
ATOM     16  C   UNL d   1     -50.332  15.221  23.288  0.00  0.00     0.000 A 
ATOM     17  C   UNL d   1     -50.162  14.512  23.681  0.00  0.00     0.002 A 
ATOM     18  C   UNL d   1     -51.058  15.592  23.391  0.00  0.00     0.000 C 
ATOM     19  C   UNL d   1     -49.434  14.144  23.575  0.00  0.00     0.019 A 
ENDBRANCH  12  13
ENDBRANCH   1  12
TORSDOF 3
ENDMDL
MODEL 5
REMARK VINA RESULT:      -5.7      8.664     10.302
REMARK  3 active torsions:
REMARK  status: ('A' for Active; 'I' for Inactive)
REMARK    1  A    between atoms: C_4  and  C_1 
REMARK    2  A    between atoms: N_7  and  C_4 
REMARK    3  A    between atoms: C_9  and  N_7 
ROOT
ATOM      1  C   UNL d   1     -39.886  15.038  17.817  0.00  0.00     0.171 C 
ATOM      2  S   UNL d   1     -40.467  14.914  17.228  0.00  0.00    -0.054 SA
ENDROOT
BRANCH   1   3
ATOM      3  C   UNL d   1     -40.102  15.073  18.609  0.00  0.00     0.191 A 
ATOM      4  N   UNL d   1     -39.960  15.709  19.124  0.00  0.00    -0.223 NA
ATOM      5  C   UNL d   1     -40.270  15.508  19.864  0.00  0.00     0.101 A 
ATOM      6  C   UNL d   1     -40.290  15.921  20.581  0.00  0.00     0.021 A 
ATOM      7  C   UNL d   1     -40.602  14.753  19.807  0.00  0.00     0.101 A 
ATOM      8  C   UNL d   1     -40.645  15.570  21.237  0.00  0.00     0.002 A 
ATOM      9  C   UNL d   1     -40.977  14.814  21.180  0.00  0.00     0.002 A 
ATOM     10  C   UNL d   1     -40.955  14.408  20.467  0.00  0.00     0.021 A 
ATOM     11  N   UNL d   1     -40.495  14.492  19.032  0.00  0.00    -0.223 NA
ENDBRANCH   1   3
BRANCH   1  12
ATOM     12  N   UNL d   1     -39.097  15.124  17.593  0.00  0.00    -0.232 NA
BRANCH  12  13
ATOM     13  C   UNL d   1     -38.808  14.744  16.919  0.00  0.00     0.082 A 
ATOM     14  C   UNL d   1     -38.718  15.169  16.214  0.00  0.00     0.019 A 
ATOM     15  C   UNL d   1     -38.430  14.791  15.542  0.00  0.00     0.002 A 
ATOM     16  C   UNL d   1     -38.228  13.984  15.569  0.00  0.00     0.000 A 
ATOM     17  C   UNL d   1     -38.321  13.567  16.279  0.00  0.00     0.002 A 
ATOM     18  C   UNL d   1     -37.940  13.606  14.898  0.00  0.00     0.000 C 
ATOM     19  C   UNL d   1     -38.609  13.948  16.949  0.00  0.00     0.019 A 
ENDBRANCH  12  13
ENDBRANCH   1  12
TORSDOF 3
ENDMDL
MODEL 6
REMARK VINA RESULT:      -5.6      9.086     10.060
REMARK  3 active torsions:
REMARK  status: ('A' for Active; 'I' for Inactive)
REMARK    1  A    between atoms: C_4  and  C_1 
REMARK    2  A    between atoms: N_7  and  C_4 
REMARK    3  A    between atoms: C_9  and  N_7 
ROOT
ATOM      1  C   UNL d   1     -39.549  14.918  19.924  0.00  0.00     0.171 C 
ATOM      2  S   UNL d   1     -39.142  15.586  19.628  0.00  0.00    -0.054 SA
ENDROOT
BRANCH   1   3
ATOM      3  C   UNL d   1     -39.237  14.488  20.551  0.00  0.00     0.191 A 
ATOM      4  N   UNL d   1     -39.496  14.520  21.339  0.00  0.00    -0.223 NA
ATOM      5  C   UNL d   1     -39.027  13.999  21.779  0.00  0.00     0.101 A 
ATOM      6  C   UNL d   1     -39.032  13.804  22.583  0.00  0.00     0.021 A 
ATOM      7  C   UNL d   1     -38.482  13.648  21.266  0.00  0.00     0.101 A 
ATOM      8  C   UNL d   1     -38.486  13.254  22.866  0.00  0.00     0.002 A 
ATOM      9  C   UNL d   1     -37.941  12.902  22.353  0.00  0.00     0.002 A 
ATOM     10  C   UNL d   1     -37.940  13.099  21.556  0.00  0.00     0.021 A 
ATOM     11  N   UNL d   1     -38.617  13.953  20.512  0.00  0.00    -0.223 NA
ENDBRANCH   1   3
BRANCH   1  12
ATOM     12  N   UNL d   1     -40.265  14.697  19.578  0.00  0.00    -0.232 NA
BRANCH  12  13
ATOM     13  C   UNL d   1     -40.449  14.929  18.807  0.00  0.00     0.082 A 
ATOM     14  C   UNL d   1     -40.770  15.680  18.670  0.00  0.00     0.019 A 
ATOM     15  C   UNL d   1     -40.954  15.911  17.901  0.00  0.00     0.002 A 
ATOM     16  C   UNL d   1     -40.818  15.393  17.263  0.00  0.00     0.000 A 
ATOM     17  C   UNL d   1     -40.497  14.644  17.411  0.00  0.00     0.002 A 
ATOM     18  C   UNL d   1     -41.002  15.624  16.496  0.00  0.00     0.000 C 
ATOM     19  C   UNL d   1     -40.315  14.417  18.181  0.00  0.00     0.019 A 
ENDBRANCH  12  13
ENDBRANCH   1  12
TORSDOF 3
ENDMDL
MODEL 7
REMARK VINA RESULT:      -5.4      8.929      9.361
REMARK  3 active torsions:
REMARK  status: ('A' for Active; 'I' for Inactive)
REMARK    1  A    between atoms: C_4  and  C_1 
REMARK    2  A    between atoms: N_7  and  C_4 
REMARK    3  A    between atoms: C_9  and  N_7 
ROOT
ATOM      1  C   UNL d   1     -40.044  14.676  20.456  0.00  0.00     0.171 C 
ATOM      2  S   UNL d   1     -40.657  14.420  20.963  0.00  0.00    -0.054 SA
ENDROOT
BRANCH   1   3
ATOM      3  C   UNL d   1     -40.198  14.819  19.661  0.00  0.00     0.191 A 
ATOM      4  N   UNL d   1     -40.529  15.513  19.348  0.00  0.00    -0.223 NA
ATOM      5  C   UNL d   1     -40.585  15.418  18.528  0.00  0.00     0.101 A 
ATOM      6  C   UNL d   1     -40.868  15.922  17.936  0.00  0.00     0.021 A 
ATOM      7  C   UNL d   1     -40.291  14.669  18.336  0.00  0.00     0.101 A 
ATOM      8  C   UNL d   1     -40.853  15.667  17.151  0.00  0.00     0.002 A 
ATOM      9  C   UNL d   1     -40.559  14.918  16.959  0.00  0.00     0.002 A 
ATOM     10  C   UNL d   1     -40.280  14.422  17.550  0.00  0.00     0.021 A 
ATOM     11  N   UNL d   1     -40.055  14.307  19.038  0.00  0.00    -0.223 NA
ENDBRANCH   1   3
BRANCH   1  12
ATOM     12  N   UNL d   1     -39.285  14.782  20.762  0.00  0.00    -0.232 NA
BRANCH  12  13
ATOM     13  C   UNL d   1     -39.064  14.421  21.471  0.00  0.00     0.082 A 
ATOM     14  C   UNL d   1     -38.746  13.656  21.462  0.00  0.00     0.019 A 
ATOM     15  C   UNL d   1     -38.525  13.297  22.168  0.00  0.00     0.002 A 
ATOM     16  C   UNL d   1     -38.620  13.699  22.891  0.00  0.00     0.000 A 
ATOM     17  C   UNL d   1     -38.939  14.464  22.891  0.00  0.00     0.002 A 
ATOM     18  C   UNL d   1     -38.400  13.340  23.597  0.00  0.00     0.000 C 
ATOM     19  C   UNL d   1     -39.158  14.820  22.182  0.00  0.00     0.019 A 
ENDBRANCH  12  13
ENDBRANCH   1  12
TORSDOF 3
ENDMDL
MODEL 8
REMARK VINA RESULT:      -5.1      9.351     10.906
REMARK  3 active torsions:
REMARK  status: ('A' for Active; 'I' for Inactive)
REMARK    1  A    between atoms: C_4  and  C_1 
REMARK    2  A    between atoms: N_7  and  C_4 
REMARK    3  A    between atoms: C_9  and  N_7 
ROOT
ATOM      1  C   UNL d   1     -38.582  14.224  18.997  0.00  0.00     0.171 C 
ATOM      2  S   UNL d   1     -38.122  14.870  18.734  0.00  0.00    -0.054 SA
ENDROOT
BRANCH   1   3
ATOM      3  C   UNL d   1     -38.612  14.037  19.797  0.00  0.00     0.191 A 
ATOM      4  N   UNL d   1     -38.030  13.625  20.222  0.00  0.00    -0.223 NA
ATOM      5  C   UNL d   1     -38.288  13.561  21.005  0.00  0.00     0.101 A 
ATOM      6  C   UNL d   1     -37.941  13.211  21.670  0.00  0.00     0.021 A 
ATOM      7  C   UNL d   1     -39.025  13.931  21.064  0.00  0.00     0.101 A 
ATOM      8  C   UNL d   1     -38.341  13.237  22.392  0.00  0.00     0.002 A 
ATOM      9  C   UNL d   1     -39.078  13.607  22.450  0.00  0.00     0.002 A 
ATOM     10  C   UNL d   1     -39.418  13.953  21.788  0.00  0.00     0.021 A 
ATOM     11  N   UNL d   1     -39.218  14.222  20.316  0.00  0.00    -0.223 NA
ENDBRANCH   1   3
BRANCH   1  12
ATOM     12  N   UNL d   1     -39.003  13.778  18.445  0.00  0.00    -0.232 NA
BRANCH  12  13
ATOM     13  C   UNL d   1     -38.769  13.759  17.653  0.00  0.00     0.082 A 
ATOM     14  C   UNL d   1     -38.236  13.179  17.396  0.00  0.00     0.019 A 
ATOM     15  C   UNL d   1     -38.003  13.160  16.607  0.00  0.00     0.002 A 
ATOM     16  C   UNL d   1     -38.301  13.720  16.067  0.00  0.00     0.000 A 
ATOM     17  C   UNL d   1     -38.834  14.296  16.334  0.00  0.00     0.002 A 
ATOM     18  C   UNL d   1     -38.068  13.701  15.279  0.00  0.00     0.000 C 
ATOM     19  C   UNL d   1     -39.064  14.312  17.124  0.00  0.00     0.019 A 
ENDBRANCH  12  13
ENDBRANCH   1  12
TORSDOF 3
ENDMDL
