MODEL 1
REMARK VINA RESULT:     -10.0      0.000      0.000
REMARK  5 active torsions:
REMARK  status: ('A' for Active; 'I' for Inactive)
REMARK    1  A    between atoms: C_6  and  N_1 
REMARK    2  A    between atoms: C_8  and  C_3 
REMARK    3  A    between atoms: C_7  and  C_6 
REMARK    4  A    between atoms: C_9  and  C_7 
REMARK    5  A    between atoms: C_14  and  C_8 
ROOT
ATOM      1  N   UNL d   1      53.206  32.178  53.421  0.00  0.00    -0.289 N 
ATOM      2  N   UNL d   1      54.004  31.579  54.320  0.00  0.00    -0.227 NA
ATOM      3  C   UNL d   1      53.756  32.315  54.025  0.00  0.00     0.148 A 
ATOM      4  C   UNL d   1      53.114  31.358  53.342  0.00  0.00     0.083 A 
ATOM      5  C   UNL d   1      53.603  30.988  53.894  0.00  0.00     0.099 A 
ATOM      6  C   UNL d   1      52.645  30.893  52.838  0.00  0.00     0.019 A 
ATOM      7  C   UNL d   1      53.628  30.166  53.946  0.00  0.00     0.021 A 
ATOM      8  C   UNL d   1      52.672  30.074  52.892  0.00  0.00     0.002 A 
ATOM      9  C   UNL d   1      53.164  29.710  53.446  0.00  0.00     0.002 A 
ENDROOT
BRANCH   1  10
ATOM     10  C   UNL d   1      52.823  32.748  52.980  0.00  0.00     0.082 C 
BRANCH  10  11
ATOM     11  C   UNL d   1      52.146  32.984  53.395  0.00  0.00     0.019 C 
BRANCH  11  12
ATOM     12  C   UNL d   1      51.598  33.482  53.036  0.00  0.00     0.002 A 
ATOM     13  C   UNL d   1      50.837  33.547  53.349  0.00  0.00     0.000 A 
ATOM     14  C   UNL d   1      50.289  34.046  52.987  0.00  0.00     0.000 A 
ATOM     15  C   UNL d   1      50.502  34.474  52.320  0.00  0.00     0.000 A 
ATOM     16  C   UNL d   1      51.265  34.405  52.012  0.00  0.00     0.000 A 
ATOM     17  C   UNL d   1      51.807  33.910  52.371  0.00  0.00     0.000 A 
ENDBRANCH  11  12
ENDBRANCH  10  11
ENDBRANCH   1  10
BRANCH   3  18
ATOM     18  C   UNL d   1      54.014  33.048  54.288  0.00  0.00     0.037 C 
BRANCH  18  19
ATOM     19  C   UNL d   1      54.623  33.094  54.847  0.00  0.00     0.003 C 
ATOM     20  C   UNL d   1      54.893  33.826  55.091  0.00  0.00     0.000 C 
ENDBRANCH  18  19
ENDBRANCH   3  18
TORSDOF 5
ENDMDL
MODEL 2
REMARK VINA RESULT:      -9.7      0.502      2.423
REMARK  5 active torsions:
REMARK  status: ('A' for Active; 'I' for Inactive)
REMARK    1  A    between atoms: C_6  and  N_1 
REMARK    2  A    between atoms: C_8  and  C_3 
REMARK    3  A    between atoms: C_7  and  C_6 
REMARK    4  A    between atoms: C_9  and  C_7 
REMARK    5  A    between atoms: C_14  and  C_8 
ROOT
ATOM      1  N   UNL d   1      53.212  32.828  53.579  0.00  0.00    -0.289 N 
ATOM      2  N   UNL d   1      53.861  31.905  54.307  0.00  0.00    -0.227 NA
ATOM      3  C   UNL d   1      53.333  32.014  53.676  0.00  0.00     0.148 A 
ATOM      4  C   UNL d   1      53.666  33.222  54.150  0.00  0.00     0.083 A 
ATOM      5  C   UNL d   1      54.065  32.656  54.598  0.00  0.00     0.099 A 
ATOM      6  C   UNL d   1      53.770  34.027  54.325  0.00  0.00     0.019 A 
ATOM      7  C   UNL d   1      54.564  32.886  55.213  0.00  0.00     0.021 A 
ATOM      8  C   UNL d   1      54.268  34.254  54.938  0.00  0.00     0.002 A 
ATOM      9  C   UNL d   1      54.664  33.683  55.382  0.00  0.00     0.002 A 
ENDROOT
BRANCH   1  10
ATOM     10  C   UNL d   1      52.732  33.181  53.021  0.00  0.00     0.082 C 
BRANCH  10  11
ATOM     11  C   UNL d   1      52.011  33.370  53.382  0.00  0.00     0.019 C 
BRANCH  11  12
ATOM     12  C   UNL d   1      51.413  33.725  52.942  0.00  0.00     0.002 A 
ATOM     13  C   UNL d   1      50.663  33.823  53.274  0.00  0.00     0.000 A 
ATOM     14  C   UNL d   1      50.065  34.179  52.831  0.00  0.00     0.000 A 
ATOM     15  C   UNL d   1      50.218  34.434  52.067  0.00  0.00     0.000 A 
ATOM     16  C   UNL d   1      50.970  34.333  51.741  0.00  0.00     0.000 A 
ATOM     17  C   UNL d   1      51.561  33.981  52.179  0.00  0.00     0.000 A 
ENDBRANCH  11  12
ENDBRANCH  10  11
ENDBRANCH   1  10
BRANCH   3  18
ATOM     18  C   UNL d   1      52.991  31.418  53.228  0.00  0.00     0.037 C 
BRANCH  18  19
ATOM     19  C   UNL d   1      53.249  30.636  53.317  0.00  0.00     0.003 C 
ATOM     20  C   UNL d   1      52.861  30.035  52.923  0.00  0.00     0.000 C 
ENDBRANCH  18  19
ENDBRANCH   3  18
TORSDOF 5
ENDMDL
MODEL 3
REMARK VINA RESULT:      -9.3      0.684      3.168
REMARK  5 active torsions:
REMARK  status: ('A' for Active; 'I' for Inactive)
REMARK    1  A    between atoms: C_6  and  N_1 
REMARK    2  A    between atoms: C_8  and  C_3 
REMARK    3  A    between atoms: C_7  and  C_6 
REMARK    4  A    between atoms: C_9  and  C_7 
REMARK    5  A    between atoms: C_14  and  C_8 
ROOT
ATOM      1  N   UNL d   1      53.269  32.033  53.266  0.00  0.00    -0.289 N 
ATOM      2  N   UNL d   1      52.061  31.668  52.807  0.00  0.00    -0.227 NA
ATOM      3  C   UNL d   1      52.555  32.318  52.958  0.00  0.00     0.148 A 
ATOM      4  C   UNL d   1      53.218  31.207  53.305  0.00  0.00     0.083 A 
ATOM      5  C   UNL d   1      52.476  30.981  53.023  0.00  0.00     0.099 A 
ATOM      6  C   UNL d   1      53.751  30.624  53.561  0.00  0.00     0.019 A 
ATOM      7  C   UNL d   1      52.265  30.184  52.996  0.00  0.00     0.021 A 
ATOM      8  C   UNL d   1      53.538  29.831  53.533  0.00  0.00     0.002 A 
ATOM      9  C   UNL d   1      52.795  29.612  53.251  0.00  0.00     0.002 A 
ENDROOT
BRANCH   1  10
ATOM     10  C   UNL d   1      53.912  32.485  53.490  0.00  0.00     0.082 C 
BRANCH  10  11
ATOM     11  C   UNL d   1      53.864  32.614  54.307  0.00  0.00     0.019 C 
BRANCH  11  12
ATOM     12  C   UNL d   1      54.417  33.097  54.678  0.00  0.00     0.002 A 
ATOM     13  C   UNL d   1      55.046  33.409  54.243  0.00  0.00     0.000 A 
ATOM     14  C   UNL d   1      55.599  33.894  54.616  0.00  0.00     0.000 A 
ATOM     15  C   UNL d   1      55.522  34.063  55.415  0.00  0.00     0.000 A 
ATOM     16  C   UNL d   1      54.891  33.749  55.845  0.00  0.00     0.000 A 
ATOM     17  C   UNL d   1      54.344  33.269  55.474  0.00  0.00     0.000 A 
ENDBRANCH  11  12
ENDBRANCH  10  11
ENDBRANCH   1  10
BRANCH   3  18
ATOM     18  C   UNL d   1      52.365  33.105  52.825  0.00  0.00     0.037 C 
BRANCH  18  19
ATOM     19  C   UNL d   1      51.619  33.304  52.525  0.00  0.00     0.003 C 
ATOM     20  C   UNL d   1      51.432  34.088  52.394  0.00  0.00     0.000 C 
ENDBRANCH  18  19
ENDBRANCH   3  18
TORSDOF 5
ENDMDL
MODEL 4
REMARK VINA RESULT:      -9.2      0.816      3.415
REMARK  5 active torsions:
REMARK  status: ('A' for Active; 'I' for Inactive)
REMARK    1  A    between atoms: C_6  and  N_1 
REMARK    2  A    between atoms: C_8  and  C_3 
REMARK    3  A    between atoms: C_7  and  C_6 
REMARK    4  A    between atoms: C_9  and  C_7 
REMARK    5  A    between atoms: C_14  and  C_8 
ROOT
ATOM      1  N   UNL d   1      52.936  33.014  53.922  0.00  0.00    -0.289 N 
ATOM      2  N   UNL d   1      53.345  34.290  53.828  0.00  0.00    -0.227 NA
ATOM      3  C   UNL d   1      53.552  33.535  54.107  0.00  0.00     0.148 A 
ATOM      4  C   UNL d   1      52.348  33.444  53.528  0.00  0.00     0.083 A 
ATOM      5  C   UNL d   1      52.597  34.228  53.470  0.00  0.00     0.099 A 
ATOM      6  C   UNL d   1      51.611  33.226  53.211  0.00  0.00     0.019 A 
ATOM      7  C   UNL d   1      52.121  34.792  53.101  0.00  0.00     0.021 A 
ATOM      8  C   UNL d   1      51.139  33.790  52.845  0.00  0.00     0.002 A 
ATOM      9  C   UNL d   1      51.394  34.572  52.790  0.00  0.00     0.002 A 
ENDROOT
BRANCH   1  10
ATOM     10  C   UNL d   1      52.912  32.216  54.096  0.00  0.00     0.082 C 
BRANCH  10  11
ATOM     11  C   UNL d   1      53.227  31.801  53.452  0.00  0.00     0.019 C 
BRANCH  11  12
ATOM     12  C   UNL d   1      53.194  30.979  53.439  0.00  0.00     0.002 A 
ATOM     13  C   UNL d   1      53.416  30.550  54.109  0.00  0.00     0.000 A 
ATOM     14  C   UNL d   1      53.382  29.725  54.094  0.00  0.00     0.000 A 
ATOM     15  C   UNL d   1      53.129  29.338  53.416  0.00  0.00     0.000 A 
ATOM     16  C   UNL d   1      52.909  29.773  52.750  0.00  0.00     0.000 A 
ATOM     17  C   UNL d   1      52.943  30.589  52.765  0.00  0.00     0.000 A 
ENDBRANCH  11  12
ENDBRANCH  10  11
ENDBRANCH   1  10
BRANCH   3  18
ATOM     18  C   UNL d   1      54.247  33.344  54.499  0.00  0.00     0.037 C 
BRANCH  18  19
ATOM     19  C   UNL d   1      54.658  33.928  54.919  0.00  0.00     0.003 C 
ATOM     20  C   UNL d   1      55.361  33.740  55.290  0.00  0.00     0.000 C 
ENDBRANCH  18  19
ENDBRANCH   3  18
TORSDOF 5
ENDMDL
MODEL 5
REMARK VINA RESULT:      -9.1      0.798      3.706
REMARK  5 active torsions:
REMARK  status: ('A' for Active; 'I' for Inactive)
REMARK    1  A    between atoms: C_6  and  N_1 
REMARK    2  A    between atoms: C_8  and  C_3 
REMARK    3  A    between atoms: C_7  and  C_6 
REMARK    4  A    between atoms: C_9  and  C_7 
REMARK    5  A    between atoms: C_14  and  C_8 
ROOT
ATOM      1  N   UNL d   1      53.313  33.078  53.651  0.00  0.00    -0.289 N 
ATOM      2  N   UNL d   1      52.884  34.292  54.034  0.00  0.00    -0.227 NA
ATOM      3  C   UNL d   1      52.714  33.641  53.547  0.00  0.00     0.148 A 
ATOM      4  C   UNL d   1      53.853  33.380  54.202  0.00  0.00     0.083 A 
ATOM      5  C   UNL d   1      53.591  34.126  54.439  0.00  0.00     0.099 A 
ATOM      6  C   UNL d   1      54.555  33.075  54.524  0.00  0.00     0.019 A 
ATOM      7  C   UNL d   1      54.021  34.565  54.989  0.00  0.00     0.021 A 
ATOM      8  C   UNL d   1      54.981  33.514  55.073  0.00  0.00     0.002 A 
ATOM      9  C   UNL d   1      54.714  34.259  55.305  0.00  0.00     0.002 A 
ENDROOT
BRANCH   1  10
ATOM     10  C   UNL d   1      53.364  32.354  53.277  0.00  0.00     0.082 C 
BRANCH  10  11
ATOM     11  C   UNL d   1      53.023  31.784  53.772  0.00  0.00     0.019 C 
BRANCH  11  12
ATOM     12  C   UNL d   1      53.039  30.991  53.553  0.00  0.00     0.002 A 
ATOM     13  C   UNL d   1      53.281  30.420  54.098  0.00  0.00     0.000 A 
ATOM     14  C   UNL d   1      53.296  29.625  53.877  0.00  0.00     0.000 A 
ATOM     15  C   UNL d   1      53.070  29.407  53.119  0.00  0.00     0.000 A 
ATOM     16  C   UNL d   1      52.829  29.982  52.579  0.00  0.00     0.000 A 
ATOM     17  C   UNL d   1      52.814  30.768  52.798  0.00  0.00     0.000 A 
ENDBRANCH  11  12
ENDBRANCH  10  11
ENDBRANCH   1  10
BRANCH   3  18
ATOM     18  C   UNL d   1      52.066  33.571  53.050  0.00  0.00     0.037 C 
BRANCH  18  19
ATOM     19  C   UNL d   1      51.608  34.238  52.874  0.00  0.00     0.003 C 
ATOM     20  C   UNL d   1      50.958  34.166  52.383  0.00  0.00     0.000 C 
ENDBRANCH  18  19
ENDBRANCH   3  18
TORSDOF 5
ENDMDL
MODEL 6
REMARK VINA RESULT:      -8.9      0.803      3.732
REMARK  5 active torsions:
REMARK  status: ('A' for Active; 'I' for Inactive)
REMARK    1  A    between atoms: C_6  and  N_1 
REMARK    2  A    between atoms: C_8  and  C_3 
REMARK    3  A    between atoms: C_7  and  C_6 
REMARK    4  A    between atoms: C_9  and  C_7 
REMARK    5  A    between atoms: C_14  and  C_8 
ROOT
ATOM      1  N   UNL d   1      52.792  32.825  53.196  0.00  0.00    -0.289 N 
ATOM      2  N   UNL d   1      51.700  32.100  52.903  0.00  0.00    -0.227 NA
ATOM      3  C   UNL d   1      52.510  32.055  53.082  0.00  0.00     0.148 A 
ATOM      4  C   UNL d   1      52.158  33.347  53.086  0.00  0.00     0.083 A 
ATOM      5  C   UNL d   1      51.486  32.904  52.906  0.00  0.00     0.099 A 
ATOM      6  C   UNL d   1      52.100  34.175  53.126  0.00  0.00     0.019 A 
ATOM      7  C   UNL d   1      50.764  33.276  52.767  0.00  0.00     0.021 A 
ATOM      8  C   UNL d   1      51.380  34.544  52.988  0.00  0.00     0.002 A 
ATOM      9  C   UNL d   1      50.711  34.095  52.808  0.00  0.00     0.002 A 
ENDROOT
BRANCH   1  10
ATOM     10  C   UNL d   1      53.559  33.034  53.382  0.00  0.00     0.082 C 
BRANCH  10  11
ATOM     11  C   UNL d   1      53.657  32.955  54.200  0.00  0.00     0.019 C 
BRANCH  11  12
ATOM     12  C   UNL d   1      54.321  33.276  54.566  0.00  0.00     0.002 A 
ATOM     13  C   UNL d   1      54.303  33.443  55.374  0.00  0.00     0.000 A 
ATOM     14  C   UNL d   1      54.971  33.764  55.739  0.00  0.00     0.000 A 
ATOM     15  C   UNL d   1      55.645  33.914  55.298  0.00  0.00     0.000 A 
ATOM     16  C   UNL d   1      55.657  33.745  54.490  0.00  0.00     0.000 A 
ATOM     17  C   UNL d   1      54.997  33.428  54.130  0.00  0.00     0.000 A 
ENDBRANCH  11  12
ENDBRANCH  10  11
ENDBRANCH   1  10
BRANCH   3  18
ATOM     18  C   UNL d   1      52.950  31.365  53.137  0.00  0.00     0.037 C 
BRANCH  18  19
ATOM     19  C   UNL d   1      52.614  30.642  52.911  0.00  0.00     0.003 C 
ATOM     20  C   UNL d   1      53.002  29.944  53.083  0.00  0.00     0.000 C 
ENDBRANCH  18  19
ENDBRANCH   3  18
TORSDOF 5
ENDMDL
