MODEL 1
REMARK VINA RESULT:      -3.3      0.000      0.000
REMARK  5 active torsions:
REMARK  status: ('A' for Active; 'I' for Inactive)
REMARK    1  A    between atoms: S_9  and  C_2 
REMARK    2  A    between atoms: C_19  and  S_9 
REMARK    3  A    between atoms: C_11  and  C_19 
REMARK       I    between atoms: N_16  and  C_11 
REMARK    4  A    between atoms: C_22  and  N_16 
REMARK    5  A    between atoms: C_21  and  C_22 
ROOT
ATOM      1  C   UNL d   1      33.034  21.958 -22.220  0.00  0.00     0.092 A 
ATOM      2  C   UNL d   1      33.150  21.135 -22.177  0.00  0.00     0.120 A 
ATOM      3  N   UNL d   1      33.204  20.772 -21.447  0.00  0.00    -0.238 NA
ATOM      4  C   UNL d   1      32.973  22.415 -21.532  0.00  0.00     0.013 A 
ATOM      5  C   UNL d   1      33.030  22.031 -20.795  0.00  0.00     0.018 A 
ATOM      6  C   UNL d   1      33.144  21.216 -20.753  0.00  0.00     0.082 A 
ATOM      7  C   UNL d   1      32.979  22.328 -22.964  0.00  0.00     0.103 C 
ATOM      8  N   UNL d   1      32.923  22.704 -23.697  0.00  0.00    -0.191 NA
ATOM      9  C   UNL d   1      32.858  23.230 -21.574  0.00  0.00     0.001 A 
ATOM     10  C   UNL d   1      32.970  22.480 -20.097  0.00  0.00     0.002 A 
ATOM     11  C   UNL d   1      33.200  20.845 -20.021  0.00  0.00     0.021 C 
ATOM     12  C   UNL d   1      32.799  23.674 -20.884  0.00  0.00     0.000 A 
ATOM     13  C   UNL d   1      32.854  23.303 -20.140  0.00  0.00     0.000 A 
ENDROOT
BRANCH   2  14
ATOM     14  S   UNL d   1      33.209  20.691 -22.875  0.00  0.00    -0.062 SA
BRANCH  14  15
ATOM     15  C   UNL d   1      33.241  19.866 -22.834  0.00  0.00     0.099 C 
BRANCH  15  16
ATOM     16  C   UNL d   1      33.040  19.415 -23.493  0.00  0.00     0.286 C 
ATOM     17  N   UNL d   1      32.635  18.701 -23.393  0.00  0.00    -0.206 NA
ATOM     18  O   UNL d   1      33.241  19.674 -24.253  0.00  0.00    -0.265 OA
BRANCH  17  19
ATOM     19  C   UNL d   1      32.428  18.241 -24.049  0.00  0.00     0.102 C 
BRANCH  19  20
ATOM     20  C   UNL d   1      32.007  17.538 -23.945  0.00  0.00     0.021 A 
ATOM     21  C   UNL d   1      31.192  17.534 -24.028  0.00  0.00     0.028 A 
ATOM     22  C   UNL d   1      30.772  16.831 -23.925  0.00  0.00     0.119 A 
ATOM     23  O   UNL d   1      29.967  16.662 -23.973  0.00  0.00    -0.300 OA
ATOM     24  C   UNL d   1      31.167  16.143 -23.740  0.00  0.00     0.119 A 
ATOM     25  C   UNL d   1      29.868  15.859 -23.815  0.00  0.00     0.304 A 
ATOM     26  O   UNL d   1      30.612  15.537 -23.670  0.00  0.00    -0.300 OA
ATOM     27  C   UNL d   1      32.001  16.147 -23.654  0.00  0.00     0.026 A 
ATOM     28  C   UNL d   1      32.410  16.853 -23.760  0.00  0.00     0.004 A 
ENDBRANCH  19  20
ENDBRANCH  17  19
ENDBRANCH  15  16
ENDBRANCH  14  15
ENDBRANCH   2  14
TORSDOF 5
ENDMDL
