MODEL 1
REMARK VINA RESULT:      -7.5      0.000      0.000
REMARK  3 active torsions:
REMARK  status: ('A' for Active; 'I' for Inactive)
REMARK    1  A    between atoms: C_9  and  C_4 
REMARK    2  A    between atoms: C_10  and  C_7 
REMARK    3  A    between atoms: C_11  and  C_10 
ROOT
ATOM      1  C   UNL d   1     -46.513  12.553  23.092  0.00  0.00     0.179 A 
ATOM      2  N   UNL d   1     -46.924  11.954  23.479  0.00  0.00    -0.282 N 
ATOM      3  N   UNL d   1     -45.727  12.305  22.990  0.00  0.00    -0.221 NA
ATOM      4  C   UNL d   1     -45.654  11.554  23.314  0.00  0.00     0.101 A 
ATOM      5  S   UNL d   1     -47.038  13.172  22.952  0.00  0.00    -0.048 SA
ATOM      6  C   UNL d   1     -46.391  11.334  23.617  0.00  0.00     0.101 A 
ATOM      7  C   UNL d   1     -47.770  12.954  23.252  0.00  0.00     0.050 A 
ATOM      8  C   UNL d   1     -47.698  12.196  23.580  0.00  0.00     0.089 A 
ENDROOT
BRANCH   7   9
ATOM      9  C   UNL d   1     -48.456  13.410  23.231  0.00  0.00     0.008 C 
BRANCH   9  10
ATOM     10  C   UNL d   1     -49.049  13.232  22.688  0.00  0.00     0.001 A 
ATOM     11  C   UNL d   1     -49.661  12.717  22.900  0.00  0.00     0.002 A 
ATOM     12  C   UNL d   1     -50.254  12.538  22.357  0.00  0.00     0.030 A 
ATOM     13  C   UNL d   1     -50.239  12.874  21.604  0.00  0.00     0.140 A 
ATOM     14  C   UNL d   1     -49.632  13.387  21.392  0.00  0.00     0.030 A 
ATOM     15  F   UNL d   1     -50.840  12.691  21.060  0.00  0.00    -0.204 F 
ATOM     16  C   UNL d   1     -49.035  13.568  21.935  0.00  0.00     0.002 A 
ENDBRANCH   9  10
ENDBRANCH   7   9
BRANCH   4  17
ATOM     17  C   UNL d   1     -44.973  11.099  23.337  0.00  0.00     0.019 A 
ATOM     18  C   UNL d   1     -44.270  11.390  23.028  0.00  0.00     0.002 A 
ATOM     19  C   UNL d   1     -43.587  10.930  23.052  0.00  0.00     0.000 A 
ATOM     20  C   UNL d   1     -43.609  10.175  23.386  0.00  0.00     0.000 A 
ATOM     21  C   UNL d   1     -44.315   9.882  23.696  0.00  0.00     0.000 A 
ATOM     22  C   UNL d   1     -44.998  10.341  23.673  0.00  0.00     0.002 A 
ENDBRANCH   4  17
TORSDOF 3
ENDMDL
MODEL 2
REMARK VINA RESULT:      -6.3      1.239      1.573
REMARK  3 active torsions:
REMARK  status: ('A' for Active; 'I' for Inactive)
REMARK    1  A    between atoms: C_9  and  C_4 
REMARK    2  A    between atoms: C_10  and  C_7 
REMARK    3  A    between atoms: C_11  and  C_10 
ROOT
ATOM      1  C   UNL d   1     -46.525  13.627  22.685  0.00  0.00     0.179 A 
ATOM      2  N   UNL d   1     -46.687  12.822  22.738  0.00  0.00    -0.282 N 
ATOM      3  N   UNL d   1     -45.739  13.719  22.436  0.00  0.00    -0.221 NA
ATOM      4  C   UNL d   1     -45.415  12.971  22.336  0.00  0.00     0.101 A 
ATOM      5  S   UNL d   1     -47.206  14.038  22.899  0.00  0.00    -0.048 SA
ATOM      6  C   UNL d   1     -45.998  12.414  22.521  0.00  0.00     0.101 A 
ATOM      7  C   UNL d   1     -47.786  13.486  23.083  0.00  0.00     0.050 A 
ATOM      8  C   UNL d   1     -47.461  12.730  22.982  0.00  0.00     0.089 A 
ENDROOT
BRANCH   7   9
ATOM      9  C   UNL d   1     -48.555  13.656  23.326  0.00  0.00     0.008 C 
BRANCH   9  10
ATOM     10  C   UNL d   1     -49.178  13.578  22.794  0.00  0.00     0.001 A 
ATOM     11  C   UNL d   1     -49.606  12.871  22.760  0.00  0.00     0.002 A 
ATOM     12  C   UNL d   1     -50.230  12.793  22.228  0.00  0.00     0.030 A 
ATOM     13  C   UNL d   1     -50.428  13.419  21.729  0.00  0.00     0.140 A 
ATOM     14  C   UNL d   1     -50.003  14.122  21.761  0.00  0.00     0.030 A 
ATOM     15  F   UNL d   1     -51.058  13.335  21.194  0.00  0.00    -0.204 F 
ATOM     16  C   UNL d   1     -49.376  14.204  22.294  0.00  0.00     0.002 A 
ENDBRANCH   9  10
ENDBRANCH   7   9
BRANCH   4  17
ATOM     17  C   UNL d   1     -44.651  12.800  22.094  0.00  0.00     0.019 A 
ATOM     18  C   UNL d   1     -44.295  13.243  21.502  0.00  0.00     0.002 A 
ATOM     19  C   UNL d   1     -43.527  13.068  21.262  0.00  0.00     0.000 A 
ATOM     20  C   UNL d   1     -43.113  12.448  21.617  0.00  0.00     0.000 A 
ATOM     21  C   UNL d   1     -43.471  12.002  22.213  0.00  0.00     0.000 A 
ATOM     22  C   UNL d   1     -44.239  12.176  22.453  0.00  0.00     0.002 A 
ENDBRANCH   4  17
TORSDOF 3
ENDMDL
MODEL 3
REMARK VINA RESULT:      -6.1      8.387      9.148
REMARK  3 active torsions:
REMARK  status: ('A' for Active; 'I' for Inactive)
REMARK    1  A    between atoms: C_9  and  C_4 
REMARK    2  A    between atoms: C_10  and  C_7 
REMARK    3  A    between atoms: C_11  and  C_10 
ROOT
ATOM      1  C   UNL d   1     -40.125  14.615  20.258  0.00  0.00     0.179 A 
ATOM      2  N   UNL d   1     -39.485  14.149  20.033  0.00  0.00    -0.282 N 
ATOM      3  N   UNL d   1     -40.058  14.774  21.070  0.00  0.00    -0.221 NA
ATOM      4  C   UNL d   1     -39.377  14.408  21.345  0.00  0.00     0.101 A 
ATOM      5  S   UNL d   1     -40.591  14.746  19.592  0.00  0.00    -0.048 SA
ATOM      6  C   UNL d   1     -39.020  14.020  20.707  0.00  0.00     0.101 A 
ATOM      7  C   UNL d   1     -40.238  14.362  18.958  0.00  0.00     0.050 A 
ATOM      8  C   UNL d   1     -39.549  13.991  19.234  0.00  0.00     0.089 A 
ENDROOT
BRANCH   7   9
ATOM      9  C   UNL d   1     -40.519  14.348  18.184  0.00  0.00     0.008 C 
BRANCH   9  10
ATOM     10  C   UNL d   1     -40.103  14.738  17.590  0.00  0.00     0.001 A 
ATOM     11  C   UNL d   1     -40.283  15.525  17.409  0.00  0.00     0.002 A 
ATOM     12  C   UNL d   1     -39.867  15.916  16.815  0.00  0.00     0.030 A 
ATOM     13  C   UNL d   1     -39.271  15.524  16.401  0.00  0.00     0.140 A 
ATOM     14  C   UNL d   1     -39.090  14.741  16.581  0.00  0.00     0.030 A 
ATOM     15  F   UNL d   1     -38.854  15.922  15.804  0.00  0.00    -0.204 F 
ATOM     16  C   UNL d   1     -39.507  14.346  17.176  0.00  0.00     0.002 A 
ENDBRANCH   9  10
ENDBRANCH   7   9
BRANCH   4  17
ATOM     17  C   UNL d   1     -39.095  14.420  22.115  0.00  0.00     0.019 A 
ATOM     18  C   UNL d   1     -38.956  15.135  22.493  0.00  0.00     0.002 A 
ATOM     19  C   UNL d   1     -38.673  15.144  23.267  0.00  0.00     0.000 A 
ATOM     20  C   UNL d   1     -38.528  14.433  23.662  0.00  0.00     0.000 A 
ATOM     21  C   UNL d   1     -38.668  13.715  23.282  0.00  0.00     0.000 A 
ATOM     22  C   UNL d   1     -38.951  13.705  22.509  0.00  0.00     0.002 A 
ENDBRANCH   4  17
TORSDOF 3
ENDMDL
MODEL 4
REMARK VINA RESULT:      -6.1      8.363      9.852
REMARK  3 active torsions:
REMARK  status: ('A' for Active; 'I' for Inactive)
REMARK    1  A    between atoms: C_9  and  C_4 
REMARK    2  A    between atoms: C_10  and  C_7 
REMARK    3  A    between atoms: C_11  and  C_10 
ROOT
ATOM      1  C   UNL d   1     -39.807  14.412  18.570  0.00  0.00     0.179 A 
ATOM      2  N   UNL d   1     -39.251  15.015  18.642  0.00  0.00    -0.282 N 
ATOM      3  N   UNL d   1     -39.652  13.997  17.868  0.00  0.00    -0.221 NA
ATOM      4  C   UNL d   1     -39.001  14.344  17.507  0.00  0.00     0.101 A 
ATOM      5  S   UNL d   1     -40.308  14.448  19.223  0.00  0.00    -0.048 SA
ATOM      6  C   UNL d   1     -38.751  14.973  17.983  0.00  0.00     0.101 A 
ATOM      7  C   UNL d   1     -40.060  15.073  19.696  0.00  0.00     0.050 A 
ATOM      8  C   UNL d   1     -39.402  15.424  19.333  0.00  0.00     0.089 A 
ENDROOT
BRANCH   7   9
ATOM      9  C   UNL d   1     -40.406  15.307  20.406  0.00  0.00     0.008 C 
BRANCH   9  10
ATOM     10  C   UNL d   1     -39.982  15.241  21.109  0.00  0.00     0.001 A 
ATOM     11  C   UNL d   1     -39.662  15.916  21.464  0.00  0.00     0.002 A 
ATOM     12  C   UNL d   1     -39.239  15.849  22.167  0.00  0.00     0.030 A 
ATOM     13  C   UNL d   1     -39.133  15.110  22.517  0.00  0.00     0.140 A 
ATOM     14  C   UNL d   1     -39.450  14.438  22.166  0.00  0.00     0.030 A 
ATOM     15  F   UNL d   1     -38.705  15.048  23.226  0.00  0.00    -0.204 F 
ATOM     16  C   UNL d   1     -39.876  14.502  21.460  0.00  0.00     0.002 A 
ENDBRANCH   9  10
ENDBRANCH   7   9
BRANCH   4  17
ATOM     17  C   UNL d   1     -38.656  14.112  16.801  0.00  0.00     0.019 A 
ATOM     18  C   UNL d   1     -38.675  14.610  16.149  0.00  0.00     0.002 A 
ATOM     19  C   UNL d   1     -38.327  14.374  15.440  0.00  0.00     0.000 A 
ATOM     20  C   UNL d   1     -37.959  13.637  15.386  0.00  0.00     0.000 A 
ATOM     21  C   UNL d   1     -37.940  13.136  16.041  0.00  0.00     0.000 A 
ATOM     22  C   UNL d   1     -38.287  13.371  16.750  0.00  0.00     0.002 A 
ENDBRANCH   4  17
TORSDOF 3
ENDMDL
MODEL 5
REMARK VINA RESULT:      -5.0      2.118      5.150
REMARK  3 active torsions:
REMARK  status: ('A' for Active; 'I' for Inactive)
REMARK    1  A    between atoms: C_9  and  C_4 
REMARK    2  A    between atoms: C_10  and  C_7 
REMARK    3  A    between atoms: C_11  and  C_10 
ROOT
ATOM      1  C   UNL d   1     -47.493  13.743  22.688  0.00  0.00     0.179 A 
ATOM      2  N   UNL d   1     -47.605  12.942  22.536  0.00  0.00    -0.282 N 
ATOM      3  N   UNL d   1     -48.198  14.142  22.510  0.00  0.00    -0.221 NA
ATOM      4  C   UNL d   1     -48.745  13.589  22.249  0.00  0.00     0.101 A 
ATOM      5  S   UNL d   1     -46.722  13.844  22.959  0.00  0.00    -0.048 SA
ATOM      6  C   UNL d   1     -48.382  12.846  22.263  0.00  0.00     0.101 A 
ATOM      7  C   UNL d   1     -46.360  13.107  22.974  0.00  0.00     0.050 A 
ATOM      8  C   UNL d   1     -46.912  12.546  22.710  0.00  0.00     0.089 A 
ENDROOT
BRANCH   7   9
ATOM      9  C   UNL d   1     -45.586  12.953  23.210  0.00  0.00     0.008 C 
BRANCH   9  10
ATOM     10  C   UNL d   1     -45.001  12.839  22.643  0.00  0.00     0.001 A 
ATOM     11  C   UNL d   1     -44.573  12.130  22.627  0.00  0.00     0.002 A 
ATOM     12  C   UNL d   1     -43.988  12.016  22.060  0.00  0.00     0.030 A 
ATOM     13  C   UNL d   1     -43.827  12.607  21.507  0.00  0.00     0.140 A 
ATOM     14  C   UNL d   1     -44.251  13.311  21.521  0.00  0.00     0.030 A 
ATOM     15  F   UNL d   1     -43.235  12.486  20.936  0.00  0.00    -0.204 F 
ATOM     16  C   UNL d   1     -44.839  13.429  22.089  0.00  0.00     0.002 A 
ENDBRANCH   9  10
ENDBRANCH   7   9
BRANCH   4  17
ATOM     17  C   UNL d   1     -49.515  13.740  22.014  0.00  0.00     0.019 A 
ATOM     18  C   UNL d   1     -49.949  14.336  22.375  0.00  0.00     0.002 A 
ATOM     19  C   UNL d   1     -50.723  14.485  22.137  0.00  0.00     0.000 A 
ATOM     20  C   UNL d   1     -51.064  14.035  21.534  0.00  0.00     0.000 A 
ATOM     21  C   UNL d   1     -50.629  13.436  21.171  0.00  0.00     0.000 A 
ATOM     22  C   UNL d   1     -49.855  13.286  21.408  0.00  0.00     0.002 A 
ENDBRANCH   4  17
TORSDOF 3
ENDMDL
