MODEL 1
REMARK VINA RESULT:      -3.1      0.000      0.000
REMARK  5 active torsions:
REMARK  status: ('A' for Active; 'I' for Inactive)
REMARK    1  A    between atoms: C_2  and  S_1 
REMARK    2  A    between atoms: N_3  and  S_1 
REMARK    3  A    between atoms: C_11  and  N_3 
REMARK    4  A    between atoms: O_13  and  C_5 
REMARK    5  A    between atoms: C_14  and  C_11 
ROOT
ATOM      1  S   UNL d   1      33.082  20.200 -21.963  0.00  0.00     0.285 S 
ATOM      2  O   UNL d   1      33.115  19.622 -21.376  0.00  0.00    -0.198 OA
ATOM      3  O   UNL d   1      33.051  20.775 -22.552  0.00  0.00    -0.198 OA
ENDROOT
BRANCH   1   4
ATOM      4  C   UNL d   1      32.929  20.773 -21.391  0.00  0.00     0.107 A 
ATOM      5  C   UNL d   1      32.465  21.429 -21.580  0.00  0.00     0.039 A 
ATOM      6  C   UNL d   1      32.311  22.002 -21.007  0.00  0.00     0.122 A 
ATOM      7  C   UNL d   1      32.623  21.921 -20.245  0.00  0.00     0.162 A 
ATOM      8  C   UNL d   1      33.086  21.266 -20.061  0.00  0.00     0.032 A 
ATOM      9  F   UNL d   1      32.468  22.495 -19.677  0.00  0.00    -0.202 F 
ATOM     10  C   UNL d   1      33.240  20.692 -20.629  0.00  0.00     0.015 A 
BRANCH   6  11
ATOM     11  O   UNL d   1      31.847  22.657 -21.196  0.00  0.00    -0.326 OA
ATOM     12  C   UNL d   1      32.145  23.247 -21.693  0.00  0.00     0.181 C 
ENDBRANCH   6  11
ENDBRANCH   1   4
BRANCH   1  13
ATOM     13  N   UNL d   1      33.236  19.622 -22.538  0.00  0.00    -0.157 NA
BRANCH  13  14
ATOM     14  C   UNL d   1      32.612  19.206 -22.881  0.00  0.00     0.112 C 
BRANCH  14  15
ATOM     15  C   UNL d   1      32.769  18.613 -23.433  0.00  0.00     0.020 A 
ATOM     16  C   UNL d   1      32.635  17.821 -23.239  0.00  0.00     0.002 A 
ATOM     17  C   UNL d   1      32.794  17.225 -23.798  0.00  0.00     0.000 A 
ATOM     18  C   UNL d   1      33.086  17.425 -24.544  0.00  0.00     0.000 A 
ATOM     19  C   UNL d   1      33.219  18.217 -24.738  0.00  0.00     0.000 A 
ATOM     20  C   UNL d   1      33.063  18.810 -24.186  0.00  0.00     0.002 A 
ENDBRANCH  14  15
ENDBRANCH  13  14
ENDBRANCH   1  13
TORSDOF 5
ENDMDL
MODEL 2
REMARK VINA RESULT:      -3.0      2.422      4.865
REMARK  5 active torsions:
REMARK  status: ('A' for Active; 'I' for Inactive)
REMARK    1  A    between atoms: C_2  and  S_1 
REMARK    2  A    between atoms: N_3  and  S_1 
REMARK    3  A    between atoms: C_11  and  N_3 
REMARK    4  A    between atoms: O_13  and  C_5 
REMARK    5  A    between atoms: C_14  and  C_11 
ROOT
ATOM      1  S   UNL d   1      32.635  18.693 -23.259  0.00  0.00     0.285 S 
ATOM      2  O   UNL d   1      32.929  18.294 -22.600  0.00  0.00    -0.198 OA
ATOM      3  O   UNL d   1      32.340  19.094 -23.915  0.00  0.00    -0.198 OA
ENDROOT
BRANCH   1   4
ATOM      4  C   UNL d   1      32.676  17.997 -23.699  0.00  0.00     0.107 A 
ATOM      5  C   UNL d   1      32.192  17.358 -23.504  0.00  0.00     0.039 A 
ATOM      6  C   UNL d   1      32.233  16.662 -23.945  0.00  0.00     0.122 A 
ATOM      7  C   UNL d   1      32.759  16.605 -24.581  0.00  0.00     0.162 A 
ATOM      8  C   UNL d   1      33.239  17.244 -24.773  0.00  0.00     0.032 A 
ATOM      9  F   UNL d   1      32.797  15.909 -25.019  0.00  0.00    -0.202 F 
ATOM     10  C   UNL d   1      33.201  17.940 -24.336  0.00  0.00     0.015 A 
BRANCH   6  11
ATOM     11  O   UNL d   1      31.750  16.022 -23.750  0.00  0.00    -0.326 OA
ATOM     12  C   UNL d   1      30.948  16.034 -23.950  0.00  0.00     0.181 C 
ENDBRANCH   6  11
ENDBRANCH   1   4
BRANCH   1  13
ATOM     13  N   UNL d   1      32.594  19.392 -22.815  0.00  0.00    -0.157 NA
BRANCH  13  14
ATOM     14  C   UNL d   1      33.218  19.600 -22.317  0.00  0.00     0.112 C 
BRANCH  14  15
ATOM     15  C   UNL d   1      33.187  20.310 -21.896  0.00  0.00     0.020 A 
ATOM     16  C   UNL d   1      33.102  20.300 -21.074  0.00  0.00     0.002 A 
ATOM     17  C   UNL d   1      33.071  21.017 -20.653  0.00  0.00     0.000 A 
ATOM     18  C   UNL d   1      33.125  21.736 -21.055  0.00  0.00     0.000 A 
ATOM     19  C   UNL d   1      33.210  21.745 -21.877  0.00  0.00     0.000 A 
ATOM     20  C   UNL d   1      33.241  21.036 -22.298  0.00  0.00     0.002 A 
ENDBRANCH  14  15
ENDBRANCH  13  14
ENDBRANCH   1  13
TORSDOF 5
ENDMDL
MODEL 3
REMARK VINA RESULT:      -2.7      1.281      1.862
REMARK  5 active torsions:
REMARK  status: ('A' for Active; 'I' for Inactive)
REMARK    1  A    between atoms: C_2  and  S_1 
REMARK    2  A    between atoms: N_3  and  S_1 
REMARK    3  A    between atoms: C_11  and  N_3 
REMARK    4  A    between atoms: O_13  and  C_5 
REMARK    5  A    between atoms: C_14  and  C_11 
ROOT
ATOM      1  S   UNL d   1      33.065  19.131 -22.666  0.00  0.00     0.285 S 
ATOM      2  O   UNL d   1      33.236  18.975 -21.874  0.00  0.00    -0.198 OA
ATOM      3  O   UNL d   1      32.894  19.284 -23.457  0.00  0.00    -0.198 OA
ENDROOT
BRANCH   1   4
ATOM      4  C   UNL d   1      33.072  19.941 -22.508  0.00  0.00     0.107 A 
ATOM      5  C   UNL d   1      32.915  20.212 -21.745  0.00  0.00     0.039 A 
ATOM      6  C   UNL d   1      32.922  21.022 -21.588  0.00  0.00     0.122 A 
ATOM      7  C   UNL d   1      33.085  21.560 -22.194  0.00  0.00     0.162 A 
ATOM      8  C   UNL d   1      33.240  21.286 -22.954  0.00  0.00     0.032 A 
ATOM      9  F   UNL d   1      33.091  22.367 -22.033  0.00  0.00    -0.202 F 
ATOM     10  C   UNL d   1      33.235  20.479 -23.114  0.00  0.00     0.015 A 
BRANCH   6  11
ATOM     11  O   UNL d   1      32.765  21.294 -20.825  0.00  0.00    -0.326 OA
ATOM     12  C   UNL d   1      32.004  21.547 -20.623  0.00  0.00     0.181 C 
ENDBRANCH   6  11
ENDBRANCH   1   4
BRANCH   1  13
ATOM     13  N   UNL d   1      33.059  18.317 -22.823  0.00  0.00    -0.157 NA
BRANCH  13  14
ATOM     14  C   UNL d   1      32.612  18.023 -23.452  0.00  0.00     0.112 C 
BRANCH  14  15
ATOM     15  C   UNL d   1      32.499  17.209 -23.529  0.00  0.00     0.020 A 
ATOM     16  C   UNL d   1      31.749  16.910 -23.704  0.00  0.00     0.002 A 
ATOM     17  C   UNL d   1      31.639  16.088 -23.780  0.00  0.00     0.000 A 
ATOM     18  C   UNL d   1      32.278  15.574 -23.682  0.00  0.00     0.000 A 
ATOM     19  C   UNL d   1      33.027  15.874 -23.507  0.00  0.00     0.000 A 
ATOM     20  C   UNL d   1      33.140  16.688 -23.430  0.00  0.00     0.002 A 
ENDBRANCH  14  15
ENDBRANCH  13  14
ENDBRANCH   1  13
TORSDOF 5
ENDMDL
MODEL 4
REMARK VINA RESULT:      -1.9      1.914      4.672
REMARK  5 active torsions:
REMARK  status: ('A' for Active; 'I' for Inactive)
REMARK    1  A    between atoms: C_2  and  S_1 
REMARK    2  A    between atoms: N_3  and  S_1 
REMARK    3  A    between atoms: C_11  and  N_3 
REMARK    4  A    between atoms: O_13  and  C_5 
REMARK    5  A    between atoms: C_14  and  C_11 
ROOT
ATOM      1  S   UNL d   1      33.161  21.210 -22.641  0.00  0.00     0.285 S 
ATOM      2  O   UNL d   1      33.163  21.805 -23.213  0.00  0.00    -0.198 OA
ATOM      3  O   UNL d   1      33.159  20.619 -22.068  0.00  0.00    -0.198 OA
ENDROOT
BRANCH   1   4
ATOM      4  C   UNL d   1      33.181  20.638 -23.235  0.00  0.00     0.107 A 
ATOM      5  C   UNL d   1      33.200  19.838 -23.035  0.00  0.00     0.039 A 
ATOM      6  C   UNL d   1      33.220  19.266 -23.629  0.00  0.00     0.122 A 
ATOM      7  C   UNL d   1      33.221  19.495 -24.424  0.00  0.00     0.162 A 
ATOM      8  C   UNL d   1      33.202  20.294 -24.620  0.00  0.00     0.032 A 
ATOM      9  F   UNL d   1      33.241  18.922 -25.014  0.00  0.00    -0.202 F 
ATOM     10  C   UNL d   1      33.183  20.867 -24.029  0.00  0.00     0.015 A 
BRANCH   6  11
ATOM     11  O   UNL d   1      33.238  18.466 -23.429  0.00  0.00    -0.326 OA
ATOM     12  C   UNL d   1      32.534  18.063 -23.269  0.00  0.00     0.181 C 
ENDBRANCH   6  11
ENDBRANCH   1   4
BRANCH   1  13
ATOM     13  N   UNL d   1      33.141  21.786 -22.045  0.00  0.00    -0.157 NA
BRANCH  13  14
ATOM     14  C   UNL d   1      32.531  21.782 -21.489  0.00  0.00     0.112 C 
BRANCH  14  15
ATOM     15  C   UNL d   1      32.518  22.351 -20.890  0.00  0.00     0.020 A 
ATOM     16  C   UNL d   1      32.723  22.143 -20.118  0.00  0.00     0.002 A 
ATOM     17  C   UNL d   1      32.709  22.719 -19.517  0.00  0.00     0.000 A 
ATOM     18  C   UNL d   1      32.490  23.495 -19.693  0.00  0.00     0.000 A 
ATOM     19  C   UNL d   1      32.285  23.702 -20.466  0.00  0.00     0.000 A 
ATOM     20  C   UNL d   1      32.298  23.134 -21.064  0.00  0.00     0.002 A 
ENDBRANCH  14  15
ENDBRANCH  13  14
ENDBRANCH   1  13
TORSDOF 5
ENDMDL
MODEL 5
REMARK VINA RESULT:      -1.8      4.014      5.617
REMARK  5 active torsions:
REMARK  status: ('A' for Active; 'I' for Inactive)
REMARK    1  A    between atoms: C_2  and  S_1 
REMARK    2  A    between atoms: N_3  and  S_1 
REMARK    3  A    between atoms: C_11  and  N_3 
REMARK    4  A    between atoms: O_13  and  C_5 
REMARK    5  A    between atoms: C_14  and  C_11 
ROOT
ATOM      1  S   UNL d   1      30.856  16.820 -24.003  0.00  0.00     0.285 S 
ATOM      2  O   UNL d   1      30.819  16.411 -23.288  0.00  0.00    -0.198 OA
ATOM      3  O   UNL d   1      30.894  17.230 -24.715  0.00  0.00    -0.198 OA
ENDROOT
BRANCH   1   4
ATOM      4  C   UNL d   1      30.142  16.478 -24.235  0.00  0.00     0.107 A 
ATOM      5  C   UNL d   1      29.428  16.806 -23.985  0.00  0.00     0.039 A 
ATOM      6  C   UNL d   1      28.715  16.463 -24.218  0.00  0.00     0.122 A 
ATOM      7  C   UNL d   1      28.716  15.792 -24.701  0.00  0.00     0.162 A 
ATOM      8  C   UNL d   1      29.430  15.467 -24.948  0.00  0.00     0.032 A 
ATOM      9  F   UNL d   1      28.002  15.453 -24.931  0.00  0.00    -0.202 F 
ATOM     10  C   UNL d   1      30.143  15.806 -24.718  0.00  0.00     0.015 A 
BRANCH   6  11
ATOM     11  O   UNL d   1      28.000  16.791 -23.968  0.00  0.00    -0.326 OA
ATOM     12  C   UNL d   1      27.682  16.581 -23.234  0.00  0.00     0.181 C 
ENDBRANCH   6  11
ENDBRANCH   1   4
BRANCH   1  13
ATOM     13  N   UNL d   1      31.573  17.164 -23.768  0.00  0.00    -0.157 NA
BRANCH  13  14
ATOM     14  C   UNL d   1      31.822  17.872 -24.111  0.00  0.00     0.112 C 
BRANCH  14  15
ATOM     15  C   UNL d   1      32.294  18.393 -23.680  0.00  0.00     0.020 A 
ATOM     16  C   UNL d   1      32.695  18.129 -23.007  0.00  0.00     0.002 A 
ATOM     17  C   UNL d   1      33.170  18.658 -22.575  0.00  0.00     0.000 A 
ATOM     18  C   UNL d   1      33.241  19.444 -22.817  0.00  0.00     0.000 A 
ATOM     19  C   UNL d   1      32.840  19.708 -23.489  0.00  0.00     0.000 A 
ATOM     20  C   UNL d   1      32.368  19.186 -23.921  0.00  0.00     0.002 A 
ENDBRANCH  14  15
ENDBRANCH  13  14
ENDBRANCH   1  13
TORSDOF 5
ENDMDL
MODEL 6
REMARK VINA RESULT:      -0.4      1.823      2.671
REMARK  5 active torsions:
REMARK  status: ('A' for Active; 'I' for Inactive)
REMARK    1  A    between atoms: C_2  and  S_1 
REMARK    2  A    between atoms: N_3  and  S_1 
REMARK    3  A    between atoms: C_11  and  N_3 
REMARK    4  A    between atoms: O_13  and  C_5 
REMARK    5  A    between atoms: C_14  and  C_11 
ROOT
ATOM      1  S   UNL d   1      32.982  22.135 -20.796  0.00  0.00     0.285 S 
ATOM      2  O   UNL d   1      32.830  21.411 -20.431  0.00  0.00    -0.198 OA
ATOM      3  O   UNL d   1      33.135  22.856 -21.163  0.00  0.00    -0.198 OA
ENDROOT
BRANCH   1   4
ATOM      4  C   UNL d   1      32.802  22.527 -20.093  0.00  0.00     0.107 A 
ATOM      5  C   UNL d   1      33.111  22.254 -19.379  0.00  0.00     0.039 A 
ATOM      6  C   UNL d   1      32.931  22.647 -18.676  0.00  0.00     0.122 A 
ATOM      7  C   UNL d   1      32.442  23.313 -18.688  0.00  0.00     0.162 A 
ATOM      8  C   UNL d   1      32.135  23.583 -19.402  0.00  0.00     0.032 A 
ATOM      9  F   UNL d   1      32.264  23.702 -17.985  0.00  0.00    -0.202 F 
ATOM     10  C   UNL d   1      32.312  23.194 -20.105  0.00  0.00     0.015 A 
BRANCH   6  11
ATOM     11  O   UNL d   1      33.241  22.374 -17.962  0.00  0.00    -0.326 OA
ATOM     12  C   UNL d   1      32.940  22.658 -17.245  0.00  0.00     0.181 C 
ENDBRANCH   6  11
ENDBRANCH   1   4
BRANCH   1  13
ATOM     13  N   UNL d   1      33.163  21.740 -21.502  0.00  0.00    -0.157 NA
BRANCH  13  14
ATOM     14  C   UNL d   1      32.757  21.049 -21.703  0.00  0.00     0.112 C 
BRANCH  14  15
ATOM     15  C   UNL d   1      32.918  20.673 -22.419  0.00  0.00     0.020 A 
ATOM     16  C   UNL d   1      33.036  21.120 -23.104  0.00  0.00     0.002 A 
ATOM     17  C   UNL d   1      33.198  20.737 -23.825  0.00  0.00     0.000 A 
ATOM     18  C   UNL d   1      33.239  19.913 -23.856  0.00  0.00     0.000 A 
ATOM     19  C   UNL d   1      33.121  19.467 -23.171  0.00  0.00     0.000 A 
ATOM     20  C   UNL d   1      32.960  19.843 -22.454  0.00  0.00     0.002 A 
ENDBRANCH  14  15
ENDBRANCH  13  14
ENDBRANCH   1  13
TORSDOF 5
ENDMDL
MODEL 7
REMARK VINA RESULT:      -0.3      1.980      4.538
REMARK  5 active torsions:
REMARK  status: ('A' for Active; 'I' for Inactive)
REMARK    1  A    between atoms: C_2  and  S_1 
REMARK    2  A    between atoms: N_3  and  S_1 
REMARK    3  A    between atoms: C_11  and  N_3 
REMARK    4  A    between atoms: O_13  and  C_5 
REMARK    5  A    between atoms: C_14  and  C_11 
ROOT
ATOM      1  S   UNL d   1      33.029  19.616 -22.547  0.00  0.00     0.285 S 
ATOM      2  O   UNL d   1      33.202  19.918 -23.294  0.00  0.00    -0.198 OA
ATOM      3  O   UNL d   1      32.857  19.316 -21.799  0.00  0.00    -0.198 OA
ENDROOT
BRANCH   1   4
ATOM      4  C   UNL d   1      32.916  18.868 -22.876  0.00  0.00     0.107 A 
ATOM      5  C   UNL d   1      32.478  18.786 -23.570  0.00  0.00     0.039 A 
ATOM      6  C   UNL d   1      32.365  18.038 -23.899  0.00  0.00     0.122 A 
ATOM      7  C   UNL d   1      32.690  17.371 -23.533  0.00  0.00     0.162 A 
ATOM      8  C   UNL d   1      33.126  17.457 -22.841  0.00  0.00     0.032 A 
ATOM      9  F   UNL d   1      32.575  16.627 -23.864  0.00  0.00    -0.202 F 
ATOM     10  C   UNL d   1      33.241  18.201 -22.510  0.00  0.00     0.015 A 
BRANCH   6  11
ATOM     11  O   UNL d   1      31.927  17.956 -24.593  0.00  0.00    -0.326 OA
ATOM     12  C   UNL d   1      31.120  17.779 -24.555  0.00  0.00     0.181 C 
ENDBRANCH   6  11
ENDBRANCH   1   4
BRANCH   1  13
ATOM     13  N   UNL d   1      33.143  20.368 -22.217  0.00  0.00    -0.157 NA
BRANCH  13  14
ATOM     14  C   UNL d   1      32.594  20.670 -21.680  0.00  0.00     0.112 C 
BRANCH  14  15
ATOM     15  C   UNL d   1      32.687  21.435 -21.385  0.00  0.00     0.020 A 
ATOM     16  C   UNL d   1      32.961  22.038 -21.878  0.00  0.00     0.002 A 
ATOM     17  C   UNL d   1      33.053  22.809 -21.576  0.00  0.00     0.000 A 
ATOM     18  C   UNL d   1      32.871  22.969 -20.787  0.00  0.00     0.000 A 
ATOM     19  C   UNL d   1      32.597  22.365 -20.295  0.00  0.00     0.000 A 
ATOM     20  C   UNL d   1      32.504  21.600 -20.590  0.00  0.00     0.002 A 
ENDBRANCH  14  15
ENDBRANCH  13  14
ENDBRANCH   1  13
TORSDOF 5
ENDMDL
MODEL 8
REMARK VINA RESULT:      -0.2      5.087      5.998
REMARK  5 active torsions:
REMARK  status: ('A' for Active; 'I' for Inactive)
REMARK    1  A    between atoms: C_2  and  S_1 
REMARK    2  A    between atoms: N_3  and  S_1 
REMARK    3  A    between atoms: C_11  and  N_3 
REMARK    4  A    between atoms: O_13  and  C_5 
REMARK    5  A    between atoms: C_14  and  C_11 
ROOT
ATOM      1  S   UNL d   1      29.514  16.090 -24.237  0.00  0.00     0.285 S 
ATOM      2  O   UNL d   1      29.722  15.557 -23.644  0.00  0.00    -0.198 OA
ATOM      3  O   UNL d   1      29.309  16.623 -24.831  0.00  0.00    -0.198 OA
ENDROOT
BRANCH   1   4
ATOM      4  C   UNL d   1      28.735  16.087 -23.967  0.00  0.00     0.107 A 
ATOM      5  C   UNL d   1      28.453  16.719 -23.517  0.00  0.00     0.039 A 
ATOM      6  C   UNL d   1      27.674  16.716 -23.247  0.00  0.00     0.122 A 
ATOM      7  C   UNL d   1      27.175  16.081 -23.427  0.00  0.00     0.162 A 
ATOM      8  C   UNL d   1      27.459  15.453 -23.876  0.00  0.00     0.032 A 
ATOM      9  F   UNL d   1      26.399  16.082 -23.155  0.00  0.00    -0.202 F 
ATOM     10  C   UNL d   1      28.236  15.453 -24.147  0.00  0.00     0.015 A 
BRANCH   6  11
ATOM     11  O   UNL d   1      27.393  17.347 -22.797  0.00  0.00    -0.326 OA
ATOM     12  C   UNL d   1      27.668  18.114 -22.940  0.00  0.00     0.181 C 
ENDBRANCH   6  11
ENDBRANCH   1   4
BRANCH   1  13
ATOM     13  N   UNL d   1      30.297  16.092 -24.508  0.00  0.00    -0.157 NA
BRANCH  13  14
ATOM     14  C   UNL d   1      30.916  16.226 -23.978  0.00  0.00     0.112 C 
BRANCH  14  15
ATOM     15  C   UNL d   1      31.688  16.299 -24.260  0.00  0.00     0.020 A 
ATOM     16  C   UNL d   1      32.171  16.913 -23.991  0.00  0.00     0.002 A 
ATOM     17  C   UNL d   1      32.949  16.983 -24.277  0.00  0.00     0.000 A 
ATOM     18  C   UNL d   1      33.238  16.440 -24.828  0.00  0.00     0.000 A 
ATOM     19  C   UNL d   1      32.755  15.826 -25.096  0.00  0.00     0.000 A 
ATOM     20  C   UNL d   1      31.983  15.753 -24.815  0.00  0.00     0.002 A 
ENDBRANCH  14  15
ENDBRANCH  13  14
ENDBRANCH   1  13
TORSDOF 5
ENDMDL
