MODEL 1
REMARK VINA RESULT:      41.5      0.000      0.000
REMARK  4 active torsions:
REMARK  status: ('A' for Active; 'I' for Inactive)
REMARK    1  A    between atoms: C_10  and  N_1 
REMARK       I    between atoms: C_6  and  N_9 
REMARK    2  A    between atoms: C_8  and  C_6 
REMARK    3  A    between atoms: N_9  and  C_12 
REMARK    4  A    between atoms: C_12  and  C_10 
ROOT
ATOM      1  C   UNL d   1      58.275  49.031  51.679  0.00  0.00     0.101 C 
ENDROOT
BRANCH   1   2
ATOM      2  N   UNL d   1      57.555  49.259  51.347  0.00  0.00    -0.304 N 
ATOM      3  C   UNL d   1      56.893  49.533  51.763  0.00  0.00     0.064 A 
ATOM      4  C   UNL d   1      56.299  49.696  51.219  0.00  0.00     0.019 A 
ATOM      5  C   UNL d   1      56.841  49.625  52.581  0.00  0.00     0.019 C 
ATOM      6  C   UNL d   1      56.583  49.526  50.464  0.00  0.00     0.018 A 
ATOM      7  C   UNL d   1      57.359  49.256  50.540  0.00  0.00     0.064 A 
ATOM      8  C   UNL d   1      56.247  49.579  49.715  0.00  0.00     0.002 A 
ATOM      9  C   UNL d   1      57.797  49.040  49.879  0.00  0.00     0.018 A 
ATOM     10  C   UNL d   1      57.461  49.092  49.130  0.00  0.00     0.002 A 
ATOM     11  C   UNL d   1      56.678  49.364  49.037  0.00  0.00     0.000 A 
ENDBRANCH   1   2
BRANCH   1  12
ATOM     12  C   UNL d   1      58.956  49.468  51.522  0.00  0.00     0.121 C 
BRANCH  12  13
ATOM     13  N   UNL d   1      59.488  49.631  52.131  0.00  0.00    -0.205 NA
ATOM     14  C   UNL d   1      60.297  49.538  52.011  0.00  0.00     0.279 C 
ATOM     15  O   UNL d   1      60.830  49.701  52.620  0.00  0.00    -0.265 OA
BRANCH  14  16
ATOM     16  C   UNL d   1      60.577  49.279  51.274  0.00  0.00     0.058 A 
ATOM     17  C   UNL d   1      61.029  48.612  51.234  0.00  0.00     0.005 A 
ATOM     18  C   UNL d   1      61.310  48.348  50.504  0.00  0.00     0.000 A 
ATOM     19  C   UNL d   1      61.138  48.753  49.811  0.00  0.00     0.000 A 
ATOM     20  C   UNL d   1      60.668  49.445  49.856  0.00  0.00     0.000 A 
ATOM     21  C   UNL d   1      60.388  49.705  50.593  0.00  0.00     0.005 A 
ENDBRANCH  14  16
ENDBRANCH  12  13
ENDBRANCH   1  12
TORSDOF 4
ENDMDL
