MODEL 1
REMARK VINA RESULT:      -6.3      0.000      0.000
REMARK  6 active torsions:
REMARK  status: ('A' for Active; 'I' for Inactive)
REMARK    1  A    between atoms: C_10  and  N_6 
REMARK    2  A    between atoms: S_14  and  C_9 
REMARK    3  A    between atoms: C_17  and  C_10 
REMARK    4  A    between atoms: N_13  and  C_25 
REMARK    5  A    between atoms: C_20  and  S_14 
REMARK    6  A    between atoms: C_25  and  C_20 
ROOT
ATOM      1  C   UNL d   1     -45.825  13.071  22.616  0.00  0.00     0.174 A 
ATOM      2  C   UNL d   1     -46.223  12.476  23.036  0.00  0.00     0.158 A 
ATOM      3  N   UNL d   1     -46.334  13.717  22.547  0.00  0.00    -0.203 NA
ATOM      4  N   UNL d   1     -45.050  12.941  22.353  0.00  0.00    -0.240 N 
ATOM      5  N   UNL d   1     -45.075  11.631  22.928  0.00  0.00    -0.223 N 
ATOM      6  N   UNL d   1     -46.975  12.758  23.225  0.00  0.00    -0.279 N 
ATOM      7  C   UNL d   1     -44.676  12.226  22.507  0.00  0.00     0.343 A 
ATOM      8  C   UNL d   1     -45.843  11.756  23.190  0.00  0.00     0.287 A 
ATOM      9  C   UNL d   1     -47.036  13.522  22.920  0.00  0.00     0.181 A 
ATOM     10  O   UNL d   1     -43.897  12.097  22.242  0.00  0.00    -0.245 OA
ATOM     11  O   UNL d   1     -46.240  11.163  23.608  0.00  0.00    -0.265 OA
ATOM     12  C   UNL d   1     -44.654  13.533  21.935  0.00  0.00     0.105 C 
ATOM     13  C   UNL d   1     -44.699  10.913  23.082  0.00  0.00     0.107 C 
ENDROOT
BRANCH   9  14
ATOM     14  S   UNL d   1     -47.704  14.018  22.982  0.00  0.00    -0.048 SA
BRANCH  14  15
ATOM     15  C   UNL d   1     -47.775  14.676  22.497  0.00  0.00     0.057 C 
BRANCH  15  16
ATOM     16  C   UNL d   1     -48.167  15.346  22.775  0.00  0.00     0.087 C 
BRANCH  16  17
ATOM     17  N   UNL d   1     -48.983  15.392  22.705  0.00  0.00    -0.302 N 
ATOM     18  C   UNL d   1     -49.339  15.275  21.974  0.00  0.00     0.080 A 
ATOM     19  C   UNL d   1     -50.155  15.321  21.904  0.00  0.00     0.019 A 
ATOM     20  C   UNL d   1     -50.614  15.483  22.562  0.00  0.00     0.003 A 
ATOM     21  C   UNL d   1     -50.260  15.599  23.293  0.00  0.00     0.019 A 
ATOM     22  C   UNL d   1     -49.442  15.554  23.369  0.00  0.00     0.080 A 
ENDBRANCH  16  17
ENDBRANCH  15  16
ENDBRANCH  14  15
ENDBRANCH   9  14
BRANCH   6  23
ATOM     23  C   UNL d   1     -47.555  12.345  23.641  0.00  0.00     0.082 C 
BRANCH  23  24
ATOM     24  C   UNL d   1     -48.256  12.105  23.265  0.00  0.00     0.018 A 
ATOM     25  C   UNL d   1     -48.960  12.106  23.698  0.00  0.00     0.002 A 
ATOM     26  C   UNL d   1     -49.661  11.870  23.335  0.00  0.00     0.011 A 
ATOM     27  C   UNL d   1     -49.654  11.634  22.540  0.00  0.00     0.058 A 
ATOM     28  C   UNL d   1     -48.937  11.637  22.111  0.00  0.00     0.011 A 
ATOM     29 CL   UNL d   1     -50.353  11.397  22.173  0.00  0.00    -0.082 Cl
ATOM     30  C   UNL d   1     -48.244  11.874  22.485  0.00  0.00     0.002 A 
ENDBRANCH  23  24
ENDBRANCH   6  23
TORSDOF 6
ENDMDL
MODEL 2
REMARK VINA RESULT:      -5.5      5.264      7.751
REMARK  6 active torsions:
REMARK  status: ('A' for Active; 'I' for Inactive)
REMARK    1  A    between atoms: C_10  and  N_6 
REMARK    2  A    between atoms: S_14  and  C_9 
REMARK    3  A    between atoms: C_17  and  C_10 
REMARK    4  A    between atoms: N_13  and  C_25 
REMARK    5  A    between atoms: C_20  and  S_14 
REMARK    6  A    between atoms: C_25  and  C_20 
ROOT
ATOM      1  C   UNL d   1     -39.808  14.087  21.817  0.00  0.00     0.174 A 
ATOM      2  C   UNL d   1     -39.817  14.730  21.291  0.00  0.00     0.158 A 
ATOM      3  N   UNL d   1     -40.485  13.637  21.678  0.00  0.00    -0.203 NA
ATOM      4  N   UNL d   1     -39.181  14.001  22.352  0.00  0.00    -0.240 N 
ATOM      5  N   UNL d   1     -38.579  15.193  21.837  0.00  0.00    -0.223 N 
ATOM      6  N   UNL d   1     -40.500  14.672  20.831  0.00  0.00    -0.279 N 
ATOM      7  C   UNL d   1     -38.570  14.550  22.363  0.00  0.00     0.343 A 
ATOM      8  C   UNL d   1     -39.199  15.282  21.305  0.00  0.00     0.287 A 
ATOM      9  C   UNL d   1     -40.906  13.997  21.075  0.00  0.00     0.181 A 
ATOM     10  O   UNL d   1     -37.941  14.462  22.901  0.00  0.00    -0.245 OA
ATOM     11  O   UNL d   1     -39.208  15.921  20.782  0.00  0.00    -0.265 OA
ATOM     12  C   UNL d   1     -39.173  13.362  22.875  0.00  0.00     0.105 C 
ATOM     13  C   UNL d   1     -37.965  15.743  21.848  0.00  0.00     0.107 C 
ENDROOT
BRANCH   9  14
ATOM     14  S   UNL d   1     -41.629  13.723  20.760  0.00  0.00    -0.048 SA
BRANCH  14  15
ATOM     15  C   UNL d   1     -42.207  13.422  21.256  0.00  0.00     0.057 C 
BRANCH  15  16
ATOM     16  C   UNL d   1     -42.891  13.093  20.933  0.00  0.00     0.087 C 
BRANCH  16  17
ATOM     17  N   UNL d   1     -43.492  12.844  21.432  0.00  0.00    -0.302 N 
ATOM     18  C   UNL d   1     -44.197  13.264  21.465  0.00  0.00     0.080 A 
ATOM     19  C   UNL d   1     -44.798  13.014  21.965  0.00  0.00     0.019 A 
ATOM     20  C   UNL d   1     -44.696  12.347  22.429  0.00  0.00     0.003 A 
ATOM     21  C   UNL d   1     -43.992  11.927  22.395  0.00  0.00     0.019 A 
ATOM     22  C   UNL d   1     -43.385  12.173  21.896  0.00  0.00     0.080 A 
ENDBRANCH  16  17
ENDBRANCH  15  16
ENDBRANCH  14  15
ENDBRANCH   9  14
BRANCH   6  23
ATOM     23  C   UNL d   1     -40.727  15.198  20.238  0.00  0.00     0.082 C 
BRANCH  23  24
ATOM     24  C   UNL d   1     -40.590  15.018  19.439  0.00  0.00     0.018 A 
ATOM     25  C   UNL d   1     -40.823  15.563  18.863  0.00  0.00     0.002 A 
ATOM     26  C   UNL d   1     -40.692  15.395  18.067  0.00  0.00     0.011 A 
ATOM     27  C   UNL d   1     -40.329  14.683  17.851  0.00  0.00     0.058 A 
ATOM     28  C   UNL d   1     -40.096  14.138  18.440  0.00  0.00     0.011 A 
ATOM     29 CL   UNL d   1     -40.195  14.510  17.056  0.00  0.00    -0.082 Cl
ATOM     30  C   UNL d   1     -40.233  14.317  19.232  0.00  0.00     0.002 A 
ENDBRANCH  23  24
ENDBRANCH   6  23
TORSDOF 6
ENDMDL
MODEL 3
REMARK VINA RESULT:      -5.1      6.083      8.641
REMARK  6 active torsions:
REMARK  status: ('A' for Active; 'I' for Inactive)
REMARK    1  A    between atoms: C_10  and  N_6 
REMARK    2  A    between atoms: S_14  and  C_9 
REMARK    3  A    between atoms: C_17  and  C_10 
REMARK    4  A    between atoms: N_13  and  C_25 
REMARK    5  A    between atoms: C_20  and  S_14 
REMARK    6  A    between atoms: C_25  and  C_20 
ROOT
ATOM      1  C   UNL d   1     -40.011  14.754  18.742  0.00  0.00     0.174 A 
ATOM      2  C   UNL d   1     -39.401  15.045  19.226  0.00  0.00     0.158 A 
ATOM      3  N   UNL d   1     -40.616  14.484  19.232  0.00  0.00    -0.203 NA
ATOM      4  N   UNL d   1     -39.927  14.777  17.918  0.00  0.00    -0.240 N 
ATOM      5  N   UNL d   1     -38.636  15.376  18.064  0.00  0.00    -0.223 N 
ATOM      6  N   UNL d   1     -39.635  14.952  20.012  0.00  0.00    -0.279 N 
ATOM      7  C   UNL d   1     -39.245  15.085  17.580  0.00  0.00     0.343 A 
ATOM      8  C   UNL d   1     -38.714  15.356  18.882  0.00  0.00     0.287 A 
ATOM      9  C   UNL d   1     -40.384  14.606  20.007  0.00  0.00     0.181 A 
ATOM     10  O   UNL d   1     -39.163  15.107  16.752  0.00  0.00    -0.245 OA
ATOM     11  O   UNL d   1     -38.108  15.645  19.364  0.00  0.00    -0.265 OA
ATOM     12  C   UNL d   1     -40.533  14.488  17.436  0.00  0.00     0.105 C 
ATOM     13  C   UNL d   1     -37.951  15.686  17.725  0.00  0.00     0.107 C 
ENDROOT
BRANCH   9  14
ATOM     14  S   UNL d   1     -40.834  14.411  20.683  0.00  0.00    -0.048 SA
BRANCH  14  15
ATOM     15  C   UNL d   1     -41.566  14.052  20.600  0.00  0.00     0.057 C 
BRANCH  15  16
ATOM     16  C   UNL d   1     -42.138  14.156  21.185  0.00  0.00     0.087 C 
BRANCH  16  17
ATOM     17  N   UNL d   1     -42.675  13.554  21.334  0.00  0.00    -0.302 N 
ATOM     18  C   UNL d   1     -43.481  13.699  21.273  0.00  0.00     0.080 A 
ATOM     19  C   UNL d   1     -44.018  13.097  21.422  0.00  0.00     0.019 A 
ATOM     20  C   UNL d   1     -43.750  12.351  21.631  0.00  0.00     0.003 A 
ATOM     21  C   UNL d   1     -42.945  12.206  21.691  0.00  0.00     0.019 A 
ATOM     22  C   UNL d   1     -42.402  12.806  21.543  0.00  0.00     0.080 A 
ENDBRANCH  16  17
ENDBRANCH  15  16
ENDBRANCH  14  15
ENDBRANCH   9  14
BRANCH   6  23
ATOM     23  C   UNL d   1     -39.195  15.168  20.675  0.00  0.00     0.082 C 
BRANCH  23  24
ATOM     24  C   UNL d   1     -38.876  14.589  21.178  0.00  0.00     0.018 A 
ATOM     25  C   UNL d   1     -38.955  14.685  21.995  0.00  0.00     0.002 A 
ATOM     26  C   UNL d   1     -38.643  14.117  22.504  0.00  0.00     0.011 A 
ATOM     27  C   UNL d   1     -38.254  13.455  22.191  0.00  0.00     0.058 A 
ATOM     28  C   UNL d   1     -38.179  13.366  21.364  0.00  0.00     0.011 A 
ATOM     29 CL   UNL d   1     -37.940  12.883  22.696  0.00  0.00    -0.082 Cl
ATOM     30  C   UNL d   1     -38.495  13.941  20.867  0.00  0.00     0.002 A 
ENDBRANCH  23  24
ENDBRANCH   6  23
TORSDOF 6
ENDMDL
