MODEL 1
REMARK VINA RESULT:      79.1      0.000      0.000
REMARK  4 active torsions:
REMARK  status: ('A' for Active; 'I' for Inactive)
REMARK    1  A    between atoms: C_2  and  S_1 
REMARK    2  A    between atoms: N_3  and  S_1 
REMARK    3  A    between atoms: C_7  and  C_14 
REMARK       I    between atoms: N_9  and  C_7 
REMARK    4  A    between atoms: C_13  and  N_10 
ROOT
ATOM      1  N   UNL d   1      14.209  13.867  -2.686  0.00  0.00    -0.229 N 
ATOM      2  C   UNL d   1      13.826  14.651  -4.101  0.00  0.00     0.060 A 
ATOM      3  C   UNL d   1      14.625  14.549  -2.902  0.00  0.00     0.092 A 
ATOM      4  C   UNL d   1      13.610  13.584  -3.174  0.00  0.00     0.092 A 
ATOM      5  C   UNL d   1      13.420  13.971  -3.874  0.00  0.00     0.025 A 
ATOM      6  C   UNL d   1      14.430  14.945  -3.618  0.00  0.00     0.025 A 
ENDROOT
BRANCH   2   7
ATOM      7  C   UNL d   1      13.635  15.039  -4.802  0.00  0.00     0.265 C 
ATOM      8  N   UNL d   1      13.796  15.826  -4.897  0.00  0.00    -0.269 N 
ATOM      9  C   UNL d   1      14.159  16.256  -4.284  0.00  0.00     0.102 A 
ATOM     10  C   UNL d   1      13.606  16.213  -5.598  0.00  0.00     0.102 A 
ATOM     11  C   UNL d   1      14.327  17.059  -4.372  0.00  0.00     0.100 A 
ATOM     12  N   UNL d   1      14.131  17.443  -5.083  0.00  0.00    -0.301 N 
ATOM     13  C   UNL d   1      13.769  17.013  -5.697  0.00  0.00     0.100 A 
ATOM     14  O   UNL d   1      13.273  14.609  -5.415  0.00  0.00    -0.267 OA
BRANCH  12  15
ATOM     15  C   UNL d   1      14.109  18.128  -5.559  0.00  0.00     0.064 A 
ATOM     16  C   UNL d   1      13.798  18.523  -6.213  0.00  0.00     0.020 A 
ATOM     17  C   UNL d   1      14.057  19.294  -6.389  0.00  0.00     0.031 A 
ATOM     18  C   UNL d   1      14.627  19.653  -5.897  0.00  0.00     0.140 A 
ATOM     19  C   UNL d   1      14.934  19.254  -5.245  0.00  0.00     0.031 A 
ATOM     20  F   UNL d   1      14.894  20.434  -6.067  0.00  0.00    -0.204 F 
ATOM     21  C   UNL d   1      14.670  18.483  -5.077  0.00  0.00     0.020 A 
ENDBRANCH  12  15
ENDBRANCH   2   7
BRANCH   1  22
ATOM     22  S   UNL d   1      14.400  13.480  -1.985  0.00  0.00     0.275 S 
ATOM     23  O   UNL d   1      14.874  14.127  -1.768  0.00  0.00    -0.199 OA
ATOM     24  O   UNL d   1      13.919  12.836  -2.216  0.00  0.00    -0.199 OA
BRANCH  22  25
ATOM     25  C   UNL d   1      14.592  13.088  -1.277  0.00  0.00     0.148 A 
ATOM     26  C   UNL d   1      14.900  13.357  -0.566  0.00  0.00     0.139 A 
ATOM     27  O   UNL d   1      14.975  12.715  -0.060  0.00  0.00    -0.210 OA
ATOM     28  C   UNL d   1      15.099  14.143  -0.397  0.00  0.00     0.030 C 
ATOM     29  N   UNL d   1      14.712  12.039  -0.455  0.00  0.00    -0.126 NA
ATOM     30  C   UNL d   1      14.472  12.276  -1.220  0.00  0.00     0.122 A 
ATOM     31  C   UNL d   1      14.168  11.779  -1.810  0.00  0.00     0.024 C 
ENDBRANCH  22  25
ENDBRANCH   1  22
TORSDOF 4
ENDMDL
MODEL 2
REMARK VINA RESULT:      81.8      1.776      2.664
REMARK  4 active torsions:
REMARK  status: ('A' for Active; 'I' for Inactive)
REMARK    1  A    between atoms: C_2  and  S_1 
REMARK    2  A    between atoms: N_3  and  S_1 
REMARK    3  A    between atoms: C_7  and  C_14 
REMARK       I    between atoms: N_9  and  C_7 
REMARK    4  A    between atoms: C_13  and  N_10 
ROOT
ATOM      1  N   UNL d   1      14.029  14.467  -4.298  0.00  0.00    -0.229 N 
ATOM      2  C   UNL d   1      14.729  15.973  -4.232  0.00  0.00     0.060 A 
ATOM      3  C   UNL d   1      14.088  14.860  -3.574  0.00  0.00     0.092 A 
ATOM      4  C   UNL d   1      14.319  14.827  -4.980  0.00  0.00     0.092 A 
ATOM      5  C   UNL d   1      14.665  15.572  -4.948  0.00  0.00     0.025 A 
ATOM      6  C   UNL d   1      14.442  15.622  -3.540  0.00  0.00     0.025 A 
ENDROOT
BRANCH   2   7
ATOM      7  C   UNL d   1      15.076  16.719  -4.199  0.00  0.00     0.265 C 
ATOM      8  N   UNL d   1      14.806  17.323  -4.666  0.00  0.00    -0.269 N 
ATOM      9  C   UNL d   1      14.171  17.196  -5.187  0.00  0.00     0.102 A 
ATOM     10  C   UNL d   1      15.154  18.069  -4.633  0.00  0.00     0.102 A 
ATOM     11  C   UNL d   1      13.889  17.806  -5.666  0.00  0.00     0.100 A 
ATOM     12  N   UNL d   1      14.245  18.556  -5.627  0.00  0.00    -0.301 N 
ATOM     13  C   UNL d   1      14.881  18.684  -5.105  0.00  0.00     0.100 A 
ATOM     14  O   UNL d   1      15.712  16.846  -3.678  0.00  0.00    -0.267 OA
BRANCH  12  15
ATOM     15  C   UNL d   1      14.298  19.351  -5.875  0.00  0.00     0.064 A 
ATOM     16  C   UNL d   1      14.747  19.957  -6.211  0.00  0.00     0.020 A 
ATOM     17  C   UNL d   1      14.410  20.712  -6.308  0.00  0.00     0.031 A 
ATOM     18  C   UNL d   1      13.624  20.841  -6.062  0.00  0.00     0.140 A 
ATOM     19  C   UNL d   1      13.181  20.233  -5.728  0.00  0.00     0.031 A 
ATOM     20  F   UNL d   1      13.276  21.602  -6.157  0.00  0.00    -0.204 F 
ATOM     21  C   UNL d   1      13.525  19.480  -5.634  0.00  0.00     0.020 A 
ENDBRANCH  12  15
ENDBRANCH   2   7
BRANCH   1  22
ATOM     22  S   UNL d   1      13.682  13.721  -4.331  0.00  0.00     0.275 S 
ATOM     23  O   UNL d   1      14.344  13.407  -3.938  0.00  0.00    -0.199 OA
ATOM     24  O   UNL d   1      13.022  14.051  -4.725  0.00  0.00    -0.199 OA
BRANCH  22  25
ATOM     25  C   UNL d   1      13.331  12.968  -4.364  0.00  0.00     0.148 A 
ATOM     26  C   UNL d   1      13.118  12.488  -4.995  0.00  0.00     0.139 A 
ATOM     27  O   UNL d   1      12.791  11.798  -4.692  0.00  0.00    -0.210 OA
ATOM     28  C   UNL d   1      13.220  12.675  -5.795  0.00  0.00     0.030 C 
ATOM     29  N   UNL d   1      12.799  11.845  -3.868  0.00  0.00    -0.126 NA
ATOM     30  C   UNL d   1      13.139  12.582  -3.664  0.00  0.00     0.122 A 
ATOM     31  C   UNL d   1      13.258  12.866  -2.895  0.00  0.00     0.024 C 
ENDBRANCH  22  25
ENDBRANCH   1  22
TORSDOF 4
ENDMDL
MODEL 3
REMARK VINA RESULT:      82.0      2.902      6.194
REMARK  4 active torsions:
REMARK  status: ('A' for Active; 'I' for Inactive)
REMARK    1  A    between atoms: C_2  and  S_1 
REMARK    2  A    between atoms: N_3  and  S_1 
REMARK    3  A    between atoms: C_7  and  C_14 
REMARK       I    between atoms: N_9  and  C_7 
REMARK    4  A    between atoms: C_13  and  N_10 
ROOT
ATOM      1  N   UNL d   1      14.149  17.813  -5.745  0.00  0.00    -0.229 N 
ATOM      2  C   UNL d   1      13.985  16.159  -5.694  0.00  0.00     0.060 A 
ATOM      3  C   UNL d   1      13.635  17.436  -6.271  0.00  0.00     0.092 A 
ATOM      4  C   UNL d   1      14.575  17.364  -5.200  0.00  0.00     0.092 A 
ATOM      5  C   UNL d   1      14.494  16.547  -5.175  0.00  0.00     0.025 A 
ATOM      6  C   UNL d   1      13.553  16.599  -6.245  0.00  0.00     0.025 A 
ENDROOT
BRANCH   2   7
ATOM      7  C   UNL d   1      13.905  15.340  -5.668  0.00  0.00     0.265 C 
ATOM      8  N   UNL d   1      13.893  14.946  -4.961  0.00  0.00    -0.269 N 
ATOM      9  C   UNL d   1      13.963  15.367  -4.247  0.00  0.00     0.102 A 
ATOM     10  C   UNL d   1      13.812  14.128  -4.936  0.00  0.00     0.102 A 
ATOM     11  C   UNL d   1      13.952  14.975  -3.522  0.00  0.00     0.100 A 
ATOM     12  N   UNL d   1      13.870  14.147  -3.505  0.00  0.00    -0.301 N 
ATOM     13  C   UNL d   1      13.800  13.725  -4.219  0.00  0.00     0.100 A 
ATOM     14  O   UNL d   1      13.834  14.919  -6.382  0.00  0.00    -0.267 OA
BRANCH  12  15
ATOM     15  C   UNL d   1      13.815  13.429  -3.083  0.00  0.00     0.064 A 
ATOM     16  C   UNL d   1      13.506  12.666  -3.026  0.00  0.00     0.020 A 
ATOM     17  C   UNL d   1      13.707  12.189  -2.376  0.00  0.00     0.031 A 
ATOM     18  C   UNL d   1      14.218  12.492  -1.791  0.00  0.00     0.140 A 
ATOM     19  C   UNL d   1      14.524  13.254  -1.853  0.00  0.00     0.031 A 
ATOM     20  F   UNL d   1      14.427  12.016  -1.129  0.00  0.00    -0.204 F 
ATOM     21  C   UNL d   1      14.318  13.726  -2.507  0.00  0.00     0.020 A 
ENDBRANCH  12  15
ENDBRANCH   2   7
BRANCH   1  22
ATOM     22  S   UNL d   1      14.230  18.632  -5.770  0.00  0.00     0.275 S 
ATOM     23  O   UNL d   1      14.788  18.585  -5.155  0.00  0.00    -0.199 OA
ATOM     24  O   UNL d   1      13.668  18.663  -6.389  0.00  0.00    -0.199 OA
BRANCH  22  25
ATOM     25  C   UNL d   1      14.312  19.458  -5.796  0.00  0.00     0.148 A 
ATOM     26  C   UNL d   1      14.946  19.954  -5.637  0.00  0.00     0.139 A 
ATOM     27  O   UNL d   1      14.703  20.729  -5.757  0.00  0.00    -0.210 OA
ATOM     28  C   UNL d   1      15.699  19.706  -5.396  0.00  0.00     0.030 C 
ATOM     29  N   UNL d   1      13.911  20.720  -5.993  0.00  0.00    -0.126 NA
ATOM     30  C   UNL d   1      13.668  19.920  -6.017  0.00  0.00     0.122 A 
ATOM     31  C   UNL d   1      12.913  19.648  -6.226  0.00  0.00     0.024 C 
ENDBRANCH  22  25
ENDBRANCH   1  22
TORSDOF 4
ENDMDL
