MODEL 1
REMARK VINA RESULT:      11.6      0.000      0.000
REMARK  4 active torsions:
REMARK  status: ('A' for Active; 'I' for Inactive)
REMARK    1  A    between atoms: C_11  and  C_4 
REMARK    2  A    between atoms: N_10  and  C_7 
REMARK    3  A    between atoms: C_14  and  N_10 
REMARK    4  A    between atoms: C_21  and  C_14 
ROOT
ATOM      1  C   UNL d   1     -41.203-120.847 -51.618  0.00  0.00     0.186 A 
ATOM      2  N   UNL d   1     -41.197-121.383 -50.983  0.00  0.00    -0.193 N 
ATOM      3  N   UNL d   1     -41.251-121.141 -52.400  0.00  0.00    -0.206 NA
ATOM      4  C   UNL d   1     -41.158-120.085 -51.312  0.00  0.00     0.140 A 
ATOM      5  N   UNL d   1     -41.147-120.941 -50.281  0.00  0.00    -0.058 NA
ATOM      6  N   UNL d   1     -41.123-120.137 -50.482  0.00  0.00    -0.127 NA
ATOM      7  C   UNL d   1     -41.291-121.955 -52.542  0.00  0.00     0.166 A 
ATOM      8  C   UNL d   1     -41.283-122.479 -51.898  0.00  0.00     0.054 A 
ATOM      9  C   UNL d   1     -41.237-122.194 -51.125  0.00  0.00     0.089 A 
ATOM     10  C   UNL d   1     -41.323-123.289 -52.040  0.00  0.00     0.005 A 
ATOM     11  C   UNL d   1     -41.230-122.725 -50.492  0.00  0.00     0.019 A 
ATOM     12  C   UNL d   1     -41.316-123.817 -51.409  0.00  0.00     0.000 A 
ATOM     13  C   UNL d   1     -41.270-123.535 -50.635  0.00  0.00     0.002 A 
ENDROOT
BRANCH   7  14
ATOM     14  N   UNL d   1     -41.337-122.245 -53.312  0.00  0.00    -0.225 NA
BRANCH  14  15
ATOM     15  C   UNL d   1     -42.048-122.200 -53.719  0.00  0.00     0.101 C 
BRANCH  15  16
ATOM     16  C   UNL d   1     -42.052-122.148 -54.543  0.00  0.00     0.019 A 
ATOM     17  C   UNL d   1     -41.474-122.534 -54.987  0.00  0.00     0.002 A 
ATOM     18  C   UNL d   1     -41.478-122.482 -55.811  0.00  0.00     0.000 A 
ATOM     19  C   UNL d   1     -42.066-122.038 -56.189  0.00  0.00     0.000 A 
ATOM     20  C   UNL d   1     -42.647-121.650 -55.740  0.00  0.00     0.000 A 
ATOM     21  C   UNL d   1     -42.634-121.709 -54.918  0.00  0.00     0.002 A 
ENDBRANCH  15  16
ENDBRANCH  14  15
ENDBRANCH   7  14
BRANCH   4  22
ATOM     22  C   UNL d   1     -41.149-119.393 -51.751  0.00  0.00     0.023 A 
ATOM     23  C   UNL d   1     -41.140-119.434 -52.573  0.00  0.00     0.004 A 
ATOM     24  C   UNL d   1     -41.131-118.734 -53.021  0.00  0.00     0.030 A 
ATOM     25  C   UNL d   1     -41.132-118.007 -52.643  0.00  0.00     0.140 A 
ATOM     26  C   UNL d   1     -41.141-117.976 -51.812  0.00  0.00     0.030 A 
ATOM     27  F   UNL d   1     -41.123-117.316 -53.082  0.00  0.00    -0.204 F 
ATOM     28  C   UNL d   1     -41.150-118.667 -51.373  0.00  0.00     0.004 A 
ENDBRANCH   4  22
TORSDOF 4
ENDMDL
MODEL 2
REMARK VINA RESULT:      11.8      1.666      4.193
REMARK  4 active torsions:
REMARK  status: ('A' for Active; 'I' for Inactive)
REMARK    1  A    between atoms: C_11  and  C_4 
REMARK    2  A    between atoms: N_10  and  C_7 
REMARK    3  A    between atoms: C_14  and  N_10 
REMARK    4  A    between atoms: C_21  and  C_14 
ROOT
ATOM      1  C   UNL d   1     -41.956-122.587 -52.357  0.00  0.00     0.186 A 
ATOM      2  N   UNL d   1     -42.109-122.923 -53.102  0.00  0.00    -0.193 N 
ATOM      3  N   UNL d   1     -41.637-121.815 -52.314  0.00  0.00    -0.206 NA
ATOM      4  C   UNL d   1     -42.170-123.133 -51.780  0.00  0.00     0.140 A 
ATOM      5  N   UNL d   1     -42.420-123.683 -52.977  0.00  0.00    -0.058 NA
ATOM      6  N   UNL d   1     -42.459-123.816 -52.159  0.00  0.00    -0.127 NA
ATOM      7  C   UNL d   1     -41.474-121.389 -53.005  0.00  0.00     0.166 A 
ATOM      8  C   UNL d   1     -41.631-121.736 -53.742  0.00  0.00     0.054 A 
ATOM      9  C   UNL d   1     -41.946-122.497 -53.788  0.00  0.00     0.089 A 
ATOM     10  C   UNL d   1     -41.469-121.311 -54.428  0.00  0.00     0.005 A 
ATOM     11  C   UNL d   1     -42.099-122.833 -54.528  0.00  0.00     0.019 A 
ATOM     12  C   UNL d   1     -41.621-121.646 -55.164  0.00  0.00     0.000 A 
ATOM     13  C   UNL d   1     -41.936-122.407 -55.215  0.00  0.00     0.002 A 
ENDROOT
BRANCH   7  14
ATOM     14  N   UNL d   1     -41.159-120.627 -52.964  0.00  0.00    -0.225 NA
BRANCH  14  15
ATOM     15  C   UNL d   1     -41.125-120.243 -52.240  0.00  0.00     0.101 C 
BRANCH  15  16
ATOM     16  C   UNL d   1     -41.129-119.418 -52.209  0.00  0.00     0.019 A 
ATOM     17  C   UNL d   1     -41.131-118.974 -52.904  0.00  0.00     0.002 A 
ATOM     18  C   UNL d   1     -41.135-118.150 -52.873  0.00  0.00     0.000 A 
ATOM     19  C   UNL d   1     -41.137-117.770 -52.137  0.00  0.00     0.000 A 
ATOM     20  C   UNL d   1     -41.135-118.218 -51.437  0.00  0.00     0.000 A 
ATOM     21  C   UNL d   1     -41.131-119.041 -51.481  0.00  0.00     0.002 A 
ENDBRANCH  15  16
ENDBRANCH  14  15
ENDBRANCH   7  14
BRANCH   4  22
ATOM     22  C   UNL d   1     -42.109-123.022 -50.971  0.00  0.00     0.023 A 
ATOM     23  C   UNL d   1     -42.767-122.770 -50.544  0.00  0.00     0.004 A 
ATOM     24  C   UNL d   1     -42.708-122.657 -49.723  0.00  0.00     0.030 A 
ATOM     25  C   UNL d   1     -41.996-122.795 -49.342  0.00  0.00     0.140 A 
ATOM     26  C   UNL d   1     -41.337-123.049 -49.781  0.00  0.00     0.030 A 
ATOM     27  F   UNL d   1     -41.935-122.684 -48.533  0.00  0.00    -0.204 F 
ATOM     28  C   UNL d   1     -41.398-123.160 -50.590  0.00  0.00     0.004 A 
ENDBRANCH   4  22
TORSDOF 4
ENDMDL
MODEL 3
REMARK VINA RESULT:      12.4      2.004      4.242
REMARK  4 active torsions:
REMARK  status: ('A' for Active; 'I' for Inactive)
REMARK    1  A    between atoms: C_11  and  C_4 
REMARK    2  A    between atoms: N_10  and  C_7 
REMARK    3  A    between atoms: C_14  and  N_10 
REMARK    4  A    between atoms: C_21  and  C_14 
ROOT
ATOM      1  C   UNL d   1     -41.913-122.617 -50.955  0.00  0.00     0.186 A 
ATOM      2  N   UNL d   1     -42.026-123.077 -51.638  0.00  0.00    -0.193 N 
ATOM      3  N   UNL d   1     -41.611-121.841 -51.029  0.00  0.00    -0.206 NA
ATOM      4  C   UNL d   1     -42.143-123.064 -50.303  0.00  0.00     0.140 A 
ATOM      5  N   UNL d   1     -42.328-123.813 -51.399  0.00  0.00    -0.058 NA
ATOM      6  N   UNL d   1     -42.402-123.808 -50.573  0.00  0.00    -0.127 NA
ATOM      7  C   UNL d   1     -41.425-121.532 -51.774  0.00  0.00     0.166 A 
ATOM      8  C   UNL d   1     -41.543-122.002 -52.449  0.00  0.00     0.054 A 
ATOM      9  C   UNL d   1     -41.841-122.768 -52.379  0.00  0.00     0.089 A 
ATOM     10  C   UNL d   1     -41.358-121.693 -53.189  0.00  0.00     0.005 A 
ATOM     11  C   UNL d   1     -41.954-123.226 -53.057  0.00  0.00     0.019 A 
ATOM     12  C   UNL d   1     -41.471-122.151 -53.864  0.00  0.00     0.000 A 
ATOM     13  C   UNL d   1     -41.768-122.917 -53.798  0.00  0.00     0.002 A 
ENDROOT
BRANCH   7  14
ATOM     14  N   UNL d   1     -41.127-120.766 -51.849  0.00  0.00    -0.225 NA
BRANCH  14  15
ATOM     15  C   UNL d   1     -41.240-120.228 -51.241  0.00  0.00     0.101 C 
BRANCH  15  16
ATOM     16  C   UNL d   1     -41.201-119.418 -51.393  0.00  0.00     0.019 A 
ATOM     17  C   UNL d   1     -41.165-118.878 -50.770  0.00  0.00     0.002 A 
ATOM     18  C   UNL d   1     -41.126-118.068 -50.921  0.00  0.00     0.000 A 
ATOM     19  C   UNL d   1     -41.123-117.799 -51.705  0.00  0.00     0.000 A 
ATOM     20  C   UNL d   1     -41.158-118.344 -52.331  0.00  0.00     0.000 A 
ATOM     21  C   UNL d   1     -41.197-119.150 -52.168  0.00  0.00     0.002 A 
ENDBRANCH  15  16
ENDBRANCH  14  15
ENDBRANCH   7  14
BRANCH   4  22
ATOM     22  C   UNL d   1     -42.120-122.818 -49.522  0.00  0.00     0.023 A 
ATOM     23  C   UNL d   1     -41.441-122.949 -49.075  0.00  0.00     0.004 A 
ATOM     24  C   UNL d   1     -41.416-122.700 -48.282  0.00  0.00     0.030 A 
ATOM     25  C   UNL d   1     -42.065-122.326 -47.950  0.00  0.00     0.140 A 
ATOM     26  C   UNL d   1     -42.745-122.198 -48.410  0.00  0.00     0.030 A 
ATOM     27  F   UNL d   1     -42.042-122.079 -47.169  0.00  0.00    -0.204 F 
ATOM     28  C   UNL d   1     -42.768-122.444 -49.191  0.00  0.00     0.004 A 
ENDBRANCH   4  22
TORSDOF 4
ENDMDL
