MODEL 1
REMARK VINA RESULT:      24.5      0.000      0.000
REMARK  2 active torsions:
REMARK  status: ('A' for Active; 'I' for Inactive)
REMARK    1  A    between atoms: C_9  and  N_2 
REMARK    2  A    between atoms: C_7  and  C_4 
ROOT
ATOM      1  C   UNL d   1      46.364 -18.379  41.840  0.00  0.00     0.136 A 
ATOM      2  N   UNL d   1      46.297 -18.606  42.632  0.00  0.00    -0.281 N 
ATOM      3  C   UNL d   1      46.481 -18.958  41.260  0.00  0.00     0.152 A 
ATOM      4  C   UNL d   1      46.347 -19.411  42.841  0.00  0.00     0.175 A 
ATOM      5  N   UNL d   1      46.463 -19.982  42.255  0.00  0.00    -0.188 NA
ATOM      6  C   UNL d   1      46.530 -19.755  41.466  0.00  0.00     0.292 A 
ATOM      7  C   UNL d   1      46.547 -18.731  40.470  0.00  0.00     0.108 C 
ATOM      8  N   UNL d   1      46.615 -18.506  39.675  0.00  0.00    -0.191 NA
ATOM      9  S   UNL d   1      46.316 -17.584  41.625  0.00  0.00    -0.058 SA
ATOM     10  O   UNL d   1      46.647 -20.328  40.876  0.00  0.00    -0.264 OA
ENDROOT
BRANCH   2  11
ATOM     11  C   UNL d   1      46.182 -18.036  43.211  0.00  0.00     0.066 A 
ATOM     12  C   UNL d   1      45.621 -17.443  43.093  0.00  0.00     0.020 A 
ATOM     13  C   UNL d   1      45.507 -16.872  43.675  0.00  0.00     0.031 A 
ATOM     14  C   UNL d   1      45.951 -16.891  44.374  0.00  0.00     0.140 A 
ATOM     15  C   UNL d   1      46.514 -17.488  44.489  0.00  0.00     0.031 A 
ATOM     16  F   UNL d   1      45.831 -16.314  44.955  0.00  0.00    -0.204 F 
ATOM     17  C   UNL d   1      46.628 -18.060  43.906  0.00  0.00     0.020 A 
ENDBRANCH   2  11
BRANCH   4  18
ATOM     18  C   UNL d   1      46.280 -19.638  43.630  0.00  0.00     0.135 A 
ATOM     19  O   UNL d   1      46.632 -19.263  44.270  0.00  0.00    -0.302 OA
ATOM     20  C   UNL d   1      46.418 -19.674  44.947  0.00  0.00     0.123 A 
ATOM     21  C   UNL d   1      45.935 -20.302  44.726  0.00  0.00     0.029 A 
ATOM     22  C   UNL d   1      45.845 -20.287  43.918  0.00  0.00     0.030 A 
ENDBRANCH   4  18
TORSDOF 2
ENDMDL
