MODEL 1
REMARK VINA RESULT:     107.2      0.000      0.000
REMARK  6 active torsions:
REMARK  status: ('A' for Active; 'I' for Inactive)
REMARK    1  A    between atoms: C_4  and  N_1 
REMARK    2  A    between atoms: N_6  and  C_2 
REMARK    3  A    between atoms: S_10  and  C_7 
REMARK    4  A    between atoms: C_12  and  C_9 
REMARK    5  A    between atoms: C_11  and  S_10 
REMARK    6  A    between atoms: O_24  and  C_20 
ROOT
ATOM      1  N   UNL d   1      61.177  45.871  50.373  0.00  0.00    -0.240 N 
ATOM      2  C   UNL d   1      61.264  45.501  49.650  0.00  0.00     0.268 A 
ATOM      3  C   UNL d   1      61.204  45.317  50.990  0.00  0.00     0.273 A 
ATOM      4  C   UNL d   1      61.311  44.573  50.624  0.00  0.00     0.091 A 
ATOM      5  C   UNL d   1      61.347  44.695  49.807  0.00  0.00     0.072 A 
ATOM      6  O   UNL d   1      61.297  45.573  48.954  0.00  0.00    -0.267 OA
ATOM      7  O   UNL d   1      61.140  45.443  51.800  0.00  0.00    -0.266 OA
ENDROOT
BRANCH   1   8
ATOM      8  C   UNL d   1      61.077  46.693  50.469  0.00  0.00     0.092 A 
ATOM      9  C   UNL d   1      61.616  47.181  50.095  0.00  0.00     0.145 A 
ATOM     10  C   UNL d   1      61.536  48.006  50.176  0.00  0.00     0.049 A 
ATOM     11  C   UNL d   1      60.920  48.316  50.628  0.00  0.00     0.096 A 
ATOM     12  C   UNL d   1      60.365  47.801  51.012  0.00  0.00     0.026 A 
ATOM     13  C   UNL d   1      60.457  46.987  50.923  0.00  0.00     0.021 A 
BRANCH   9  14
ATOM     14  N   UNL d   1      62.228  46.858  49.645  0.00  0.00    -0.112 N 
ATOM     15  O   UNL d   1      62.152  46.594  49.217  0.00  0.00    -0.532 OA
ATOM     16  O   UNL d   1      63.028  46.926  49.840  0.00  0.00    -0.532 OA
ENDBRANCH   9  14
BRANCH  11  17
ATOM     17  O   UNL d   1      60.860  49.140  50.694  0.00  0.00    -0.328 OA
ATOM     18  C   UNL d   1      60.980  49.517  51.410  0.00  0.00     0.181 C 
ENDBRANCH  11  17
ENDBRANCH   1   8
BRANCH   4  19
ATOM     19  S   UNL d   1      61.361  43.898  51.085  0.00  0.00    -0.082 SA
BRANCH  19  20
ATOM     20  C   UNL d   1      61.969  43.336  50.935  0.00  0.00     0.035 A 
ATOM     21  C   UNL d   1      62.099  42.725  51.453  0.00  0.00     0.070 A 
ATOM     22  C   UNL d   1      62.688  42.178  51.313  0.00  0.00     0.007 A 
ATOM     23  C   UNL d   1      63.157  42.253  50.626  0.00  0.00     0.000 A 
ATOM     24  C   UNL d   1      63.029  42.875  50.093  0.00  0.00     0.001 A 
ATOM     25  C   UNL d   1      62.420  43.413  50.270  0.00  0.00     0.007 A 
BRANCH  21  26
ATOM     26  C   UNL d   1      61.646  42.636  52.135  0.00  0.00     0.211 C 
ATOM     27  O   UNL d   1      61.724  43.142  52.773  0.00  0.00    -0.644 OA
ATOM     28  O   UNL d   1      61.085  42.014  52.190  0.00  0.00    -0.644 OA
ENDBRANCH  21  26
ENDBRANCH  19  20
ENDBRANCH   4  19
TORSDOF 6
ENDMDL
MODEL 2
REMARK VINA RESULT:     107.9      2.200      5.108
REMARK  6 active torsions:
REMARK  status: ('A' for Active; 'I' for Inactive)
REMARK    1  A    between atoms: C_4  and  N_1 
REMARK    2  A    between atoms: N_6  and  C_2 
REMARK    3  A    between atoms: S_10  and  C_7 
REMARK    4  A    between atoms: C_12  and  C_9 
REMARK    5  A    between atoms: C_11  and  S_10 
REMARK    6  A    between atoms: O_24  and  C_20 
ROOT
ATOM      1  N   UNL d   1      61.627  47.585  50.356  0.00  0.00    -0.240 N 
ATOM      2  C   UNL d   1      62.247  47.765  50.856  0.00  0.00     0.268 A 
ATOM      3  C   UNL d   1      61.115  48.234  50.281  0.00  0.00     0.273 A 
ATOM      4  C   UNL d   1      61.440  48.837  50.760  0.00  0.00     0.091 A 
ATOM      5  C   UNL d   1      62.130  48.542  51.106  0.00  0.00     0.072 A 
ATOM      6  O   UNL d   1      62.835  47.542  51.164  0.00  0.00    -0.267 OA
ATOM      7  O   UNL d   1      60.425  48.299  49.837  0.00  0.00    -0.266 OA
ENDROOT
BRANCH   1   8
ATOM      8  C   UNL d   1      61.529  46.849  49.977  0.00  0.00     0.092 A 
ATOM      9  C   UNL d   1      61.081  46.286  50.363  0.00  0.00     0.145 A 
ATOM     10  C   UNL d   1      60.970  45.543  50.004  0.00  0.00     0.049 A 
ATOM     11  C   UNL d   1      61.311  45.387  49.270  0.00  0.00     0.096 A 
ATOM     12  C   UNL d   1      61.775  45.979  48.876  0.00  0.00     0.026 A 
ATOM     13  C   UNL d   1      61.876  46.709  49.243  0.00  0.00     0.021 A 
BRANCH   9  14
ATOM     14  N   UNL d   1      60.745  46.455  51.099  0.00  0.00    -0.112 N 
ATOM     15  O   UNL d   1      60.760  46.915  51.315  0.00  0.00    -0.532 OA
ATOM     16  O   UNL d   1      60.350  45.897  51.563  0.00  0.00    -0.532 OA
ENDBRANCH   9  14
BRANCH  11  17
ATOM     17  O   UNL d   1      61.187  44.641  48.932  0.00  0.00    -0.328 OA
ATOM     18  C   UNL d   1      60.782  44.056  49.335  0.00  0.00     0.181 C 
ENDBRANCH  11  17
ENDBRANCH   1   8
BRANCH   4  19
ATOM     19  S   UNL d   1      61.062  49.563  50.809  0.00  0.00    -0.082 SA
BRANCH  19  20
ATOM     20  C   UNL d   1      60.228  49.604  50.714  0.00  0.00     0.035 A 
ATOM     21  C   UNL d   1      59.744  49.667  51.362  0.00  0.00     0.070 A 
ATOM     22  C   UNL d   1      58.934  49.708  51.276  0.00  0.00     0.007 A 
ATOM     23  C   UNL d   1      58.606  49.683  50.508  0.00  0.00     0.000 A 
ATOM     24  C   UNL d   1      59.095  49.619  49.842  0.00  0.00     0.001 A 
ATOM     25  C   UNL d   1      59.916  49.580  49.971  0.00  0.00     0.007 A 
BRANCH  21  26
ATOM     26  C   UNL d   1      60.051  49.692  52.127  0.00  0.00     0.211 C 
ATOM     27  O   UNL d   1      60.857  49.704  52.267  0.00  0.00    -0.644 OA
ATOM     28  O   UNL d   1      59.534  49.707  52.788  0.00  0.00    -0.644 OA
ENDBRANCH  21  26
ENDBRANCH  19  20
ENDBRANCH   4  19
TORSDOF 6
ENDMDL
