MODEL 1
REMARK VINA RESULT:      -6.3      0.000      0.000
REMARK  4 active torsions:
REMARK  status: ('A' for Active; 'I' for Inactive)
REMARK    1  A    between atoms: C_3  and  S_1 
REMARK       I    between atoms: C_2  and  N_6 
REMARK    2  A    between atoms: C_11  and  C_2 
REMARK    3  A    between atoms: N_6  and  C_12 
REMARK    4  A    between atoms: C_15  and  C_11 
ROOT
ATOM      1  C   UNL d   1     -41.958-122.082 -54.495  0.00  0.00     0.107 A 
ATOM      2  C   UNL d   1     -41.412-122.667 -54.308  0.00  0.00     0.015 A 
ATOM      3  C   UNL d   1     -42.232-121.571 -53.907  0.00  0.00     0.015 A 
ATOM      4  C   UNL d   1     -41.409-122.237 -52.949  0.00  0.00     0.085 A 
ATOM      5  C   UNL d   1     -41.957-121.649 -53.134  0.00  0.00     0.020 A 
ATOM      6  C   UNL d   1     -41.137-122.744 -53.535  0.00  0.00     0.020 A 
ENDROOT
BRANCH   4   7
ATOM      7  N   UNL d   1     -41.133-122.314 -52.175  0.00  0.00    -0.208 NA
ATOM      8  C   UNL d   1     -41.402-122.935 -51.703  0.00  0.00     0.279 C 
ATOM      9  O   UNL d   1     -41.944-123.478 -52.003  0.00  0.00    -0.265 OA
BRANCH   8  10
ATOM     10  C   UNL d   1     -41.125-123.013 -50.923  0.00  0.00     0.062 C 
BRANCH  10  11
ATOM     11  C   UNL d   1     -41.656-123.063 -50.294  0.00  0.00     0.005 A 
ATOM     12  C   UNL d   1     -41.705-123.766 -49.865  0.00  0.00     0.000 A 
ATOM     13  C   UNL d   1     -42.237-123.817 -49.233  0.00  0.00     0.000 A 
ATOM     14  C   UNL d   1     -42.715-123.170 -49.034  0.00  0.00     0.000 A 
ATOM     15  C   UNL d   1     -42.659-122.471 -49.467  0.00  0.00     0.000 A 
ATOM     16  C   UNL d   1     -42.133-122.415 -50.095  0.00  0.00     0.000 A 
ENDBRANCH  10  11
ENDBRANCH   8  10
ENDBRANCH   4   7
BRANCH   1  17
ATOM     17  S   UNL d   1     -42.233-122.005 -55.269  0.00  0.00     0.302 S 
ATOM     18  O   UNL d   1     -43.011-122.065 -54.998  0.00  0.00    -0.197 OA
ATOM     19  O   UNL d   1     -41.456-121.944 -55.539  0.00  0.00    -0.197 OA
ATOM     20  N   UNL d   1     -42.508-121.927 -56.044  0.00  0.00    -0.043 N 
ENDBRANCH   1  17
TORSDOF 4
ENDMDL
MODEL 2
REMARK VINA RESULT:      -6.2      2.103      4.672
REMARK  4 active torsions:
REMARK  status: ('A' for Active; 'I' for Inactive)
REMARK    1  A    between atoms: C_3  and  S_1 
REMARK       I    between atoms: C_2  and  N_6 
REMARK    2  A    between atoms: C_11  and  C_2 
REMARK    3  A    between atoms: N_6  and  C_12 
REMARK    4  A    between atoms: C_15  and  C_11 
ROOT
ATOM      1  C   UNL d   1     -42.301-123.076 -49.678  0.00  0.00     0.107 A 
ATOM      2  C   UNL d   1     -42.678-122.466 -50.079  0.00  0.00     0.015 A 
ATOM      3  C   UNL d   1     -41.594-123.385 -49.971  0.00  0.00     0.015 A 
ATOM      4  C   UNL d   1     -41.649-122.470 -51.065  0.00  0.00     0.085 A 
ATOM      5  C   UNL d   1     -41.268-123.082 -50.664  0.00  0.00     0.020 A 
ATOM      6  C   UNL d   1     -42.353-122.163 -50.772  0.00  0.00     0.020 A 
ENDROOT
BRANCH   4   7
ATOM      7  N   UNL d   1     -41.322-122.166 -51.760  0.00  0.00    -0.208 NA
ATOM      8  C   UNL d   1     -41.451-122.551 -52.478  0.00  0.00     0.279 C 
ATOM      9  O   UNL d   1     -41.905-123.238 -52.502  0.00  0.00    -0.265 OA
BRANCH   8  10
ATOM     10  C   UNL d   1     -41.123-122.246 -53.177  0.00  0.00     0.062 C 
BRANCH  10  11
ATOM     11  C   UNL d   1     -41.548-122.269 -53.884  0.00  0.00     0.005 A 
ATOM     12  C   UNL d   1     -41.431-122.900 -54.402  0.00  0.00     0.000 A 
ATOM     13  C   UNL d   1     -41.857-122.924 -55.112  0.00  0.00     0.000 A 
ATOM     14  C   UNL d   1     -42.394-122.321 -55.298  0.00  0.00     0.000 A 
ATOM     15  C   UNL d   1     -42.505-121.694 -54.775  0.00  0.00     0.000 A 
ATOM     16  C   UNL d   1     -42.085-121.666 -54.071  0.00  0.00     0.000 A 
ENDBRANCH  10  11
ENDBRANCH   8  10
ENDBRANCH   4   7
BRANCH   1  17
ATOM     17  S   UNL d   1     -42.627-123.379 -48.984  0.00  0.00     0.302 S 
ATOM     18  O   UNL d   1     -43.251-123.702 -49.418  0.00  0.00    -0.197 OA
ATOM     19  O   UNL d   1     -42.004-123.057 -48.550  0.00  0.00    -0.197 OA
ATOM     20  N   UNL d   1     -42.954-123.683 -48.289  0.00  0.00    -0.043 N 
ENDBRANCH   1  17
TORSDOF 4
ENDMDL
MODEL 3
REMARK VINA RESULT:      -5.2      0.942      1.416
REMARK  4 active torsions:
REMARK  status: ('A' for Active; 'I' for Inactive)
REMARK    1  A    between atoms: C_3  and  S_1 
REMARK       I    between atoms: C_2  and  N_6 
REMARK    2  A    between atoms: C_11  and  C_2 
REMARK    3  A    between atoms: N_6  and  C_12 
REMARK    4  A    between atoms: C_15  and  C_11 
ROOT
ATOM      1  C   UNL d   1     -41.680-122.606 -53.658  0.00  0.00     0.107 A 
ATOM      2  C   UNL d   1     -41.502-122.111 -53.027  0.00  0.00     0.015 A 
ATOM      3  C   UNL d   1     -41.673-123.425 -53.554  0.00  0.00     0.015 A 
ATOM      4  C   UNL d   1     -41.309-123.246 -52.185  0.00  0.00     0.085 A 
ATOM      5  C   UNL d   1     -41.487-123.745 -52.818  0.00  0.00     0.020 A 
ATOM      6  C   UNL d   1     -41.316-122.431 -52.291  0.00  0.00     0.020 A 
ENDROOT
BRANCH   4   7
ATOM      7  N   UNL d   1     -41.123-123.566 -51.448  0.00  0.00    -0.208 NA
ATOM      8  C   UNL d   1     -41.655-123.494 -50.822  0.00  0.00     0.279 C 
ATOM      9  O   UNL d   1     -42.371-123.103 -50.932  0.00  0.00    -0.265 OA
BRANCH   8  10
ATOM     10  C   UNL d   1     -41.468-123.817 -50.079  0.00  0.00     0.062 C 
BRANCH  10  11
ATOM     11  C   UNL d   1     -41.864-123.563 -49.401  0.00  0.00     0.005 A 
ATOM     12  C   UNL d   1     -41.453-123.122 -48.838  0.00  0.00     0.000 A 
ATOM     13  C   UNL d   1     -41.849-122.867 -48.157  0.00  0.00     0.000 A 
ATOM     14  C   UNL d   1     -42.649-123.053 -48.044  0.00  0.00     0.000 A 
ATOM     15  C   UNL d   1     -43.052-123.494 -48.611  0.00  0.00     0.000 A 
ATOM     16  C   UNL d   1     -42.664-123.749 -49.288  0.00  0.00     0.000 A 
ENDBRANCH  10  11
ENDBRANCH   8  10
ENDBRANCH   4   7
BRANCH   1  17
ATOM     17  S   UNL d   1     -41.866-122.286 -54.395  0.00  0.00     0.302 S 
ATOM     18  O   UNL d   1     -41.282-121.711 -54.293  0.00  0.00    -0.197 OA
ATOM     19  O   UNL d   1     -42.449-122.861 -54.498  0.00  0.00    -0.197 OA
ATOM     20  N   UNL d   1     -42.052-121.966 -55.134  0.00  0.00    -0.043 N 
ENDBRANCH   1  17
TORSDOF 4
ENDMDL
