MODEL 1
REMARK VINA RESULT:      26.1      0.000      0.000
REMARK  7 active torsions:
REMARK  status: ('A' for Active; 'I' for Inactive)
REMARK    1  A    between atoms: C_7  and  S_1 
REMARK    2  A    between atoms: N_11  and  S_1 
REMARK    3  A    between atoms: C_5  and  C_2 
REMARK    4  A    between atoms: C_6  and  C_15 
REMARK    5  A    between atoms: C_18  and  N_11 
REMARK    6  A    between atoms: C_15  and  C_18 
REMARK    7  A    between atoms: O_21  and  C_17 
ROOT
ATOM      1  C   UNL d   1      15.116  12.485  -0.833  0.00  0.00     0.114 C 
ENDROOT
BRANCH   1   2
ATOM      2  C   UNL d   1      14.551  11.895  -0.938  0.00  0.00     0.041 C 
BRANCH   2   3
ATOM      3  C   UNL d   1      13.986  11.954  -1.542  0.00  0.00     0.090 A 
ATOM      4  N   UNL d   1      14.139  12.192  -2.323  0.00  0.00    -0.238 NA
ATOM      5  C   UNL d   1      13.419  12.171  -2.737  0.00  0.00     0.112 A 
ATOM      6  S   UNL d   1      12.825  11.921  -2.217  0.00  0.00    -0.066 SA
ATOM      7  C   UNL d   1      13.177  11.786  -1.474  0.00  0.00     0.056 A 
BRANCH   5   8
ATOM      8  C   UNL d   1      13.306  12.367  -3.541  0.00  0.00     0.043 A 
ATOM      9  C   UNL d   1      13.091  13.135  -3.752  0.00  0.00     0.101 A 
ATOM     10  N   UNL d   1      12.981  13.326  -4.537  0.00  0.00    -0.242 NA
ATOM     11  C   UNL d   1      13.085  12.752  -5.117  0.00  0.00     0.099 A 
ATOM     12  C   UNL d   1      13.303  11.970  -4.898  0.00  0.00     0.021 A 
ATOM     13  C   UNL d   1      13.414  11.779  -4.109  0.00  0.00     0.005 A 
ENDBRANCH   5   8
ENDBRANCH   2   3
ENDBRANCH   1   2
BRANCH   1  14
ATOM     14  N   UNL d   1      15.130  12.926  -0.116  0.00  0.00    -0.157 NA
BRANCH  14  15
ATOM     15  S   UNL d   1      15.244  13.747  -0.148  0.00  0.00     0.285 S 
ATOM     16  O   UNL d   1      14.427  13.860  -0.019  0.00  0.00    -0.198 OA
ATOM     17  O   UNL d   1      16.059  13.638  -0.276  0.00  0.00    -0.198 OA
BRANCH  15  18
ATOM     18  C   UNL d   1      15.349  14.566  -0.178  0.00  0.00     0.105 A 
ATOM     19  C   UNL d   1      16.098  14.879  -0.045  0.00  0.00     0.015 A 
ATOM     20  C   UNL d   1      16.207  15.706  -0.075  0.00  0.00     0.025 A 
ATOM     21  C   UNL d   1      15.572  16.199  -0.236  0.00  0.00     0.094 A 
ATOM     22  C   UNL d   1      14.828  15.878  -0.367  0.00  0.00     0.025 A 
ATOM     23  C   UNL d   1      14.704  15.065  -0.342  0.00  0.00     0.015 A 
BRANCH  21  24
ATOM     24  O   UNL d   1      15.677  17.018  -0.266  0.00  0.00    -0.328 OA
ATOM     25  C   UNL d   1      15.432  17.438  -0.933  0.00  0.00     0.181 C 
ENDBRANCH  21  24
ENDBRANCH  15  18
ENDBRANCH  14  15
ENDBRANCH   1  14
TORSDOF 7
ENDMDL
