MODEL 1
REMARK VINA RESULT:      -5.0      0.000      0.000
REMARK  4 active torsions:
REMARK  status: ('A' for Active; 'I' for Inactive)
REMARK    1  A    between atoms: C_6  and  N_3 
REMARK    2  A    between atoms: C_13  and  N_4 
REMARK    3  A    between atoms: C_5  and  C_6 
REMARK       I    between atoms: N_10  and  C_5 
REMARK    4  A    between atoms: C_14  and  N_10 
ROOT
ATOM      1  C   UNL d   1     -41.411-121.939 -52.649  0.00  0.00     0.322 A 
ATOM      2  C   UNL d   1     -41.485-122.106 -53.454  0.00  0.00     0.322 A 
ATOM      3  N   UNL d   1     -41.231-122.537 -52.118  0.00  0.00    -0.262 N 
ATOM      4  N   UNL d   1     -41.378-122.872 -53.728  0.00  0.00    -0.267 N 
ATOM      5  C   UNL d   1     -41.124-123.307 -52.391  0.00  0.00     0.102 A 
ATOM      6  O   UNL d   1     -41.519-121.165 -52.377  0.00  0.00    -0.261 OA
ATOM      7  O   UNL d   1     -41.666-121.500 -53.987  0.00  0.00    -0.261 OA
ATOM      8  C   UNL d   1     -41.197-123.474 -53.196  0.00  0.00     0.102 A 
ENDROOT
BRANCH   3   9
ATOM      9  C   UNL d   1     -41.158-122.371 -51.317  0.00  0.00     0.146 C 
BRANCH   9  10
ATOM     10  C   UNL d   1     -41.576-122.817 -50.772  0.00  0.00     0.297 C 
ATOM     11  N   UNL d   1     -41.762-122.518 -50.034  0.00  0.00    -0.207 NA
ATOM     12  O   UNL d   1     -41.811-123.582 -50.977  0.00  0.00    -0.264 OA
BRANCH  11  13
ATOM     13  C   UNL d   1     -42.183-122.972 -49.491  0.00  0.00     0.085 A 
ATOM     14  C   UNL d   1     -41.863-123.477 -48.931  0.00  0.00     0.019 A 
ATOM     15  C   UNL d   1     -42.481-123.812 -48.513  0.00  0.00     0.002 A 
ATOM     16  C   UNL d   1     -43.180-123.521 -48.808  0.00  0.00     0.002 A 
ATOM     17  C   UNL d   1     -43.004-122.996 -49.419  0.00  0.00     0.019 A 
ENDBRANCH  11  13
ENDBRANCH   9  10
ENDBRANCH   3   9
BRANCH   4  18
ATOM     18  C   UNL d   1     -41.452-123.039 -54.532  0.00  0.00     0.083 C 
ATOM     19  C   UNL d   1     -41.370-123.817 -54.801  0.00  0.00     0.021 C 
ENDBRANCH   4  18
TORSDOF 4
ENDMDL
MODEL 2
REMARK VINA RESULT:      -4.8      1.092      4.126
REMARK  4 active torsions:
REMARK  status: ('A' for Active; 'I' for Inactive)
REMARK    1  A    between atoms: C_6  and  N_3 
REMARK    2  A    between atoms: C_13  and  N_4 
REMARK    3  A    between atoms: C_5  and  C_6 
REMARK       I    between atoms: N_10  and  C_5 
REMARK    4  A    between atoms: C_14  and  N_10 
ROOT
ATOM      1  C   UNL d   1     -42.206-122.268 -50.642  0.00  0.00     0.322 A 
ATOM      2  C   UNL d   1     -42.408-122.711 -49.975  0.00  0.00     0.322 A 
ATOM      3  N   UNL d   1     -41.566-122.489 -51.106  0.00  0.00    -0.262 N 
ATOM      4  N   UNL d   1     -41.970-123.375 -49.772  0.00  0.00    -0.267 N 
ATOM      5  C   UNL d   1     -41.126-123.155 -50.903  0.00  0.00     0.102 A 
ATOM      6  O   UNL d   1     -42.650-121.600 -50.843  0.00  0.00    -0.261 OA
ATOM      7  O   UNL d   1     -43.054-122.486 -49.510  0.00  0.00    -0.261 OA
ATOM      8  C   UNL d   1     -41.327-123.598 -50.237  0.00  0.00     0.102 A 
ENDROOT
BRANCH   3   9
ATOM      9  C   UNL d   1     -41.366-122.048 -51.769  0.00  0.00     0.146 C 
BRANCH   9  10
ATOM     10  C   UNL d   1     -41.480-122.367 -52.515  0.00  0.00     0.297 C 
ATOM     11  N   UNL d   1     -41.557-121.887 -53.172  0.00  0.00    -0.207 NA
ATOM     12  O   UNL d   1     -41.517-123.188 -52.599  0.00  0.00    -0.264 OA
BRANCH  11  13
ATOM     13  C   UNL d   1     -41.671-122.214 -53.920  0.00  0.00     0.085 A 
ATOM     14  C   UNL d   1     -41.198-122.777 -54.280  0.00  0.00     0.019 A 
ATOM     15  C   UNL d   1     -41.517-122.941 -55.014  0.00  0.00     0.002 A 
ATOM     16  C   UNL d   1     -42.183-122.485 -55.115  0.00  0.00     0.002 A 
ATOM     17  C   UNL d   1     -42.287-122.028 -54.436  0.00  0.00     0.019 A 
ENDBRANCH  11  13
ENDBRANCH   9  10
ENDBRANCH   3   9
BRANCH   4  18
ATOM     18  C   UNL d   1     -42.172-123.817 -49.106  0.00  0.00     0.083 C 
ATOM     19  C   UNL d   1     -41.676-123.817 -48.444  0.00  0.00     0.021 C 
ENDBRANCH   4  18
TORSDOF 4
ENDMDL
MODEL 3
REMARK VINA RESULT:      -2.4      1.128      1.717
REMARK  4 active torsions:
REMARK  status: ('A' for Active; 'I' for Inactive)
REMARK    1  A    between atoms: C_6  and  N_3 
REMARK    2  A    between atoms: C_13  and  N_4 
REMARK    3  A    between atoms: C_5  and  C_6 
REMARK       I    between atoms: N_10  and  C_5 
REMARK    4  A    between atoms: C_14  and  N_10 
ROOT
ATOM      1  C   UNL d   1     -41.981-122.163 -51.312  0.00  0.00     0.322 A 
ATOM      2  C   UNL d   1     -41.674-122.371 -52.049  0.00  0.00     0.322 A 
ATOM      3  N   UNL d   1     -42.044-122.725 -50.717  0.00  0.00    -0.262 N 
ATOM      4  N   UNL d   1     -41.430-123.141 -52.192  0.00  0.00    -0.267 N 
ATOM      5  C   UNL d   1     -41.799-123.499 -50.860  0.00  0.00     0.102 A 
ATOM      6  O   UNL d   1     -42.226-121.385 -51.171  0.00  0.00    -0.261 OA
ATOM      7  O   UNL d   1     -41.612-121.801 -52.646  0.00  0.00    -0.261 OA
ATOM      8  C   UNL d   1     -41.492-123.707 -51.597  0.00  0.00     0.102 A 
ENDROOT
BRANCH   3   9
ATOM      9  C   UNL d   1     -42.349-122.518 -49.984  0.00  0.00     0.146 C 
BRANCH   9  10
ATOM     10  C   UNL d   1     -42.122-122.939 -49.318  0.00  0.00     0.297 C 
ATOM     11  N   UNL d   1     -42.153-122.603 -48.574  0.00  0.00    -0.207 NA
ATOM     12  O   UNL d   1     -41.859-123.717 -49.408  0.00  0.00    -0.264 OA
BRANCH  11  13
ATOM     13  C   UNL d   1     -41.923-123.033 -47.909  0.00  0.00     0.085 A 
ATOM     14  C   UNL d   1     -42.413-123.482 -47.430  0.00  0.00     0.019 A 
ATOM     15  C   UNL d   1     -41.953-123.810 -46.839  0.00  0.00     0.002 A 
ATOM     16  C   UNL d   1     -41.183-123.569 -46.946  0.00  0.00     0.002 A 
ATOM     17  C   UNL d   1     -41.155-123.083 -47.612  0.00  0.00     0.019 A 
ENDBRANCH  11  13
ENDBRANCH   9  10
ENDBRANCH   3   9
BRANCH   4  18
ATOM     18  C   UNL d   1     -41.123-123.349 -52.929  0.00  0.00     0.083 C 
ATOM     19  C   UNL d   1     -41.634-123.546 -53.549  0.00  0.00     0.021 C 
ENDBRANCH   4  18
TORSDOF 4
ENDMDL
