MODEL 1
REMARK VINA RESULT:      -8.8      0.000      0.000
REMARK  1 active torsions:
REMARK  status: ('A' for Active; 'I' for Inactive)
REMARK       I    between atoms: N_2  and  C_1 
REMARK       I    between atoms: N_4  and  C_1 
REMARK    1  A    between atoms: C_5  and  N_2 
ROOT
ATOM      1  N   UNL d   1      52.914  33.044  54.361  0.00  0.00    -0.242 NA
ATOM      2  C   UNL d   1      53.331  32.226  53.234  0.00  0.00     0.105 A 
ATOM      3  C   UNL d   1      54.319  32.974  53.975  0.00  0.00     0.019 A 
ATOM      4  C   UNL d   1      53.715  33.267  54.479  0.00  0.00     0.082 A 
ATOM      5  C   UNL d   1      54.120  32.451  53.354  0.00  0.00     0.022 A 
ATOM      6  C   UNL d   1      52.728  32.527  53.737  0.00  0.00     0.118 A 
ATOM      7  C   UNL d   1      55.109  33.195  54.103  0.00  0.00     0.002 A 
ATOM      8  C   UNL d   1      53.905  33.784  55.098  0.00  0.00     0.019 A 
ATOM      9  C   UNL d   1      55.300  33.718  54.728  0.00  0.00     0.000 A 
ATOM     10  C   UNL d   1      54.704  34.013  55.224  0.00  0.00     0.002 A 
ENDROOT
BRANCH   2  11
ATOM     11  N   UNL d   1      53.134  31.717  52.611  0.00  0.00    -0.191 NA
ATOM     12  C   UNL d   1      53.037  30.904  52.748  0.00  0.00     0.354 C 
ATOM     13  N   UNL d   1      53.131  30.594  53.518  0.00  0.00    -0.253 N 
ATOM     14  O   UNL d   1      52.844  30.385  52.114  0.00  0.00    -0.244 OA
ATOM     15  C   UNL d   1      53.333  31.105  54.144  0.00  0.00     0.104 C 
ATOM     16  C   UNL d   1      53.041  29.777  53.650  0.00  0.00     0.104 C 
ENDBRANCH   2  11
TORSDOF 1
ENDMDL
MODEL 2
REMARK VINA RESULT:      -8.7      1.658      3.273
REMARK  1 active torsions:
REMARK  status: ('A' for Active; 'I' for Inactive)
REMARK       I    between atoms: N_2  and  C_1 
REMARK       I    between atoms: N_4  and  C_1 
REMARK    1  A    between atoms: C_5  and  N_2 
ROOT
ATOM      1  N   UNL d   1      54.291  32.049  53.619  0.00  0.00    -0.242 NA
ATOM      2  C   UNL d   1      53.332  33.059  53.202  0.00  0.00     0.105 A 
ATOM      3  C   UNL d   1      52.955  31.665  53.176  0.00  0.00     0.019 A 
ATOM      4  C   UNL d   1      53.715  31.457  53.464  0.00  0.00     0.082 A 
ATOM      5  C   UNL d   1      52.769  32.470  53.049  0.00  0.00     0.022 A 
ATOM      6  C   UNL d   1      54.095  32.846  53.484  0.00  0.00     0.118 A 
ATOM      7  C   UNL d   1      52.391  31.074  53.031  0.00  0.00     0.002 A 
ATOM      8  C   UNL d   1      53.906  30.662  53.594  0.00  0.00     0.019 A 
ATOM      9  C   UNL d   1      52.585  30.271  53.163  0.00  0.00     0.000 A 
ATOM     10  C   UNL d   1      53.337  30.062  53.441  0.00  0.00     0.002 A 
ENDROOT
BRANCH   2  11
ATOM     11  N   UNL d   1      53.150  33.855  53.065  0.00  0.00    -0.191 NA
ATOM     12  C   UNL d   1      53.080  34.385  53.700  0.00  0.00     0.354 C 
ATOM     13  N   UNL d   1      53.200  34.120  54.483  0.00  0.00    -0.253 N 
ATOM     14  O   UNL d   1      52.887  35.192  53.561  0.00  0.00    -0.244 OA
ATOM     15  C   UNL d   1      53.379  33.319  54.622  0.00  0.00     0.104 C 
ATOM     16  C   UNL d   1      53.120  34.653  55.117  0.00  0.00     0.104 C 
ENDBRANCH   2  11
TORSDOF 1
ENDMDL
MODEL 3
REMARK VINA RESULT:      -8.4      2.134      2.666
REMARK  1 active torsions:
REMARK  status: ('A' for Active; 'I' for Inactive)
REMARK       I    between atoms: N_2  and  C_1 
REMARK       I    between atoms: N_4  and  C_1 
REMARK    1  A    between atoms: C_5  and  N_2 
ROOT
ATOM      1  N   UNL d   1      53.093  34.729  54.388  0.00  0.00    -0.242 NA
ATOM      2  C   UNL d   1      52.716  34.265  53.064  0.00  0.00     0.105 A 
ATOM      3  C   UNL d   1      53.607  33.465  53.871  0.00  0.00     0.019 A 
ATOM      4  C   UNL d   1      53.560  34.036  54.484  0.00  0.00     0.082 A 
ATOM      5  C   UNL d   1      53.179  33.585  53.162  0.00  0.00     0.022 A 
ATOM      6  C   UNL d   1      52.676  34.838  53.677  0.00  0.00     0.118 A 
ATOM      7  C   UNL d   1      54.066  32.782  53.976  0.00  0.00     0.002 A 
ATOM      8  C   UNL d   1      53.978  33.924  55.189  0.00  0.00     0.019 A 
ATOM      9  C   UNL d   1      54.488  32.668  54.689  0.00  0.00     0.000 A 
ATOM     10  C   UNL d   1      54.448  33.234  55.293  0.00  0.00     0.002 A 
ENDROOT
BRANCH   2  11
ATOM     11  N   UNL d   1      52.302  34.388  52.356  0.00  0.00    -0.191 NA
ATOM     12  C   UNL d   1      51.483  34.257  52.321  0.00  0.00     0.354 C 
ATOM     13  N   UNL d   1      51.068  34.008  53.002  0.00  0.00    -0.253 N 
ATOM     14  O   UNL d   1      51.064  34.374  51.601  0.00  0.00    -0.244 OA
ATOM     15  C   UNL d   1      51.484  33.880  53.712  0.00  0.00     0.104 C 
ATOM     16  C   UNL d   1      50.248  33.870  52.960  0.00  0.00     0.104 C 
ENDBRANCH   2  11
TORSDOF 1
ENDMDL
MODEL 4
REMARK VINA RESULT:      -8.2      1.895      3.098
REMARK  1 active torsions:
REMARK  status: ('A' for Active; 'I' for Inactive)
REMARK       I    between atoms: N_2  and  C_1 
REMARK       I    between atoms: N_4  and  C_1 
REMARK    1  A    between atoms: C_5  and  N_2 
ROOT
ATOM      1  N   UNL d   1      52.116  32.375  53.363  0.00  0.00    -0.242 NA
ATOM      2  C   UNL d   1      53.387  33.064  53.217  0.00  0.00     0.105 A 
ATOM      3  C   UNL d   1      52.157  33.788  53.000  0.00  0.00     0.019 A 
ATOM      4  C   UNL d   1      51.720  33.092  53.172  0.00  0.00     0.082 A 
ATOM      5  C   UNL d   1      52.992  33.768  53.027  0.00  0.00     0.022 A 
ATOM      6  C   UNL d   1      52.947  32.368  53.382  0.00  0.00     0.118 A 
ATOM      7  C   UNL d   1      51.757  34.492  52.818  0.00  0.00     0.002 A 
ATOM      8  C   UNL d   1      50.893  33.104  53.150  0.00  0.00     0.019 A 
ATOM      9  C   UNL d   1      50.921  34.504  52.796  0.00  0.00     0.000 A 
ATOM     10  C   UNL d   1      50.488  33.816  52.959  0.00  0.00     0.002 A 
ENDROOT
BRANCH   2  11
ATOM     11  N   UNL d   1      54.215  33.043  53.232  0.00  0.00    -0.191 NA
ATOM     12  C   UNL d   1      54.625  33.103  53.951  0.00  0.00     0.354 C 
ATOM     13  N   UNL d   1      54.202  33.178  54.668  0.00  0.00    -0.253 N 
ATOM     14  O   UNL d   1      55.466  33.090  53.965  0.00  0.00    -0.244 OA
ATOM     15  C   UNL d   1      53.371  33.204  54.654  0.00  0.00     0.104 C 
ATOM     16  C   UNL d   1      54.617  33.247  55.387  0.00  0.00     0.104 C 
ENDBRANCH   2  11
TORSDOF 1
ENDMDL
