MODEL 1
REMARK VINA RESULT:      62.7      0.000      0.000
REMARK  6 active torsions:
REMARK  status: ('A' for Active; 'I' for Inactive)
REMARK    1  A    between atoms: C_7  and  C_1 
REMARK    2  A    between atoms: C_9  and  N_2 
REMARK    3  A    between atoms: C_15  and  C_7 
REMARK    4  A    between atoms: C_8  and  C_9 
REMARK       I    between atoms: N_14  and  C_8 
REMARK    5  A    between atoms: C_20  and  N_14 
REMARK    6  A    between atoms: C_34  and  C_33 
ROOT
ATOM      1  C   UNL d   1      45.035 -13.955  44.452  0.00  0.00     0.095 A 
ATOM      2  N   UNL d   1      45.448 -15.311  44.661  0.00  0.00    -0.300 N 
ATOM      3  C   UNL d   1      44.223 -14.208  44.525  0.00  0.00     0.202 A 
ATOM      4  C   UNL d   1      45.641 -14.501  44.519  0.00  0.00     0.087 A 
ATOM      5  C   UNL d   1      44.057 -15.014  44.666  0.00  0.00     0.056 A 
ATOM      6  C   UNL d   1      44.656 -15.569  44.734  0.00  0.00     0.067 A 
ATOM      7  C   UNL d   1      44.468 -16.361  44.873  0.00  0.00     0.018 A 
ATOM      8  C   UNL d   1      43.262 -15.275  44.740  0.00  0.00     0.016 A 
ATOM      9  O   UNL d   1      43.623 -13.668  44.459  0.00  0.00    -0.286 OA
ATOM     10  C   UNL d   1      43.083 -16.071  44.879  0.00  0.00     0.058 A 
ATOM     11  C   UNL d   1      43.686 -16.614  44.946  0.00  0.00     0.013 A 
ATOM     12 CL   UNL d   1      42.292 -16.320  44.951  0.00  0.00    -0.082 Cl
ENDROOT
BRANCH   2  13
ATOM     13  C   UNL d   1      46.051 -15.854  44.727  0.00  0.00     0.144 C 
BRANCH  13  14
ATOM     14  C   UNL d   1      46.148 -16.436  44.150  0.00  0.00     0.297 C 
ATOM     15  N   UNL d   1      45.758 -17.153  44.221  0.00  0.00    -0.207 NA
ATOM     16  O   UNL d   1      46.637 -16.294  43.506  0.00  0.00    -0.264 OA
BRANCH  15  17
ATOM     17  C   UNL d   1      45.855 -17.735  43.644  0.00  0.00     0.087 A 
ATOM     18  C   UNL d   1      46.204 -18.442  43.844  0.00  0.00     0.045 A 
ATOM     19  C   UNL d   1      46.302 -19.025  43.272  0.00  0.00     0.121 A 
ATOM     20  O   UNL d   1      46.636 -19.789  43.320  0.00  0.00    -0.299 OA
ATOM     21  C   UNL d   1      46.046 -18.887  42.498  0.00  0.00     0.119 A 
ATOM     22  C   UNL d   1      46.587 -20.135  42.561  0.00  0.00     0.304 A 
ATOM     23  O   UNL d   1      46.221 -19.576  42.050  0.00  0.00    -0.300 OA
ATOM     24  C   UNL d   1      45.695 -18.175  42.299  0.00  0.00     0.028 A 
ATOM     25  C   UNL d   1      45.598 -17.593  42.875  0.00  0.00     0.021 A 
ENDBRANCH  15  17
ENDBRANCH  13  14
ENDBRANCH   2  13
BRANCH   1  26
ATOM     26  C   UNL d   1      45.211 -13.163  44.314  0.00  0.00     0.200 C 
ATOM     27  O   UNL d   1      45.252 -12.640  44.941  0.00  0.00    -0.286 OA
BRANCH  26  28
ATOM     28  C   UNL d   1      45.345 -12.894  43.548  0.00  0.00     0.039 A 
ATOM     29  C   UNL d   1      46.101 -12.952  43.201  0.00  0.00     0.003 A 
ATOM     30  C   UNL d   1      46.244 -12.681  42.425  0.00  0.00     0.000 A 
ATOM     31  C   UNL d   1      45.629 -12.352  41.995  0.00  0.00     0.000 A 
ATOM     32  C   UNL d   1      44.871 -12.300  42.357  0.00  0.00     0.000 A 
ATOM     33  C   UNL d   1      44.726 -12.569  43.129  0.00  0.00     0.003 A 
BRANCH  31  34
ATOM     34  C   UNL d   1      45.768 -12.082  41.223  0.00  0.00     0.000 C 
ATOM     35  C   UNL d   1      45.940 -12.628  40.644  0.00  0.00     0.000 C 
ENDBRANCH  31  34
ENDBRANCH  26  28
ENDBRANCH   1  26
TORSDOF 6
ENDMDL
