MODEL 1
REMARK VINA RESULT:      -5.5      0.000      0.000
REMARK  1 active torsions:
REMARK  status: ('A' for Active; 'I' for Inactive)
REMARK    1  A    between atoms: C_6  and  C_3 
ROOT
ATOM      1  C   UNL d   1      55.824  -0.157  33.039  0.00  0.00     0.018 A 
ATOM      2  C   UNL d   1      56.210   0.331  32.526  0.00  0.00     0.005 A 
ATOM      3  C   UNL d   1      55.852  -0.981  32.949  0.00  0.00     0.005 A 
ATOM      4  C   UNL d   1      56.672  -0.808  31.804  0.00  0.00     0.196 A 
ATOM      5  C   UNL d   1      56.644   0.018  31.894  0.00  0.00     0.042 A 
ATOM      6  C   UNL d   1      56.285  -1.291  32.318  0.00  0.00     0.042 A 
ATOM      7  O   UNL d   1      57.104  -1.114  31.175  0.00  0.00    -0.287 OA
ENDROOT
BRANCH   1   8
ATOM      8  C   UNL d   1      55.392   0.150  33.668  0.00  0.00     0.090 A 
ATOM      9  N   UNL d   1      55.705   0.196  34.420  0.00  0.00    -0.219 NA
ATOM     10  C   UNL d   1      55.147   0.523  34.922  0.00  0.00     0.215 A 
ATOM     11  S   UNL d   1      54.495   0.681  34.505  0.00  0.00    -0.045 SA
ATOM     12  N   UNL d   1      55.211   0.680  35.738  0.00  0.00    -0.120 N 
ATOM     13  C   UNL d   1      54.627   0.455  33.713  0.00  0.00     0.058 A 
ENDBRANCH   1   8
TORSDOF 1
ENDMDL
MODEL 2
REMARK VINA RESULT:      -5.2      2.727      3.689
REMARK  1 active torsions:
REMARK  status: ('A' for Active; 'I' for Inactive)
REMARK    1  A    between atoms: C_6  and  C_3 
ROOT
ATOM      1  C   UNL d   1      56.796   0.004  31.986  0.00  0.00     0.018 A 
ATOM      2  C   UNL d   1      56.611  -0.759  32.168  0.00  0.00     0.005 A 
ATOM      3  C   UNL d   1      56.387   0.638  32.330  0.00  0.00     0.005 A 
ATOM      4  C   UNL d   1      55.593  -0.293  33.050  0.00  0.00     0.196 A 
ATOM      5  C   UNL d   1      56.003  -0.928  32.705  0.00  0.00     0.042 A 
ATOM      6  C   UNL d   1      55.781   0.467  32.865  0.00  0.00     0.042 A 
ATOM      7  O   UNL d   1      54.990  -0.465  33.582  0.00  0.00    -0.287 OA
ENDROOT
BRANCH   1   8
ATOM      8  C   UNL d   1      57.399   0.176  31.454  0.00  0.00     0.090 A 
ATOM      9  N   UNL d   1      57.434  -0.177  30.719  0.00  0.00    -0.219 NA
ATOM     10  C   UNL d   1      58.090   0.103  30.318  0.00  0.00     0.215 A 
ATOM     11  S   UNL d   1      58.466   0.621  30.783  0.00  0.00    -0.045 SA
ATOM     12  N   UNL d   1      58.356  -0.095  29.553  0.00  0.00    -0.120 N 
ATOM     13  C   UNL d   1      58.048   0.682  31.501  0.00  0.00     0.058 A 
ENDBRANCH   1   8
TORSDOF 1
ENDMDL
MODEL 3
REMARK VINA RESULT:      -4.3      8.738      9.430
REMARK  1 active torsions:
REMARK  status: ('A' for Active; 'I' for Inactive)
REMARK    1  A    between atoms: C_6  and  C_3 
ROOT
ATOM      1  C   UNL d   1      60.075  -7.484  35.934  0.00  0.00     0.018 A 
ATOM      2  C   UNL d   1      60.861  -7.335  36.034  0.00  0.00     0.005 A 
ATOM      3  C   UNL d   1      59.516  -6.871  35.962  0.00  0.00     0.005 A 
ATOM      4  C   UNL d   1      60.569  -5.949  36.196  0.00  0.00     0.196 A 
ATOM      5  C   UNL d   1      61.128  -6.562  36.168  0.00  0.00     0.042 A 
ATOM      6  C   UNL d   1      59.785  -6.102  36.096  0.00  0.00     0.042 A 
ATOM      7  O   UNL d   1      60.839  -5.184  36.329  0.00  0.00    -0.287 OA
ENDROOT
BRANCH   1   8
ATOM      8  C   UNL d   1      59.805  -8.249  35.801  0.00  0.00     0.090 A 
ATOM      9  N   UNL d   1      59.651  -8.523  35.049  0.00  0.00    -0.219 NA
ATOM     10  C   UNL d   1      59.392  -9.298  35.094  0.00  0.00     0.215 A 
ATOM     11  S   UNL d   1      59.380  -9.516  35.854  0.00  0.00    -0.045 SA
ATOM     12  N   UNL d   1      59.169  -9.809  34.474  0.00  0.00    -0.120 N 
ATOM     13  C   UNL d   1      59.636  -8.870  36.316  0.00  0.00     0.058 A 
ENDBRANCH   1   8
TORSDOF 1
ENDMDL
MODEL 4
REMARK VINA RESULT:      -4.2      2.395      3.281
REMARK  1 active torsions:
REMARK  status: ('A' for Active; 'I' for Inactive)
REMARK    1  A    between atoms: C_6  and  C_3 
ROOT
ATOM      1  C   UNL d   1      56.251   0.228  33.030  0.00  0.00     0.018 A 
ATOM      2  C   UNL d   1      56.612   0.476  33.705  0.00  0.00     0.005 A 
ATOM      3  C   UNL d   1      55.428   0.122  32.998  0.00  0.00     0.005 A 
ATOM      4  C   UNL d   1      55.345   0.526  34.356  0.00  0.00     0.196 A 
ATOM      5  C   UNL d   1      56.168   0.632  34.387  0.00  0.00     0.042 A 
ATOM      6  C   UNL d   1      54.988   0.278  33.678  0.00  0.00     0.042 A 
ATOM      7  O   UNL d   1      54.908   0.682  35.034  0.00  0.00    -0.287 OA
ENDROOT
BRANCH   1   8
ATOM      8  C   UNL d   1      56.688   0.072  32.351  0.00  0.00     0.090 A 
ATOM      9  N   UNL d   1      57.175   0.635  32.018  0.00  0.00    -0.219 NA
ATOM     10  C   UNL d   1      57.534   0.319  31.353  0.00  0.00     0.215 A 
ATOM     11  S   UNL d   1      57.283  -0.425  31.261  0.00  0.00    -0.045 SA
ATOM     12  N   UNL d   1      58.075   0.681  30.832  0.00  0.00    -0.120 N 
ATOM     13  C   UNL d   1      56.750  -0.601  31.878  0.00  0.00     0.058 A 
ENDBRANCH   1   8
TORSDOF 1
ENDMDL
MODEL 5
REMARK VINA RESULT:      -4.1      1.811      2.498
REMARK  1 active torsions:
REMARK  status: ('A' for Active; 'I' for Inactive)
REMARK    1  A    between atoms: C_6  and  C_3 
ROOT
ATOM      1  C   UNL d   1      57.113  -0.270  31.462  0.00  0.00     0.018 A 
ATOM      2  C   UNL d   1      57.460  -0.870  31.051  0.00  0.00     0.005 A 
ATOM      3  C   UNL d   1      57.228   0.522  31.245  0.00  0.00     0.005 A 
ATOM      4  C   UNL d   1      58.059   0.087  30.180  0.00  0.00     0.196 A 
ATOM      5  C   UNL d   1      57.944  -0.707  30.398  0.00  0.00     0.042 A 
ATOM      6  C   UNL d   1      57.710   0.682  30.594  0.00  0.00     0.042 A 
ATOM      7  O   UNL d   1      58.540   0.244  29.532  0.00  0.00    -0.287 OA
ENDROOT
BRANCH   1   8
ATOM      8  C   UNL d   1      56.632  -0.427  32.111  0.00  0.00     0.090 A 
ATOM      9  N   UNL d   1      56.363  -1.180  32.271  0.00  0.00    -0.219 NA
ATOM     10  C   UNL d   1      55.901  -1.161  32.947  0.00  0.00     0.215 A 
ATOM     11  S   UNL d   1      55.875  -0.417  33.213  0.00  0.00    -0.045 SA
ATOM     12  N   UNL d   1      55.507  -1.792  33.325  0.00  0.00    -0.120 N 
ATOM     13  C   UNL d   1      56.328   0.061  32.702  0.00  0.00     0.058 A 
ENDBRANCH   1   8
TORSDOF 1
ENDMDL
MODEL 6
REMARK VINA RESULT:      -3.7      9.062      9.728
REMARK  1 active torsions:
REMARK  status: ('A' for Active; 'I' for Inactive)
REMARK    1  A    between atoms: C_6  and  C_3 
ROOT
ATOM      1  C   UNL d   1      59.994  -8.941  34.292  0.00  0.00     0.018 A 
ATOM      2  C   UNL d   1      59.431  -9.226  33.791  0.00  0.00     0.005 A 
ATOM      3  C   UNL d   1      60.796  -8.937  34.078  0.00  0.00     0.005 A 
ATOM      4  C   UNL d   1      60.444  -9.519  32.832  0.00  0.00     0.196 A 
ATOM      5  C   UNL d   1      59.642  -9.523  33.047  0.00  0.00     0.042 A 
ATOM      6  C   UNL d   1      61.003  -9.233  33.335  0.00  0.00     0.042 A 
ATOM      7  O   UNL d   1      60.648  -9.814  32.093  0.00  0.00    -0.287 OA
ENDROOT
BRANCH   1   8
ATOM      8  C   UNL d   1      59.790  -8.645  35.031  0.00  0.00     0.090 A 
ATOM      9  N   UNL d   1      59.674  -7.848  35.156  0.00  0.00    -0.219 NA
ATOM     10  C   UNL d   1      59.478  -7.725  35.942  0.00  0.00     0.215 A 
ATOM     11  S   UNL d   1      59.468  -8.424  36.311  0.00  0.00    -0.045 SA
ATOM     12  N   UNL d   1      59.310  -7.006  36.329  0.00  0.00    -0.120 N 
ATOM     13  C   UNL d   1      59.661  -9.017  35.757  0.00  0.00     0.058 A 
ENDBRANCH   1   8
TORSDOF 1
ENDMDL
MODEL 7
REMARK VINA RESULT:      -3.5      3.373      4.366
REMARK  1 active torsions:
REMARK  status: ('A' for Active; 'I' for Inactive)
REMARK    1  A    between atoms: C_6  and  C_3 
ROOT
ATOM      1  C   UNL d   1      57.571   0.082  30.942  0.00  0.00     0.018 A 
ATOM      2  C   UNL d   1      57.284   0.682  31.397  0.00  0.00     0.005 A 
ATOM      3  C   UNL d   1      57.343  -0.705  31.077  0.00  0.00     0.005 A 
ATOM      4  C   UNL d   1      56.523  -0.261  32.148  0.00  0.00     0.196 A 
ATOM      5  C   UNL d   1      56.752   0.526  32.012  0.00  0.00     0.042 A 
ATOM      6  C   UNL d   1      56.812  -0.857  31.691  0.00  0.00     0.042 A 
ATOM      7  O   UNL d   1      55.995  -0.411  32.759  0.00  0.00    -0.287 OA
ENDROOT
BRANCH   1   8
ATOM      8  C   UNL d   1      58.099   0.232  30.330  0.00  0.00     0.090 A 
ATOM      9  N   UNL d   1      58.900   0.099  30.414  0.00  0.00    -0.219 NA
ATOM     10  C   UNL d   1      59.279   0.299  29.716  0.00  0.00     0.215 A 
ATOM     11  S   UNL d   1      58.737   0.552  29.199  0.00  0.00    -0.045 SA
ATOM     12  N   UNL d   1      60.092   0.259  29.537  0.00  0.00    -0.120 N 
ATOM     13  C   UNL d   1      57.988   0.518  29.565  0.00  0.00     0.058 A 
ENDBRANCH   1   8
TORSDOF 1
ENDMDL
MODEL 8
REMARK VINA RESULT:      -2.6      9.901     10.299
REMARK  1 active torsions:
REMARK  status: ('A' for Active; 'I' for Inactive)
REMARK    1  A    between atoms: C_6  and  C_3 
ROOT
ATOM      1  C   UNL d   1      59.898  -9.088  34.204  0.00  0.00     0.018 A 
ATOM      2  C   UNL d   1      60.695  -9.105  34.319  0.00  0.00     0.005 A 
ATOM      3  C   UNL d   1      59.386  -8.803  34.791  0.00  0.00     0.005 A 
ATOM      4  C   UNL d   1      60.510  -8.550  35.619  0.00  0.00     0.196 A 
ATOM      5  C   UNL d   1      61.022  -8.835  35.031  0.00  0.00     0.042 A 
ATOM      6  C   UNL d   1      59.714  -8.535  35.499  0.00  0.00     0.042 A 
ATOM      7  O   UNL d   1      60.839  -8.283  36.324  0.00  0.00    -0.287 OA
ENDROOT
BRANCH   1   8
ATOM      8  C   UNL d   1      59.569  -9.354  33.499  0.00  0.00     0.090 A 
ATOM      9  N   UNL d   1      58.761  -9.397  33.393  0.00  0.00    -0.219 NA
ATOM     10  C   UNL d   1      58.604  -9.680  32.641  0.00  0.00     0.215 A 
ATOM     11  S   UNL d   1      59.291  -9.816  32.275  0.00  0.00    -0.045 SA
ATOM     12  N   UNL d   1      57.864  -9.818  32.282  0.00  0.00    -0.120 N 
ATOM     13  C   UNL d   1      59.911  -9.617  32.796  0.00  0.00     0.058 A 
ENDBRANCH   1   8
TORSDOF 1
ENDMDL
