MODEL 1
REMARK VINA RESULT:      -7.8      0.000      0.000
REMARK  5 active torsions:
REMARK  status: ('A' for Active; 'I' for Inactive)
REMARK    1  A    between atoms: C_15  and  N_5 
REMARK    2  A    between atoms: S_10  and  C_6 
REMARK    3  A    between atoms: C_14  and  S_10 
REMARK    4  A    between atoms: C_11  and  C_14 
REMARK       I    between atoms: N_13  and  C_11 
REMARK    5  A    between atoms: C_17  and  C_15 
ROOT
ATOM      1  C   UNL d   1      52.890  32.470  53.295  0.00  0.00     0.081 A 
ATOM      2  C   UNL d   1      52.129  32.255  53.060  0.00  0.00     0.117 A 
ATOM      3  N   UNL d   1      51.578  32.818  52.965  0.00  0.00    -0.215 NA
ATOM      4  C   UNL d   1      53.076  33.233  53.428  0.00  0.00     0.268 A 
ATOM      5  N   UNL d   1      52.525  33.797  53.333  0.00  0.00    -0.253 N 
ATOM      6  C   UNL d   1      51.780  33.593  53.103  0.00  0.00     0.182 A 
ATOM      7  S   UNL d   1      52.093  31.474  52.967  0.00  0.00    -0.068 SA
ATOM      8  C   UNL d   1      53.325  31.763  53.342  0.00  0.00     0.013 A 
ATOM      9  C   UNL d   1      52.804  31.159  53.132  0.00  0.00     0.031 A 
ATOM     10  O   UNL d   1      53.884  33.477  53.679  0.00  0.00    -0.267 OA
ATOM     11  C   UNL d   1      54.031  31.456  53.507  0.00  0.00     0.001 A 
ATOM     12  C   UNL d   1      53.238  30.452  53.179  0.00  0.00     0.006 A 
ATOM     13  C   UNL d   1      53.954  30.638  53.399  0.00  0.00     0.001 A 
ENDROOT
BRANCH   6  14
ATOM     14  S   UNL d   1      51.191  34.200  53.003  0.00  0.00    -0.044 SA
BRANCH  14  15
ATOM     15  C   UNL d   1      50.566  34.044  52.451  0.00  0.00     0.099 C 
BRANCH  15  16
ATOM     16  C   UNL d   1      49.880  34.548  52.490  0.00  0.00     0.272 C 
ATOM     17  N   UNL d   1      49.374  34.656  51.851  0.00  0.00    -0.269 N 
ATOM     18  C   UNL d   1      48.706  35.164  51.933  0.00  0.00     0.102 C 
ATOM     19  C   UNL d   1      49.525  34.261  51.126  0.00  0.00     0.102 C 
ATOM     20  O   UNL d   1      49.733  34.943  53.224  0.00  0.00    -0.266 OA
ENDBRANCH  15  16
ENDBRANCH  14  15
ENDBRANCH   6  14
BRANCH   5  21
ATOM     21  C   UNL d   1      52.748  34.607  53.481  0.00  0.00     0.085 C 
BRANCH  21  22
ATOM     22  C   UNL d   1      52.946  34.883  54.229  0.00  0.00     0.019 C 
ATOM     23  C   UNL d   1      53.073  35.677  54.356  0.00  0.00     0.002 C 
ENDBRANCH  21  22
ENDBRANCH   5  21
TORSDOF 5
ENDMDL
MODEL 2
REMARK VINA RESULT:      -7.6      1.458      2.625
REMARK  5 active torsions:
REMARK  status: ('A' for Active; 'I' for Inactive)
REMARK    1  A    between atoms: C_15  and  N_5 
REMARK    2  A    between atoms: S_10  and  C_6 
REMARK    3  A    between atoms: C_14  and  S_10 
REMARK    4  A    between atoms: C_11  and  C_14 
REMARK       I    between atoms: N_13  and  C_11 
REMARK    5  A    between atoms: C_17  and  C_15 
ROOT
ATOM      1  C   UNL d   1      53.650  33.318  54.182  0.00  0.00     0.081 A 
ATOM      2  C   UNL d   1      53.176  33.993  54.178  0.00  0.00     0.117 A 
ATOM      3  N   UNL d   1      52.525  34.008  53.724  0.00  0.00    -0.215 NA
ATOM      4  C   UNL d   1      53.463  32.685  53.736  0.00  0.00     0.268 A 
ATOM      5  N   UNL d   1      52.812  32.700  53.281  0.00  0.00    -0.253 N 
ATOM      6  C   UNL d   1      52.344  33.356  53.274  0.00  0.00     0.182 A 
ATOM      7  S   UNL d   1      53.483  34.532  54.663  0.00  0.00    -0.068 SA
ATOM      8  C   UNL d   1      54.276  33.478  54.705  0.00  0.00     0.013 A 
ATOM      9  C   UNL d   1      54.146  34.242  54.990  0.00  0.00     0.031 A 
ATOM     10  O   UNL d   1      53.959  31.958  53.728  0.00  0.00    -0.267 OA
ATOM     11  C   UNL d   1      54.932  33.186  55.026  0.00  0.00     0.001 A 
ATOM     12  C   UNL d   1      54.771  34.402  55.513  0.00  0.00     0.006 A 
ATOM     13  C   UNL d   1      55.224  33.779  55.526  0.00  0.00     0.001 A 
ENDROOT
BRANCH   6  14
ATOM     14  S   UNL d   1      51.647  33.370  52.785  0.00  0.00    -0.044 SA
BRANCH  14  15
ATOM     15  C   UNL d   1      51.131  34.037  52.867  0.00  0.00     0.099 C 
BRANCH  15  16
ATOM     16  C   UNL d   1      50.577  34.179  52.235  0.00  0.00     0.272 C 
ATOM     17  N   UNL d   1      49.841  34.523  52.361  0.00  0.00    -0.269 N 
ATOM     18  C   UNL d   1      49.324  34.645  51.706  0.00  0.00     0.102 C 
ATOM     19  C   UNL d   1      49.612  34.751  53.135  0.00  0.00     0.102 C 
ATOM     20  O   UNL d   1      50.814  33.948  51.455  0.00  0.00    -0.266 OA
ENDBRANCH  15  16
ENDBRANCH  14  15
ENDBRANCH   6  14
BRANCH   5  21
ATOM     21  C   UNL d   1      52.632  32.010  52.812  0.00  0.00     0.085 C 
BRANCH  21  22
ATOM     22  C   UNL d   1      52.571  31.257  53.135  0.00  0.00     0.019 C 
ATOM     23  C   UNL d   1      52.548  30.601  52.654  0.00  0.00     0.002 C 
ENDBRANCH  21  22
ENDBRANCH   5  21
TORSDOF 5
ENDMDL
MODEL 3
REMARK VINA RESULT:      -7.2      1.628      4.171
REMARK  5 active torsions:
REMARK  status: ('A' for Active; 'I' for Inactive)
REMARK    1  A    between atoms: C_15  and  N_5 
REMARK    2  A    between atoms: S_10  and  C_6 
REMARK    3  A    between atoms: C_14  and  S_10 
REMARK    4  A    between atoms: C_11  and  C_14 
REMARK       I    between atoms: N_13  and  C_11 
REMARK    5  A    between atoms: C_17  and  C_15 
ROOT
ATOM      1  C   UNL d   1      52.167  33.501  53.329  0.00  0.00     0.081 A 
ATOM      2  C   UNL d   1      51.856  32.765  53.122  0.00  0.00     0.117 A 
ATOM      3  N   UNL d   1      52.300  32.114  53.220  0.00  0.00    -0.215 NA
ATOM      4  C   UNL d   1      52.904  33.564  53.624  0.00  0.00     0.268 A 
ATOM      5  N   UNL d   1      53.348  32.913  53.723  0.00  0.00    -0.253 N 
ATOM      6  C   UNL d   1      53.050  32.191  53.522  0.00  0.00     0.182 A 
ATOM      7  S   UNL d   1      51.125  32.857  52.847  0.00  0.00    -0.068 SA
ATOM      8  C   UNL d   1      51.574  34.058  53.161  0.00  0.00     0.013 A 
ATOM      9  C   UNL d   1      50.935  33.628  52.862  0.00  0.00     0.031 A 
ATOM     10  O   UNL d   1      53.250  34.342  53.849  0.00  0.00    -0.267 OA
ATOM     11  C   UNL d   1      51.390  34.823  53.178  0.00  0.00     0.001 A 
ATOM     12  C   UNL d   1      50.342  34.185  52.694  0.00  0.00     0.006 A 
ATOM     13  C   UNL d   1      50.618  34.879  52.883  0.00  0.00     0.001 A 
ENDROOT
BRANCH   6  14
ATOM     14  S   UNL d   1      53.529  31.495  53.629  0.00  0.00    -0.044 SA
BRANCH  14  15
ATOM     15  C   UNL d   1      53.126  30.749  53.645  0.00  0.00     0.099 C 
BRANCH  15  16
ATOM     16  C   UNL d   1      53.606  30.052  53.747  0.00  0.00     0.272 C 
ATOM     17  N   UNL d   1      53.365  29.413  54.204  0.00  0.00    -0.269 N 
ATOM     18  C   UNL d   1      53.872  28.743  54.278  0.00  0.00     0.102 C 
ATOM     19  C   UNL d   1      52.621  29.431  54.592  0.00  0.00     0.102 C 
ATOM     20  O   UNL d   1      54.356  30.039  53.354  0.00  0.00    -0.266 OA
ENDBRANCH  15  16
ENDBRANCH  14  15
ENDBRANCH   6  14
BRANCH   5  21
ATOM     21  C   UNL d   1      54.134  33.006  54.041  0.00  0.00     0.085 C 
BRANCH  21  22
ATOM     22  C   UNL d   1      54.276  33.291  54.798  0.00  0.00     0.019 C 
ATOM     23  C   UNL d   1      55.036  33.435  55.051  0.00  0.00     0.002 C 
ENDBRANCH  21  22
ENDBRANCH   5  21
TORSDOF 5
ENDMDL
MODEL 4
REMARK VINA RESULT:      -6.1      9.674     10.276
REMARK  5 active torsions:
REMARK  status: ('A' for Active; 'I' for Inactive)
REMARK    1  A    between atoms: C_15  and  N_5 
REMARK    2  A    between atoms: S_10  and  C_6 
REMARK    3  A    between atoms: C_14  and  S_10 
REMARK    4  A    between atoms: C_11  and  C_14 
REMARK       I    between atoms: N_13  and  C_11 
REMARK    5  A    between atoms: C_17  and  C_15 
ROOT
ATOM      1  C   UNL d   1      45.057  28.765  57.911  0.00  0.00     0.081 A 
ATOM      2  C   UNL d   1      44.992  28.538  58.702  0.00  0.00     0.117 A 
ATOM      3  N   UNL d   1      44.906  29.096  59.261  0.00  0.00    -0.215 NA
ATOM      4  C   UNL d   1      45.033  29.534  57.704  0.00  0.00     0.268 A 
ATOM      5  N   UNL d   1      44.947  30.092  58.262  0.00  0.00    -0.253 N 
ATOM      6  C   UNL d   1      44.883  29.876  59.037  0.00  0.00     0.182 A 
ATOM      7  S   UNL d   1      45.032  27.754  58.754  0.00  0.00    -0.068 SA
ATOM      8  C   UNL d   1      45.140  28.063  57.476  0.00  0.00     0.013 A 
ATOM      9  C   UNL d   1      45.121  27.448  58.027  0.00  0.00     0.031 A 
ATOM     10  O   UNL d   1      45.101  29.791  56.865  0.00  0.00    -0.267 OA
ATOM     11  C   UNL d   1      45.228  27.764  56.753  0.00  0.00     0.001 A 
ATOM     12  C   UNL d   1      45.203  26.745  57.591  0.00  0.00     0.006 A 
ATOM     13  C   UNL d   1      45.265  26.942  56.848  0.00  0.00     0.001 A 
ENDROOT
BRANCH   6  14
ATOM     14  S   UNL d   1      44.790  30.477  59.634  0.00  0.00    -0.044 SA
BRANCH  14  15
ATOM     15  C   UNL d   1      44.778  30.220  60.441  0.00  0.00     0.099 C 
BRANCH  15  16
ATOM     16  C   UNL d   1      44.651  30.817  61.037  0.00  0.00     0.272 C 
ATOM     17  N   UNL d   1      44.577  30.636  61.835  0.00  0.00    -0.269 N 
ATOM     18  C   UNL d   1      44.452  31.259  62.390  0.00  0.00     0.102 C 
ATOM     19  C   UNL d   1      44.625  29.839  62.091  0.00  0.00     0.102 C 
ATOM     20  O   UNL d   1      44.603  31.620  60.772  0.00  0.00    -0.266 OA
ENDBRANCH  15  16
ENDBRANCH  14  15
ENDBRANCH   6  14
BRANCH   5  21
ATOM     21  C   UNL d   1      44.924  30.909  58.017  0.00  0.00     0.085 C 
BRANCH  21  22
ATOM     22  C   UNL d   1      44.370  31.196  57.483  0.00  0.00     0.019 C 
ATOM     23  C   UNL d   1      44.363  31.983  57.277  0.00  0.00     0.002 C 
ENDBRANCH  21  22
ENDBRANCH   5  21
TORSDOF 5
ENDMDL
MODEL 5
REMARK VINA RESULT:      -5.9      1.400      2.876
REMARK  5 active torsions:
REMARK  status: ('A' for Active; 'I' for Inactive)
REMARK    1  A    between atoms: C_15  and  N_5 
REMARK    2  A    between atoms: S_10  and  C_6 
REMARK    3  A    between atoms: C_14  and  S_10 
REMARK    4  A    between atoms: C_11  and  C_14 
REMARK       I    between atoms: N_13  and  C_11 
REMARK    5  A    between atoms: C_17  and  C_15 
ROOT
ATOM      1  C   UNL d   1      52.541  31.769  53.269  0.00  0.00     0.081 A 
ATOM      2  C   UNL d   1      53.265  32.132  53.426  0.00  0.00     0.117 A 
ATOM      3  N   UNL d   1      53.297  32.922  53.493  0.00  0.00    -0.215 NA
ATOM      4  C   UNL d   1      51.877  32.201  53.183  0.00  0.00     0.268 A 
ATOM      5  N   UNL d   1      51.909  32.992  53.250  0.00  0.00    -0.253 N 
ATOM      6  C   UNL d   1      52.614  33.352  53.404  0.00  0.00     0.182 A 
ATOM      7  S   UNL d   1      53.826  31.583  53.484  0.00  0.00    -0.068 SA
ATOM      8  C   UNL d   1      52.694  30.953  53.233  0.00  0.00     0.013 A 
ATOM      9  C   UNL d   1      53.504  30.866  53.371  0.00  0.00     0.031 A 
ATOM     10  O   UNL d   1      51.098  31.828  53.015  0.00  0.00    -0.267 OA
ATOM     11  C   UNL d   1      52.370  30.245  53.121  0.00  0.00     0.001 A 
ATOM     12  C   UNL d   1      53.658  30.050  53.336  0.00  0.00     0.006 A 
ATOM     13  C   UNL d   1      52.988  29.697  53.189  0.00  0.00     0.001 A 
ENDROOT
BRANCH   6  14
ATOM     14  S   UNL d   1      52.645  34.201  53.475  0.00  0.00    -0.044 SA
BRANCH  14  15
ATOM     15  C   UNL d   1      53.130  34.518  54.093  0.00  0.00     0.099 C 
BRANCH  15  16
ATOM     16  C   UNL d   1      53.154  35.367  54.170  0.00  0.00     0.272 C 
ATOM     17  N   UNL d   1      53.219  35.743  54.898  0.00  0.00    -0.269 N 
ATOM     18  C   UNL d   1      53.239  36.586  54.928  0.00  0.00     0.102 C 
ATOM     19  C   UNL d   1      53.266  35.289  55.602  0.00  0.00     0.102 C 
ATOM     20  O   UNL d   1      53.106  35.820  53.456  0.00  0.00    -0.266 OA
ENDBRANCH  15  16
ENDBRANCH  14  15
ENDBRANCH   6  14
BRANCH   5  21
ATOM     21  C   UNL d   1      51.186  33.434  53.155  0.00  0.00     0.085 C 
BRANCH  21  22
ATOM     22  C   UNL d   1      50.860  33.600  52.419  0.00  0.00     0.019 C 
ATOM     23  C   UNL d   1      50.212  34.087  52.353  0.00  0.00     0.002 C 
ENDBRANCH  21  22
ENDBRANCH   5  21
TORSDOF 5
ENDMDL
MODEL 6
REMARK VINA RESULT:      -5.7      1.887      4.007
REMARK  5 active torsions:
REMARK  status: ('A' for Active; 'I' for Inactive)
REMARK    1  A    between atoms: C_15  and  N_5 
REMARK    2  A    between atoms: S_10  and  C_6 
REMARK    3  A    between atoms: C_14  and  S_10 
REMARK    4  A    between atoms: C_11  and  C_14 
REMARK       I    between atoms: N_13  and  C_11 
REMARK    5  A    between atoms: C_17  and  C_15 
ROOT
ATOM      1  C   UNL d   1      53.673  33.534  54.338  0.00  0.00     0.081 A 
ATOM      2  C   UNL d   1      54.136  32.851  54.305  0.00  0.00     0.117 A 
ATOM      3  N   UNL d   1      53.868  32.219  53.906  0.00  0.00    -0.215 NA
ATOM      4  C   UNL d   1      52.965  33.565  53.975  0.00  0.00     0.268 A 
ATOM      5  N   UNL d   1      52.697  32.933  53.576  0.00  0.00    -0.253 N 
ATOM      6  C   UNL d   1      53.145  32.263  53.540  0.00  0.00     0.182 A 
ATOM      7  S   UNL d   1      54.803  32.967  54.706  0.00  0.00    -0.068 SA
ATOM      8  C   UNL d   1      54.104  34.083  54.789  0.00  0.00     0.013 A 
ATOM      9  C   UNL d   1      54.804  33.703  55.005  0.00  0.00     0.031 A 
ATOM     10  O   UNL d   1      52.460  34.286  54.000  0.00  0.00    -0.267 OA
ATOM     11  C   UNL d   1      54.099  34.813  55.084  0.00  0.00     0.001 A 
ATOM     12  C   UNL d   1      55.234  34.252  55.457  0.00  0.00     0.006 A 
ATOM     13  C   UNL d   1      54.813  34.897  55.496  0.00  0.00     0.001 A 
ENDROOT
BRANCH   6  14
ATOM     14  S   UNL d   1      52.855  31.586  53.112  0.00  0.00    -0.044 SA
BRANCH  14  15
ATOM     15  C   UNL d   1      53.166  30.829  53.331  0.00  0.00     0.099 C 
BRANCH  15  16
ATOM     16  C   UNL d   1      52.857  30.149  52.919  0.00  0.00     0.272 C 
ATOM     17  N   UNL d   1      52.763  29.417  53.282  0.00  0.00    -0.269 N 
ATOM     18  C   UNL d   1      52.454  28.771  52.837  0.00  0.00     0.102 C 
ATOM     19  C   UNL d   1      52.976  29.319  54.088  0.00  0.00     0.102 C 
ATOM     20  O   UNL d   1      52.644  30.254  52.106  0.00  0.00    -0.266 OA
ENDBRANCH  15  16
ENDBRANCH  14  15
ENDBRANCH   6  14
BRANCH   5  21
ATOM     21  C   UNL d   1      51.936  32.989  53.195  0.00  0.00     0.085 C 
BRANCH  21  22
ATOM     22  C   UNL d   1      51.753  33.577  52.652  0.00  0.00     0.019 C 
ATOM     23  C   UNL d   1      50.999  33.649  52.357  0.00  0.00     0.002 C 
ENDBRANCH  21  22
ENDBRANCH   5  21
TORSDOF 5
ENDMDL
MODEL 7
REMARK VINA RESULT:      -5.5     10.271     10.940
REMARK  5 active torsions:
REMARK  status: ('A' for Active; 'I' for Inactive)
REMARK    1  A    between atoms: C_15  and  N_5 
REMARK    2  A    between atoms: S_10  and  C_6 
REMARK    3  A    between atoms: C_14  and  S_10 
REMARK    4  A    between atoms: C_11  and  C_14 
REMARK       I    between atoms: N_13  and  C_11 
REMARK    5  A    between atoms: C_17  and  C_15 
ROOT
ATOM      1  C   UNL d   1      44.584  29.293  60.590  0.00  0.00     0.081 A 
ATOM      2  C   UNL d   1      44.749  29.949  60.117  0.00  0.00     0.117 A 
ATOM      3  N   UNL d   1      44.814  29.855  59.332  0.00  0.00    -0.215 NA
ATOM      4  C   UNL d   1      44.490  28.571  60.268  0.00  0.00     0.268 A 
ATOM      5  N   UNL d   1      44.555  28.477  59.482  0.00  0.00    -0.253 N 
ATOM      6  C   UNL d   1      44.716  29.114  59.015  0.00  0.00     0.182 A 
ATOM      7  S   UNL d   1      44.815  30.589  60.570  0.00  0.00    -0.068 SA
ATOM      8  C   UNL d   1      44.553  29.574  61.372  0.00  0.00     0.013 A 
ATOM      9  C   UNL d   1      44.700  30.385  61.329  0.00  0.00     0.031 A 
ATOM     10  O   UNL d   1      44.314  27.862  60.759  0.00  0.00    -0.267 OA
ATOM     11  C   UNL d   1      44.438  29.367  62.122  0.00  0.00     0.001 A 
ATOM     12  C   UNL d   1      44.668  30.666  62.111  0.00  0.00     0.006 A 
ATOM     13  C   UNL d   1      44.515  30.063  62.565  0.00  0.00     0.001 A 
ENDROOT
BRANCH   6  14
ATOM     14  S   UNL d   1      44.786  29.010  58.172  0.00  0.00    -0.044 SA
BRANCH  14  15
ATOM     15  C   UNL d   1      44.761  29.709  57.694  0.00  0.00     0.099 C 
BRANCH  15  16
ATOM     16  C   UNL d   1      44.794  29.603  56.849  0.00  0.00     0.272 C 
ATOM     17  N   UNL d   1      44.580  30.194  56.320  0.00  0.00    -0.269 N 
ATOM     18  C   UNL d   1      44.628  30.045  55.491  0.00  0.00     0.102 C 
ATOM     19  C   UNL d   1      44.317  30.937  56.606  0.00  0.00     0.102 C 
ATOM     20  O   UNL d   1      45.060  28.850  56.566  0.00  0.00    -0.266 OA
ENDBRANCH  15  16
ENDBRANCH  14  15
ENDBRANCH   6  14
BRANCH   5  21
ATOM     21  C   UNL d   1      44.451  27.694  59.160  0.00  0.00     0.085 C 
BRANCH  21  22
ATOM     22  C   UNL d   1      44.953  27.069  59.340  0.00  0.00     0.019 C 
ATOM     23  C   UNL d   1      44.842  26.338  59.000  0.00  0.00     0.002 C 
ENDBRANCH  21  22
ENDBRANCH   5  21
TORSDOF 5
ENDMDL
