MODEL 1
REMARK VINA RESULT:      -5.3      0.000      0.000
REMARK  5 active torsions:
REMARK  status: ('A' for Active; 'I' for Inactive)
REMARK    1  A    between atoms: C_3  and  C_1 
REMARK       I    between atoms: N_4  and  C_1 
REMARK    2  A    between atoms: C_9  and  N_4 
REMARK    3  A    between atoms: C_5  and  O_6 
REMARK    4  A    between atoms: O_6  and  C_10 
REMARK    5  A    between atoms: C_10  and  C_9 
ROOT
ATOM      1  C   UNL d   1     -41.599-122.453 -50.513  0.00  0.00     0.279 C 
ATOM      2  O   UNL d   1     -41.141-121.780 -50.377  0.00  0.00    -0.265 OA
ATOM      3  N   UNL d   1     -41.700-122.734 -51.283  0.00  0.00    -0.204 NA
ENDROOT
BRANCH   3   4
ATOM      4  C   UNL d   1     -41.344-122.342 -51.916  0.00  0.00     0.129 C 
BRANCH   4   5
ATOM      5  C   UNL d   1     -41.555-122.533 -52.691  0.00  0.00     0.143 C 
BRANCH   5   6
ATOM      6  O   UNL d   1     -41.300-122.059 -53.317  0.00  0.00    -0.303 OA
BRANCH   6   7
ATOM      7  C   UNL d   1     -41.618-122.162 -54.084  0.00  0.00     0.100 A 
ATOM      8  C   UNL d   1     -41.356-122.789 -54.552  0.00  0.00     0.025 A 
ATOM      9  C   UNL d   1     -41.660-122.899 -55.303  0.00  0.00     0.002 A 
ATOM     10  C   UNL d   1     -42.229-122.379 -55.590  0.00  0.00     0.000 A 
ATOM     11  C   UNL d   1     -42.490-121.752 -55.123  0.00  0.00     0.002 A 
ATOM     12  C   UNL d   1     -42.183-121.644 -54.368  0.00  0.00     0.025 A 
ENDBRANCH   6   7
ENDBRANCH   5   6
ENDBRANCH   4   5
ENDBRANCH   3   4
BRANCH   1  13
ATOM     13  C   UNL d   1     -41.954-122.844 -49.884  0.00  0.00     0.058 A 
ATOM     14  C   UNL d   1     -42.720-122.654 -49.670  0.00  0.00     0.005 A 
ATOM     15  C   UNL d   1     -43.078-123.046 -49.038  0.00  0.00     0.000 A 
ATOM     16  C   UNL d   1     -42.663-123.626 -48.625  0.00  0.00     0.000 A 
ATOM     17  C   UNL d   1     -41.889-123.816 -48.843  0.00  0.00     0.000 A 
ATOM     18  C   UNL d   1     -41.539-123.425 -49.470  0.00  0.00     0.005 A 
ENDBRANCH   1  13
TORSDOF 5
ENDMDL
MODEL 2
REMARK VINA RESULT:      -5.1      0.580      4.931
REMARK  5 active torsions:
REMARK  status: ('A' for Active; 'I' for Inactive)
REMARK    1  A    between atoms: C_3  and  C_1 
REMARK       I    between atoms: N_4  and  C_1 
REMARK    2  A    between atoms: C_9  and  N_4 
REMARK    3  A    between atoms: C_5  and  O_6 
REMARK    4  A    between atoms: O_6  and  C_10 
REMARK    5  A    between atoms: C_10  and  C_9 
ROOT
ATOM      1  C   UNL d   1     -41.395-122.133 -52.907  0.00  0.00     0.279 C 
ATOM      2  O   UNL d   1     -41.125-121.373 -52.732  0.00  0.00    -0.265 OA
ATOM      3  N   UNL d   1     -41.493-122.684 -52.301  0.00  0.00    -0.204 NA
ENDROOT
BRANCH   3   4
ATOM      4  C   UNL d   1     -41.321-122.478 -51.521  0.00  0.00     0.129 C 
BRANCH   4   5
ATOM      5  C   UNL d   1     -41.670-122.890 -50.897  0.00  0.00     0.143 C 
BRANCH   5   6
ATOM      6  O   UNL d   1     -41.474-122.704 -50.118  0.00  0.00    -0.303 OA
BRANCH   6   7
ATOM      7  C   UNL d   1     -41.909-123.028 -49.481  0.00  0.00     0.100 A 
ATOM      8  C   UNL d   1     -41.523-123.494 -48.920  0.00  0.00     0.025 A 
ATOM      9  C   UNL d   1     -41.939-123.816 -48.294  0.00  0.00     0.002 A 
ATOM     10  C   UNL d   1     -42.745-123.673 -48.226  0.00  0.00     0.000 A 
ATOM     11  C   UNL d   1     -43.132-123.207 -48.787  0.00  0.00     0.002 A 
ATOM     12  C   UNL d   1     -42.711-122.885 -49.416  0.00  0.00     0.025 A 
ENDBRANCH   6   7
ENDBRANCH   5   6
ENDBRANCH   4   5
ENDBRANCH   3   4
BRANCH   1  13
ATOM     13  C   UNL d   1     -41.567-122.341 -53.683  0.00  0.00     0.058 A 
ATOM     14  C   UNL d   1     -41.228-123.010 -54.007  0.00  0.00     0.005 A 
ATOM     15  C   UNL d   1     -41.399-123.221 -54.786  0.00  0.00     0.000 A 
ATOM     16  C   UNL d   1     -41.911-122.755 -55.236  0.00  0.00     0.000 A 
ATOM     17  C   UNL d   1     -42.251-122.079 -54.906  0.00  0.00     0.000 A 
ATOM     18  C   UNL d   1     -42.078-121.875 -54.133  0.00  0.00     0.005 A 
ENDBRANCH   1  13
TORSDOF 5
ENDMDL
