MODEL 1
REMARK VINA RESULT:      -5.0      0.000      0.000
REMARK  2 active torsions:
REMARK  status: ('A' for Active; 'I' for Inactive)
REMARK    1  A    between atoms: C_5  and  CA_2 
REMARK    2  A    between atoms: C_4  and  CA_3 
ROOT
ATOM      1  N   UNL d   1      56.167   0.330  32.774  0.00  0.00    -0.233 NA
ATOM      2  CA  UNL d   1      56.603  -0.101  32.222  0.00  0.00     0.146 A 
ATOM      3  CA  UNL d   1      55.653  -0.051  33.288  0.00  0.00     0.146 A 
ATOM      4  C   UNL d   1      55.570  -0.878  33.253  0.00  0.00     0.025 A 
ATOM      5  C   UNL d   1      56.521  -0.928  32.188  0.00  0.00     0.025 A 
ATOM      6  C   UNL d   1      56.003  -1.318  32.705  0.00  0.00     0.004 A 
ENDROOT
BRANCH   2   7
ATOM      7  C   UNL d   1      57.120   0.280  31.705  0.00  0.00     0.229 C 
ATOM      8  O   UNL d   1      57.854   0.544  31.969  0.00  0.00    -0.643 OA
ATOM      9  OXT UNL d   1      56.936   0.414  30.913  0.00  0.00    -0.643 OA
ENDBRANCH   2   7
BRANCH   3  10
ATOM     10  C   UNL d   1      55.219   0.380  33.836  0.00  0.00     0.229 C 
ATOM     11  O   UNL d   1      54.452   0.627  33.690  0.00  0.00    -0.643 OA
ATOM     12  OXT UNL d   1      55.542   0.591  34.580  0.00  0.00    -0.643 OA
ENDBRANCH   3  10
TORSDOF 2
ENDMDL
MODEL 2
REMARK VINA RESULT:      -5.0      0.024      2.591
REMARK  2 active torsions:
REMARK  status: ('A' for Active; 'I' for Inactive)
REMARK    1  A    between atoms: C_5  and  CA_2 
REMARK    2  A    between atoms: C_4  and  CA_3 
ROOT
ATOM      1  N   UNL d   1      56.187   0.320  32.769  0.00  0.00    -0.233 NA
ATOM      2  CA  UNL d   1      55.668  -0.057  33.288  0.00  0.00     0.146 A 
ATOM      3  CA  UNL d   1      56.613  -0.113  32.218  0.00  0.00     0.146 A 
ATOM      4  C   UNL d   1      56.522  -0.939  32.180  0.00  0.00     0.025 A 
ATOM      5  C   UNL d   1      55.577  -0.883  33.251  0.00  0.00     0.025 A 
ATOM      6  C   UNL d   1      56.006  -1.325  32.695  0.00  0.00     0.004 A 
ENDROOT
BRANCH   2   7
ATOM      7  C   UNL d   1      55.239   0.376  33.843  0.00  0.00     0.229 C 
ATOM      8  O   UNL d   1      54.470   0.617  33.679  0.00  0.00    -0.643 OA
ATOM      9  OXT UNL d   1      55.550   0.588  34.577  0.00  0.00    -0.643 OA
ENDBRANCH   2   7
BRANCH   3  10
ATOM     10  C   UNL d   1      57.129   0.265  31.703  0.00  0.00     0.229 C 
ATOM     11  O   UNL d   1      56.958   0.363  30.907  0.00  0.00    -0.643 OA
ATOM     12  OXT UNL d   1      57.863   0.572  31.966  0.00  0.00    -0.643 OA
ENDBRANCH   3  10
TORSDOF 2
ENDMDL
MODEL 3
REMARK VINA RESULT:      -4.4      1.314      2.983
REMARK  2 active torsions:
REMARK  status: ('A' for Active; 'I' for Inactive)
REMARK    1  A    between atoms: C_5  and  CA_2 
REMARK    2  A    between atoms: C_4  and  CA_3 
ROOT
ATOM      1  N   UNL d   1      56.680  -0.476  31.797  0.00  0.00    -0.233 NA
ATOM      2  CA  UNL d   1      56.480  -0.475  32.598  0.00  0.00     0.146 A 
ATOM      3  CA  UNL d   1      57.228   0.058  31.503  0.00  0.00     0.146 A 
ATOM      4  C   UNL d   1      57.587   0.607  32.015  0.00  0.00     0.025 A 
ATOM      5  C   UNL d   1      56.839   0.074  33.110  0.00  0.00     0.025 A 
ATOM      6  C   UNL d   1      57.394   0.617  32.818  0.00  0.00     0.004 A 
ENDROOT
BRANCH   2   7
ATOM      7  C   UNL d   1      55.930  -1.011  32.895  0.00  0.00     0.229 C 
ATOM      8  O   UNL d   1      55.222  -0.745  33.219  0.00  0.00    -0.643 OA
ATOM      9  OXT UNL d   1      56.054  -1.826  32.885  0.00  0.00    -0.643 OA
ENDBRANCH   2   7
BRANCH   3  10
ATOM     10  C   UNL d   1      57.425   0.055  30.706  0.00  0.00     0.229 C 
ATOM     11  O   UNL d   1      57.246   0.681  30.209  0.00  0.00    -0.643 OA
ATOM     12  OXT UNL d   1      57.823  -0.595  30.357  0.00  0.00    -0.643 OA
ENDBRANCH   3  10
TORSDOF 2
ENDMDL
MODEL 4
REMARK VINA RESULT:      -4.2      8.696      9.390
REMARK  2 active torsions:
REMARK  status: ('A' for Active; 'I' for Inactive)
REMARK    1  A    between atoms: C_5  and  CA_2 
REMARK    2  A    between atoms: C_4  and  CA_3 
ROOT
ATOM      1  N   UNL d   1      60.410  -7.563  35.305  0.00  0.00    -0.233 NA
ATOM      2  CA  UNL d   1      60.006  -7.104  35.859  0.00  0.00     0.146 A 
ATOM      3  CA  UNL d   1      60.229  -8.359  35.213  0.00  0.00     0.146 A 
ATOM      4  C   UNL d   1      59.634  -8.705  35.680  0.00  0.00     0.025 A 
ATOM      5  C   UNL d   1      59.412  -7.450  36.327  0.00  0.00     0.025 A 
ATOM      6  C   UNL d   1      59.225  -8.253  36.237  0.00  0.00     0.004 A 
ENDROOT
BRANCH   2   7
ATOM      7  C   UNL d   1      60.187  -6.305  35.953  0.00  0.00     0.229 C 
ATOM      8  O   UNL d   1      60.882  -6.076  36.329  0.00  0.00    -0.643 OA
ATOM      9  OXT UNL d   1      59.692  -5.703  35.682  0.00  0.00    -0.643 OA
ENDBRANCH   2   7
BRANCH   3  10
ATOM     10  C   UNL d   1      60.631  -8.814  34.661  0.00  0.00     0.229 C 
ATOM     11  O   UNL d   1      60.567  -8.682  33.855  0.00  0.00    -0.643 OA
ATOM     12  OXT UNL d   1      61.133  -9.443  34.896  0.00  0.00    -0.643 OA
ENDBRANCH   3  10
TORSDOF 2
ENDMDL
MODEL 5
REMARK VINA RESULT:      -3.1      1.892      3.755
REMARK  2 active torsions:
REMARK  status: ('A' for Active; 'I' for Inactive)
REMARK    1  A    between atoms: C_5  and  CA_2 
REMARK    2  A    between atoms: C_4  and  CA_3 
ROOT
ATOM      1  N   UNL d   1      57.468  -0.485  30.687  0.00  0.00    -0.233 NA
ATOM      2  CA  UNL d   1      57.256  -0.330  31.469  0.00  0.00     0.146 A 
ATOM      3  CA  UNL d   1      58.081  -0.071  30.331  0.00  0.00     0.146 A 
ATOM      4  C   UNL d   1      58.493   0.509  30.762  0.00  0.00     0.025 A 
ATOM      5  C   UNL d   1      57.668   0.251  31.899  0.00  0.00     0.025 A 
ATOM      6  C   UNL d   1      58.288   0.672  31.544  0.00  0.00     0.004 A 
ENDROOT
BRANCH   2   7
ATOM      7  C   UNL d   1      56.640  -0.744  31.827  0.00  0.00     0.229 C 
ATOM      8  O   UNL d   1      56.038  -0.341  32.217  0.00  0.00    -0.643 OA
ATOM      9  OXT UNL d   1      56.594  -1.568  31.817  0.00  0.00    -0.643 OA
ENDBRANCH   2   7
BRANCH   3  10
ATOM     10  C   UNL d   1      58.291  -0.227  29.553  0.00  0.00     0.229 C 
ATOM     11  O   UNL d   1      58.934  -0.696  29.359  0.00  0.00    -0.643 OA
ATOM     12  OXT UNL d   1      57.853   0.087  28.911  0.00  0.00    -0.643 OA
ENDBRANCH   3  10
TORSDOF 2
ENDMDL
MODEL 6
REMARK VINA RESULT:      -2.4      3.574      4.701
REMARK  2 active torsions:
REMARK  status: ('A' for Active; 'I' for Inactive)
REMARK    1  A    between atoms: C_5  and  CA_2 
REMARK    2  A    between atoms: C_4  and  CA_3 
ROOT
ATOM      1  N   UNL d   1      58.554  -1.259  29.669  0.00  0.00    -0.233 NA
ATOM      2  CA  UNL d   1      58.971  -1.734  29.139  0.00  0.00     0.146 A 
ATOM      3  CA  UNL d   1      58.572  -0.442  29.601  0.00  0.00     0.146 A 
ATOM      4  C   UNL d   1      59.014  -0.088  28.991  0.00  0.00     0.025 A 
ATOM      5  C   UNL d   1      59.413  -1.380  28.529  0.00  0.00     0.025 A 
ATOM      6  C   UNL d   1      59.434  -0.554  28.455  0.00  0.00     0.004 A 
ENDROOT
BRANCH   2   7
ATOM      7  C   UNL d   1      58.954  -2.555  29.206  0.00  0.00     0.229 C 
ATOM      8  O   UNL d   1      59.636  -2.971  29.404  0.00  0.00    -0.643 OA
ATOM      9  OXT UNL d   1      58.269  -2.997  29.082  0.00  0.00    -0.643 OA
ENDBRANCH   2   7
BRANCH   3  10
ATOM     10  C   UNL d   1      58.157   0.028  30.130  0.00  0.00     0.229 C 
ATOM     11  O   UNL d   1      57.384   0.262  29.993  0.00  0.00    -0.643 OA
ATOM     12  OXT UNL d   1      58.505   0.296  30.844  0.00  0.00    -0.643 OA
ENDBRANCH   3  10
TORSDOF 2
ENDMDL
MODEL 7
REMARK VINA RESULT:      -2.4      3.084      4.652
REMARK  2 active torsions:
REMARK  status: ('A' for Active; 'I' for Inactive)
REMARK    1  A    between atoms: C_5  and  CA_2 
REMARK    2  A    between atoms: C_4  and  CA_3 
ROOT
ATOM      1  N   UNL d   1      58.383  -0.704  29.941  0.00  0.00    -0.233 NA
ATOM      2  CA  UNL d   1      58.170   0.093  29.947  0.00  0.00     0.146 A 
ATOM      3  CA  UNL d   1      58.679  -1.052  29.259  0.00  0.00     0.146 A 
ATOM      4  C   UNL d   1      58.765  -0.598  28.567  0.00  0.00     0.025 A 
ATOM      5  C   UNL d   1      58.256   0.547  29.254  0.00  0.00     0.025 A 
ATOM      6  C   UNL d   1      58.555   0.200  28.563  0.00  0.00     0.004 A 
ENDROOT
BRANCH   2   7
ATOM      7  C   UNL d   1      57.872   0.444  30.630  0.00  0.00     0.229 C 
ATOM      8  O   UNL d   1      58.381   0.680  31.233  0.00  0.00    -0.643 OA
ATOM      9  OXT UNL d   1      57.067   0.577  30.747  0.00  0.00    -0.643 OA
ENDBRANCH   2   7
BRANCH   3  10
ATOM     10  C   UNL d   1      58.891  -1.844  29.257  0.00  0.00     0.229 C 
ATOM     11  O   UNL d   1      58.385  -2.433  29.522  0.00  0.00    -0.643 OA
ATOM     12  OXT UNL d   1      59.641  -2.096  28.980  0.00  0.00    -0.643 OA
ENDBRANCH   3  10
TORSDOF 2
ENDMDL
MODEL 8
REMARK VINA RESULT:      -2.3      1.664      2.066
REMARK  2 active torsions:
REMARK  status: ('A' for Active; 'I' for Inactive)
REMARK    1  A    between atoms: C_5  and  CA_2 
REMARK    2  A    between atoms: C_4  and  CA_3 
ROOT
ATOM      1  N   UNL d   1      56.650  -1.338  31.770  0.00  0.00    -0.233 NA
ATOM      2  CA  UNL d   1      57.253  -0.939  31.373  0.00  0.00     0.146 A 
ATOM      3  CA  UNL d   1      56.324  -1.025  32.455  0.00  0.00     0.146 A 
ATOM      4  C   UNL d   1      56.604  -0.300  32.752  0.00  0.00     0.025 A 
ATOM      5  C   UNL d   1      57.533  -0.214  31.670  0.00  0.00     0.025 A 
ATOM      6  C   UNL d   1      57.207   0.106  32.362  0.00  0.00     0.004 A 
ENDROOT
BRANCH   2   7
ATOM      7  C   UNL d   1      57.582  -1.252  30.685  0.00  0.00     0.229 C 
ATOM      8  O   UNL d   1      57.487  -2.048  30.502  0.00  0.00    -0.643 OA
ATOM      9  OXT UNL d   1      58.015  -0.794  30.152  0.00  0.00    -0.643 OA
ENDBRANCH   2   7
BRANCH   3  10
ATOM     10  C   UNL d   1      55.724  -1.423  32.848  0.00  0.00     0.229 C 
ATOM     11  O   UNL d   1      55.841  -2.155  33.198  0.00  0.00    -0.643 OA
ATOM     12  OXT UNL d   1      54.953  -1.100  32.913  0.00  0.00    -0.643 OA
ENDBRANCH   3  10
TORSDOF 2
ENDMDL
