MODEL 1
REMARK VINA RESULT:      12.1      0.000      0.000
REMARK  2 active torsions:
REMARK  status: ('A' for Active; 'I' for Inactive)
REMARK    1  A    between atoms: N_8  and  C_7 
REMARK    2  A    between atoms: C_9  and  N_8 
ROOT
ATOM      1  N   UNL d   1     -54.850-102.606 -37.875  0.00  0.00    -0.245 NA
ENDROOT
BRANCH   1   2
ATOM      2  C   UNL d   1     -55.484-102.682 -38.386  0.00  0.00     0.093 A 
ATOM      3  C   UNL d   1     -55.443-102.760 -39.203  0.00  0.00     0.118 A 
ATOM      4  S   UNL d   1     -56.221-102.819 -39.486  0.00  0.00     0.213 S 
ATOM      5  C   UNL d   1     -56.735-102.777 -38.847  0.00  0.00     0.100 A 
ATOM      6  O   UNL d   1     -57.013-102.872 -39.701  0.00  0.00    -0.217 OA
ATOM      7  O   UNL d   1     -55.638-102.852 -40.061  0.00  0.00    -0.217 OA
ATOM      8  C   UNL d   1     -56.279-102.692 -38.166  0.00  0.00     0.032 A 
ENDBRANCH   1   2
BRANCH   1   9
ATOM      9  C   UNL d   1     -54.980-102.349 -37.100  0.00  0.00     0.082 A 
ATOM     10  C   UNL d   1     -54.765-101.583 -36.879  0.00  0.00     0.030 A 
ATOM     11  C   UNL d   1     -54.893-101.327 -36.116  0.00  0.00     0.059 A 
ATOM     12 CL   UNL d   1     -54.713-100.591 -35.809  0.00  0.00    -0.082 Cl
ATOM     13  C   UNL d   1     -55.238-101.833 -35.562  0.00  0.00     0.011 A 
ATOM     14  C   UNL d   1     -55.453-102.598 -35.783  0.00  0.00     0.002 A 
ATOM     15  C   UNL d   1     -55.323-102.857 -36.559  0.00  0.00     0.019 A 
ENDBRANCH   1   9
TORSDOF 2
ENDMDL
