MODEL 1
REMARK VINA RESULT:      32.0      0.000      0.000
REMARK  6 active torsions:
REMARK  status: ('A' for Active; 'I' for Inactive)
REMARK    1  A    between atoms: C_11  and  N_2 
REMARK    2  A    between atoms: O_15  and  C_9 
REMARK    3  A    between atoms: C_10  and  O_14 
REMARK    4  A    between atoms: C_16  and  C_11 
REMARK    5  A    between atoms: O_14  and  C_17 
REMARK    6  A    between atoms: C_17  and  C_16 
ROOT
ATOM      1  C   UNL d   1     -55.152 -99.418 -44.950  0.00  0.00     0.087 C 
ENDROOT
BRANCH   1   2
ATOM      2  N   UNL d   1     -55.018 -99.894 -44.286  0.00  0.00    -0.251 N 
ATOM      3  C   UNL d   1     -54.928 -99.664 -43.495  0.00  0.00     0.378 A 
ATOM      4  O   UNL d   1     -54.805-100.353 -43.044  0.00  0.00    -0.258 OA
ATOM      5  O   UNL d   1     -54.954 -98.892 -43.206  0.00  0.00    -0.237 OA
ATOM      6  C   UNL d   1     -54.820-101.003 -43.555  0.00  0.00     0.121 A 
ATOM      7  C   UNL d   1     -54.732-101.822 -43.431  0.00  0.00     0.026 A 
ATOM      8  C   UNL d   1     -54.952-100.720 -44.323  0.00  0.00     0.092 A 
ATOM      9  C   UNL d   1     -54.775-102.346 -44.065  0.00  0.00     0.002 A 
ATOM     10  C   UNL d   1     -54.907-102.059 -44.831  0.00  0.00     0.002 A 
ATOM     11  C   UNL d   1     -54.995-101.250 -44.959  0.00  0.00     0.020 A 
ATOM     12  C   UNL d   1     -54.951-102.582 -45.465  0.00  0.00     0.000 C 
ENDBRANCH   1   2
BRANCH   1  13
ATOM     13  C   UNL d   1     -55.696 -98.804 -44.920  0.00  0.00     0.046 C 
BRANCH  13  14
ATOM     14  C   UNL d   1     -56.487 -98.932 -45.125  0.00  0.00     0.124 C 
BRANCH  14  15
ATOM     15  O   UNL d   1     -57.082 -98.788 -44.584  0.00  0.00    -0.303 OA
BRANCH  15  16
ATOM     16  C   UNL d   1     -57.847 -98.788 -44.883  0.00  0.00     0.122 A 
ATOM     17  C   UNL d   1     -58.494 -98.822 -44.364  0.00  0.00     0.117 A 
ATOM     18  C   UNL d   1     -59.263 -98.822 -44.666  0.00  0.00     0.026 A 
ATOM     19  C   UNL d   1     -59.378 -98.789 -45.482  0.00  0.00     0.002 A 
ATOM     20  C   UNL d   1     -58.732 -98.756 -45.992  0.00  0.00     0.002 A 
ATOM     21  C   UNL d   1     -57.967 -98.756 -45.693  0.00  0.00     0.027 A 
BRANCH  17  22
ATOM     22  O   UNL d   1     -58.368 -98.854 -43.551  0.00  0.00    -0.326 OA
ATOM     23  C   UNL d   1     -58.891 -99.192 -43.018  0.00  0.00     0.181 C 
ENDBRANCH  17  22
ENDBRANCH  15  16
ENDBRANCH  14  15
ENDBRANCH  13  14
ENDBRANCH   1  13
TORSDOF 6
ENDMDL
