MODEL 1
REMARK VINA RESULT:      21.7      0.000      0.000
REMARK  4 active torsions:
REMARK  status: ('A' for Active; 'I' for Inactive)
REMARK    1  A    between atoms: N_2  and  S_1 
REMARK    2  A    between atoms: C_3  and  S_1 
REMARK    3  A    between atoms: C_17  and  N_4 
REMARK    4  A    between atoms: C_16  and  C_17 
ROOT
ATOM      1  N   UNL d   1      45.022 -15.308  44.407  0.00  0.00    -0.226 N 
ATOM      2  N   UNL d   1      46.104 -16.419  43.869  0.00  0.00    -0.300 N 
ATOM      3  C   UNL d   1      45.442 -15.769  44.954  0.00  0.00     0.111 A 
ATOM      4  C   UNL d   1      45.144 -15.404  43.596  0.00  0.00     0.111 A 
ATOM      5  C   UNL d   1      45.689 -15.964  43.332  0.00  0.00     0.100 A 
ATOM      6  C   UNL d   1      45.990 -16.331  44.675  0.00  0.00     0.100 A 
ENDROOT
BRANCH   1   7
ATOM      7  S   UNL d   1      44.482 -14.754  44.682  0.00  0.00     0.272 S 
ATOM      8  O   UNL d   1      43.945 -14.203  44.955  0.00  0.00    -0.200 OA
ATOM      9  O   UNL d   1      43.979 -15.356  44.909  0.00  0.00    -0.200 OA
BRANCH   7  10
ATOM     10  C   UNL d   1      44.989 -14.145  44.452  0.00  0.00     0.106 A 
ATOM     11  C   UNL d   1      44.879 -13.773  43.714  0.00  0.00     0.043 A 
ATOM     12  C   UNL d   1      45.392 -13.159  43.482  0.00  0.00     0.141 A 
ATOM     13  F   UNL d   1      45.289 -12.787  42.754  0.00  0.00    -0.204 F 
ATOM     14  C   UNL d   1      46.010 -12.922  43.991  0.00  0.00     0.030 A 
ATOM     15  C   UNL d   1      46.108 -13.293  44.712  0.00  0.00     0.003 A 
ATOM     16  C   UNL d   1      45.596 -13.907  44.943  0.00  0.00     0.013 A 
ENDBRANCH   7  10
ENDBRANCH   1   7
BRANCH   2  17
ATOM     17  C   UNL d   1      46.647 -16.976  43.593  0.00  0.00     0.080 C 
BRANCH  17  18
ATOM     18  C   UNL d   1      46.418 -17.760  43.494  0.00  0.00     0.020 A 
ATOM     19  C   UNL d   1      46.370 -18.249  44.148  0.00  0.00     0.028 A 
ATOM     20  C   UNL d   1      46.141 -19.038  44.060  0.00  0.00     0.119 A 
ATOM     21  O   UNL d   1      46.043 -19.656  44.605  0.00  0.00    -0.300 OA
ATOM     22  C   UNL d   1      45.964 -19.325  43.307  0.00  0.00     0.119 A 
ATOM     23  C   UNL d   1      45.803 -20.328  44.183  0.00  0.00     0.304 A 
ATOM     24  O   UNL d   1      45.753 -20.123  43.377  0.00  0.00    -0.300 OA
ATOM     25  C   UNL d   1      46.013 -18.830  42.646  0.00  0.00     0.026 A 
ATOM     26  C   UNL d   1      46.240 -18.047  42.741  0.00  0.00     0.004 A 
ENDBRANCH  17  18
ENDBRANCH   2  17
TORSDOF 4
ENDMDL
