MODEL 1
REMARK VINA RESULT:      -4.5      0.000      0.000
REMARK  6 active torsions:
REMARK  status: ('A' for Active; 'I' for Inactive)
REMARK    1  A    between atoms: C_6  and  N_1 
REMARK    2  A    between atoms: C_13  and  C_6 
REMARK    3  A    between atoms: C_8  and  C_9 
REMARK    4  A    between atoms: C_16  and  C_13 
REMARK    5  A    between atoms: O_14  and  C_16 
REMARK    6  A    between atoms: C_15  and  O_14 
ROOT
ATOM      1  C   UNL d   1      56.271  -0.035  32.174  0.00  0.00     0.237 C 
ATOM      2  O   UNL d   1      56.104  -0.834  32.339  0.00  0.00    -0.283 OA
ENDROOT
BRANCH   1   3
ATOM      3  C   UNL d   1      55.824   0.563  32.537  0.00  0.00     0.117 C 
BRANCH   3   4
ATOM      4  N   UNL d   1      55.758   0.593  33.362  0.00  0.00    -0.344 N 
ATOM      5  C   UNL d   1      55.006   0.590  33.720  0.00  0.00     0.086 A 
ATOM      6  C   UNL d   1      54.940   0.619  34.539  0.00  0.00     0.035 A 
ATOM      7  C   UNL d   1      54.259   0.587  34.070  0.00  0.00     0.027 C 
ATOM      8  C   UNL d   1      55.071   0.560  32.896  0.00  0.00     0.027 C 
ATOM      9  C   UNL d   1      55.621   0.652  35.012  0.00  0.00     0.191 A 
ATOM     10  C   UNL d   1      56.373   0.655  34.655  0.00  0.00     0.035 A 
ATOM     11  O   UNL d   1      55.555   0.682  35.833  0.00  0.00    -0.287 OA
ATOM     12  C   UNL d   1      56.437   0.626  33.827  0.00  0.00     0.086 A 
ATOM     13  C   UNL d   1      56.503   0.596  33.007  0.00  0.00     0.027 C 
ATOM     14  C   UNL d   1      57.115   0.658  34.293  0.00  0.00     0.027 C 
ENDBRANCH   3   4
ENDBRANCH   1   3
BRANCH   1  15
ATOM     15  C   UNL d   1      56.872   0.168  31.657  0.00  0.00     0.166 C 
BRANCH  15  16
ATOM     16  O   UNL d   1      56.869  -0.121  30.879  0.00  0.00    -0.302 OA
BRANCH  16  17
ATOM     17  C   UNL d   1      57.577  -0.140  30.432  0.00  0.00     0.100 A 
ATOM     18  C   UNL d   1      57.927  -0.859  30.232  0.00  0.00     0.025 A 
ATOM     19  C   UNL d   1      58.622  -0.871  29.793  0.00  0.00     0.005 A 
ATOM     20  C   UNL d   1      58.973  -0.165  29.550  0.00  0.00     0.039 A 
ATOM     21  C   UNL d   1      58.621   0.558  29.751  0.00  0.00     0.005 A 
ATOM     22  C   UNL d   1      57.922   0.568  30.193  0.00  0.00     0.025 A 
BRANCH  20  23
ATOM     23  C   UNL d   1      59.670  -0.187  29.111  0.00  0.00     0.196 C 
ATOM     24  O   UNL d   1      60.077   0.508  28.931  0.00  0.00    -0.287 OA
ATOM     25  C   UNL d   1      59.960  -0.916  28.848  0.00  0.00     0.045 C 
ENDBRANCH  20  23
ENDBRANCH  16  17
ENDBRANCH  15  16
ENDBRANCH   1  15
TORSDOF 6
ENDMDL
