MODEL 1
REMARK VINA RESULT:      42.2      0.000      0.000
REMARK  3 active torsions:
REMARK  status: ('A' for Active; 'I' for Inactive)
REMARK    1  A    between atoms: C_4  and  C_1 
REMARK    2  A    between atoms: C_8  and  C_3 
REMARK    3  A    between atoms: O_20  and  C_16 
ROOT
ATOM      1  C   UNL d   1      14.931  13.723  -1.132  0.00  0.00     0.107 A 
ATOM      2  N   UNL d   1      15.367  13.850  -0.443  0.00  0.00    -0.148 NA
ATOM      3  C   UNL d   1      14.689  12.941  -1.134  0.00  0.00     0.039 A 
ATOM      4  N   UNL d   1      15.394  13.138  -0.015  0.00  0.00    -0.148 NA
ATOM      5  C   UNL d   1      14.978  12.563  -0.431  0.00  0.00     0.104 A 
ATOM      6  C   UNL d   1      14.870  11.779  -0.200  0.00  0.00     0.023 C 
ENDROOT
BRANCH   1   7
ATOM      7  C   UNL d   1      14.789  14.309  -1.691  0.00  0.00     0.059 A 
ATOM      8  C   UNL d   1      14.759  15.096  -1.462  0.00  0.00     0.200 A 
ATOM      9  C   UNL d   1      14.618  15.683  -2.019  0.00  0.00     0.084 A 
ATOM     10  O   UNL d   1      14.874  15.311  -0.644  0.00  0.00    -0.286 OA
ATOM     11  C   UNL d   1      14.505  15.466  -2.821  0.00  0.00     0.199 A 
ATOM     12  C   UNL d   1      14.535  14.681  -3.049  0.00  0.00     0.042 A 
ATOM     13  O   UNL d   1      14.357  16.060  -3.415  0.00  0.00    -0.286 OA
ATOM     14  C   UNL d   1      14.679  14.103  -2.470  0.00  0.00     0.008 A 
ENDBRANCH   1   7
BRANCH   3  15
ATOM     15  C   UNL d   1      14.223  12.643  -1.784  0.00  0.00     0.003 A 
ATOM     16  C   UNL d   1      14.583  12.371  -2.471  0.00  0.00     0.002 A 
ATOM     17  C   UNL d   1      14.107  12.081  -3.103  0.00  0.00     0.024 A 
ATOM     18  C   UNL d   1      13.294  12.074  -3.018  0.00  0.00     0.094 A 
ATOM     19  C   UNL d   1      12.913  12.346  -2.326  0.00  0.00     0.024 A 
ATOM     20  C   UNL d   1      13.389  12.637  -1.695  0.00  0.00     0.002 A 
BRANCH  18  21
ATOM     21  O   UNL d   1      12.818  11.783  -3.650  0.00  0.00    -0.328 OA
ATOM     22  C   UNL d   1      12.940  12.090  -4.418  0.00  0.00     0.181 C 
ENDBRANCH  18  21
ENDBRANCH   3  15
TORSDOF 3
ENDMDL
MODEL 2
REMARK VINA RESULT:      42.7      1.798      2.826
REMARK  3 active torsions:
REMARK  status: ('A' for Active; 'I' for Inactive)
REMARK    1  A    between atoms: C_4  and  C_1 
REMARK    2  A    between atoms: C_8  and  C_3 
REMARK    3  A    between atoms: O_20  and  C_16 
ROOT
ATOM      1  C   UNL d   1      13.556  13.772  -3.683  0.00  0.00     0.107 A 
ATOM      2  N   UNL d   1      13.181  13.899  -4.407  0.00  0.00    -0.148 NA
ATOM      3  C   UNL d   1      13.512  12.972  -3.516  0.00  0.00     0.039 A 
ATOM      4  N   UNL d   1      12.903  13.169  -4.690  0.00  0.00    -0.148 NA
ATOM      5  C   UNL d   1      13.101  12.583  -4.148  0.00  0.00     0.104 A 
ATOM      6  C   UNL d   1      12.927  11.779  -4.217  0.00  0.00     0.023 C 
ENDROOT
BRANCH   1   7
ATOM      7  C   UNL d   1      13.899  14.374  -3.241  0.00  0.00     0.059 A 
ATOM      8  C   UNL d   1      14.167  15.054  -3.611  0.00  0.00     0.200 A 
ATOM      9  C   UNL d   1      14.511  15.657  -3.172  0.00  0.00     0.084 A 
ATOM     10  O   UNL d   1      14.091  15.143  -4.457  0.00  0.00    -0.286 OA
ATOM     11  C   UNL d   1      14.583  15.565  -2.341  0.00  0.00     0.199 A 
ATOM     12  C   UNL d   1      14.316  14.887  -1.971  0.00  0.00     0.042 A 
ATOM     13  O   UNL d   1      14.936  16.180  -1.866  0.00  0.00    -0.286 OA
ATOM     14  C   UNL d   1      13.971  14.289  -2.435  0.00  0.00     0.008 A 
ENDBRANCH   1   7
BRANCH   3  15
ATOM     15  C   UNL d   1      13.855  12.669  -2.796  0.00  0.00     0.003 A 
ATOM     16  C   UNL d   1      14.671  12.618  -2.706  0.00  0.00     0.002 A 
ATOM     17  C   UNL d   1      14.993  12.317  -1.989  0.00  0.00     0.024 A 
ATOM     18  C   UNL d   1      14.484  12.081  -1.393  0.00  0.00     0.094 A 
ATOM     19  C   UNL d   1      13.654  12.126  -1.469  0.00  0.00     0.024 A 
ATOM     20  C   UNL d   1      13.332  12.427  -2.187  0.00  0.00     0.002 A 
BRANCH  18  21
ATOM     21  O   UNL d   1      14.806  11.779  -0.674  0.00  0.00    -0.328 OA
ATOM     22  C   UNL d   1      14.890  12.298  -0.024  0.00  0.00     0.181 C 
ENDBRANCH  18  21
ENDBRANCH   3  15
TORSDOF 3
ENDMDL
MODEL 3
REMARK VINA RESULT:      42.9      0.925      2.978
REMARK  3 active torsions:
REMARK  status: ('A' for Active; 'I' for Inactive)
REMARK    1  A    between atoms: C_4  and  C_1 
REMARK    2  A    between atoms: C_8  and  C_3 
REMARK    3  A    between atoms: O_20  and  C_16 
ROOT
ATOM      1  C   UNL d   1      14.357  12.367  -1.622  0.00  0.00     0.107 A 
ATOM      2  N   UNL d   1      14.505  11.779  -1.062  0.00  0.00    -0.148 NA
ATOM      3  C   UNL d   1      14.616  13.079  -1.311  0.00  0.00     0.039 A 
ATOM      4  N   UNL d   1      14.860  12.132  -0.399  0.00  0.00    -0.148 NA
ATOM      5  C   UNL d   1      14.936  12.939  -0.537  0.00  0.00     0.104 A 
ATOM      6  C   UNL d   1      15.261  13.492  -0.019  0.00  0.00     0.023 C 
ENDROOT
BRANCH   1   7
ATOM      7  C   UNL d   1      14.007  12.219  -2.351  0.00  0.00     0.059 A 
ATOM      8  C   UNL d   1      13.242  11.929  -2.388  0.00  0.00     0.200 A 
ATOM      9  C   UNL d   1      12.891  11.780  -3.116  0.00  0.00     0.084 A 
ATOM     10  O   UNL d   1      12.802  11.780  -1.671  0.00  0.00    -0.286 OA
ATOM     11  C   UNL d   1      13.327  11.928  -3.817  0.00  0.00     0.199 A 
ATOM     12  C   UNL d   1      14.091  12.217  -3.779  0.00  0.00     0.042 A 
ATOM     13  O   UNL d   1      12.981  11.780  -4.582  0.00  0.00    -0.286 OA
ATOM     14  C   UNL d   1      14.427  12.361  -3.033  0.00  0.00     0.008 A 
ENDBRANCH   1   7
BRANCH   3  15
ATOM     15  C   UNL d   1      14.536  13.796  -1.767  0.00  0.00     0.003 A 
ATOM     16  C   UNL d   1      14.803  14.515  -1.473  0.00  0.00     0.002 A 
ATOM     17  C   UNL d   1      14.716  15.212  -1.937  0.00  0.00     0.024 A 
ATOM     18  C   UNL d   1      14.365  15.159  -2.674  0.00  0.00     0.094 A 
ATOM     19  C   UNL d   1      14.088  14.435  -2.987  0.00  0.00     0.024 A 
ATOM     20  C   UNL d   1      14.176  13.738  -2.523  0.00  0.00     0.002 A 
BRANCH  18  21
ATOM     21  O   UNL d   1      14.277  15.857  -3.138  0.00  0.00    -0.328 OA
ATOM     22  C   UNL d   1      14.962  16.293  -3.339  0.00  0.00     0.181 C 
ENDBRANCH  18  21
ENDBRANCH   3  15
TORSDOF 3
ENDMDL
