MODEL 1
REMARK VINA RESULT:      -2.5      0.000      0.000
REMARK  1 active torsions:
REMARK  status: ('A' for Active; 'I' for Inactive)
REMARK    1  A    between atoms: C_9  and  C_1 
ROOT
ATOM      1  C   UNL d   1      55.732   0.201  33.379  0.00  0.00     0.087 A 
ATOM      2  N   UNL d   1      54.889   0.190  33.305  0.00  0.00    -0.191 NA
ATOM      3  C   UNL d   1      56.080   0.363  34.100  0.00  0.00     0.036 A 
ATOM      4  C   UNL d   1      54.424   0.354  34.014  0.00  0.00     0.369 A 
ATOM      5  N   UNL d   1      54.839   0.515  34.739  0.00  0.00    -0.191 NA
ATOM      6  C   UNL d   1      55.638   0.518  34.773  0.00  0.00     0.088 A 
ATOM      7  C   UNL d   1      56.924   0.363  34.125  0.00  0.00     0.014 A 
ATOM      8  O   UNL d   1      53.553   0.363  34.029  0.00  0.00    -0.242 OA
ATOM      9  C   UNL d   1      56.032   0.677  35.485  0.00  0.00     0.020 A 
ATOM     10  C   UNL d   1      57.314   0.518  34.822  0.00  0.00     0.058 A 
ATOM     11  C   UNL d   1      56.849   0.682  35.530  0.00  0.00     0.013 A 
ATOM     12 CL   UNL d   1      58.169   0.514  34.829  0.00  0.00    -0.082 Cl
ENDROOT
BRANCH   1  13
ATOM     13  C   UNL d   1      56.156   0.052  32.732  0.00  0.00     0.018 A 
ATOM     14  C   UNL d   1      56.305  -0.725  32.519  0.00  0.00     0.002 A 
ATOM     15  C   UNL d   1      56.744  -0.922  31.852  0.00  0.00     0.000 A 
ATOM     16  C   UNL d   1      57.067  -0.268  31.346  0.00  0.00     0.000 A 
ATOM     17  C   UNL d   1      56.905   0.507  31.577  0.00  0.00     0.000 A 
ATOM     18  C   UNL d   1      56.457   0.665  32.259  0.00  0.00     0.002 A 
ENDBRANCH   1  13
TORSDOF 1
ENDMDL
MODEL 2
REMARK VINA RESULT:      -2.5      4.460      6.052
REMARK  1 active torsions:
REMARK  status: ('A' for Active; 'I' for Inactive)
REMARK    1  A    between atoms: C_9  and  C_1 
ROOT
ATOM      1  C   UNL d   1      58.756  -1.313  29.355  0.00  0.00     0.087 A 
ATOM      2  N   UNL d   1      58.307  -2.027  29.285  0.00  0.00    -0.191 NA
ATOM      3  C   UNL d   1      59.540  -1.296  29.127  0.00  0.00     0.036 A 
ATOM      4  C   UNL d   1      58.708  -2.722  28.967  0.00  0.00     0.369 A 
ATOM      5  N   UNL d   1      59.526  -2.648  28.745  0.00  0.00    -0.191 NA
ATOM      6  C   UNL d   1      59.921  -1.957  28.825  0.00  0.00     0.088 A 
ATOM      7  C   UNL d   1      59.948  -0.562  29.216  0.00  0.00     0.014 A 
ATOM      8  O   UNL d   1      58.322  -3.495  28.860  0.00  0.00    -0.242 OA
ATOM      9  C   UNL d   1      60.718  -1.896  28.605  0.00  0.00     0.020 A 
ATOM     10  C   UNL d   1      60.730  -0.499  29.001  0.00  0.00     0.058 A 
ATOM     11  C   UNL d   1      61.131  -1.194  28.683  0.00  0.00     0.013 A 
ATOM     12 CL   UNL d   1      61.128   0.252  29.098  0.00  0.00    -0.082 Cl
ENDROOT
BRANCH   1  13
ATOM     13  C   UNL d   1      58.390  -0.679  29.646  0.00  0.00     0.018 A 
ATOM     14  C   UNL d   1      58.251  -0.629  30.452  0.00  0.00     0.002 A 
ATOM     15  C   UNL d   1      57.872   0.016  30.793  0.00  0.00     0.000 A 
ATOM     16  C   UNL d   1      57.605   0.681  30.268  0.00  0.00     0.000 A 
ATOM     17  C   UNL d   1      57.755   0.611  29.459  0.00  0.00     0.000 A 
ATOM     18  C   UNL d   1      58.141  -0.058  29.153  0.00  0.00     0.002 A 
ENDBRANCH   1  13
TORSDOF 1
ENDMDL
MODEL 3
REMARK VINA RESULT:      -2.5      4.050      5.367
REMARK  1 active torsions:
REMARK  status: ('A' for Active; 'I' for Inactive)
REMARK    1  A    between atoms: C_9  and  C_1 
ROOT
ATOM      1  C   UNL d   1      58.520  -1.625  29.822  0.00  0.00     0.087 A 
ATOM      2  N   UNL d   1      57.874  -1.783  30.346  0.00  0.00    -0.191 NA
ATOM      3  C   UNL d   1      58.762  -0.856  29.688  0.00  0.00     0.036 A 
ATOM      4  C   UNL d   1      57.491  -1.108  30.724  0.00  0.00     0.369 A 
ATOM      5  N   UNL d   1      57.785  -0.329  30.548  0.00  0.00    -0.191 NA
ATOM      6  C   UNL d   1      58.399  -0.215  30.047  0.00  0.00     0.088 A 
ATOM      7  C   UNL d   1      59.411  -0.748  29.158  0.00  0.00     0.014 A 
ATOM      8  O   UNL d   1      56.822  -1.179  31.275  0.00  0.00    -0.242 OA
ATOM      9  C   UNL d   1      58.676   0.548  29.884  0.00  0.00     0.020 A 
ATOM     10  C   UNL d   1      59.686   0.001  28.995  0.00  0.00     0.058 A 
ATOM     11  C   UNL d   1      59.303   0.676  29.373  0.00  0.00     0.013 A 
ATOM     12 CL   UNL d   1      60.343   0.093  28.455  0.00  0.00    -0.082 Cl
ENDROOT
BRANCH   1  13
ATOM     13  C   UNL d   1      58.869  -2.241  29.477  0.00  0.00     0.018 A 
ATOM     14  C   UNL d   1      58.502  -2.607  28.842  0.00  0.00     0.002 A 
ATOM     15  C   UNL d   1      58.834  -3.252  28.455  0.00  0.00     0.000 A 
ATOM     16  C   UNL d   1      59.617  -3.562  28.737  0.00  0.00     0.000 A 
ATOM     17  C   UNL d   1      59.970  -3.179  29.377  0.00  0.00     0.000 A 
ATOM     18  C   UNL d   1      59.601  -2.529  29.741  0.00  0.00     0.002 A 
ENDBRANCH   1  13
TORSDOF 1
ENDMDL
MODEL 4
REMARK VINA RESULT:      -1.9      4.288      5.687
REMARK  1 active torsions:
REMARK  status: ('A' for Active; 'I' for Inactive)
REMARK    1  A    between atoms: C_9  and  C_1 
ROOT
ATOM      1  C   UNL d   1      59.059  -0.483  29.721  0.00  0.00     0.087 A 
ATOM      2  N   UNL d   1      58.497  -0.035  30.169  0.00  0.00    -0.191 NA
ATOM      3  C   UNL d   1      58.918  -1.270  29.552  0.00  0.00     0.036 A 
ATOM      4  C   UNL d   1      57.782  -0.440  30.431  0.00  0.00     0.369 A 
ATOM      5  N   UNL d   1      57.686  -1.261  30.226  0.00  0.00    -0.191 NA
ATOM      6  C   UNL d   1      58.238  -1.655  29.801  0.00  0.00     0.088 A 
ATOM      7  C   UNL d   1      59.507  -1.675  29.103  0.00  0.00     0.014 A 
ATOM      8  O   UNL d   1      57.152  -0.058  30.895  0.00  0.00    -0.242 OA
ATOM      9  C   UNL d   1      58.134  -2.453  29.607  0.00  0.00     0.020 A 
ATOM     10  C   UNL d   1      59.408  -2.459  28.910  0.00  0.00     0.058 A 
ATOM     11  C   UNL d   1      58.693  -2.864  29.173  0.00  0.00     0.013 A 
ATOM     12 CL   UNL d   1      60.015  -2.855  28.455  0.00  0.00    -0.082 Cl
ENDROOT
BRANCH   1  13
ATOM     13  C   UNL d   1      59.712  -0.113  29.481  0.00  0.00     0.018 A 
ATOM     14  C   UNL d   1      59.710   0.280  28.762  0.00  0.00     0.002 A 
ATOM     15  C   UNL d   1      60.371   0.678  28.477  0.00  0.00     0.000 A 
ATOM     16  C   UNL d   1      61.112   0.680  28.967  0.00  0.00     0.000 A 
ATOM     17  C   UNL d   1      61.093   0.279  29.688  0.00  0.00     0.000 A 
ATOM     18  C   UNL d   1      60.404  -0.111  29.941  0.00  0.00     0.002 A 
ENDBRANCH   1  13
TORSDOF 1
ENDMDL
MODEL 5
REMARK VINA RESULT:      -1.9      4.514      6.124
REMARK  1 active torsions:
REMARK  status: ('A' for Active; 'I' for Inactive)
REMARK    1  A    between atoms: C_9  and  C_1 
ROOT
ATOM      1  C   UNL d   1      59.245  -0.131  29.456  0.00  0.00     0.087 A 
ATOM      2  N   UNL d   1      59.837   0.433  29.239  0.00  0.00    -0.191 NA
ATOM      3  C   UNL d   1      59.293  -0.902  29.188  0.00  0.00     0.036 A 
ATOM      4  C   UNL d   1      60.480   0.163  28.731  0.00  0.00     0.369 A 
ATOM      5  N   UNL d   1      60.480  -0.650  28.481  0.00  0.00    -0.191 NA
ATOM      6  C   UNL d   1      59.904  -1.159  28.705  0.00  0.00     0.088 A 
ATOM      7  C   UNL d   1      58.680  -1.429  29.431  0.00  0.00     0.014 A 
ATOM      8  O   UNL d   1      61.129   0.676  28.459  0.00  0.00    -0.242 OA
ATOM      9  C   UNL d   1      59.914  -1.948  28.455  0.00  0.00     0.020 A 
ATOM     10  C   UNL d   1      58.687  -2.205  29.187  0.00  0.00     0.058 A 
ATOM     11  C   UNL d   1      59.330  -2.476  28.679  0.00  0.00     0.013 A 
ATOM     12 CL   UNL d   1      58.058  -2.726  29.443  0.00  0.00    -0.082 Cl
ENDROOT
BRANCH   1  13
ATOM     13  C   UNL d   1      58.658   0.115  29.920  0.00  0.00     0.018 A 
ATOM     14  C   UNL d   1      57.971   0.404  29.580  0.00  0.00     0.002 A 
ATOM     15  C   UNL d   1      57.336   0.671  30.029  0.00  0.00     0.000 A 
ATOM     16  C   UNL d   1      57.399   0.644  30.915  0.00  0.00     0.000 A 
ATOM     17  C   UNL d   1      58.100   0.350  31.237  0.00  0.00     0.000 A 
ATOM     18  C   UNL d   1      58.719   0.090  30.748  0.00  0.00     0.002 A 
ENDBRANCH   1  13
TORSDOF 1
ENDMDL
MODEL 6
REMARK VINA RESULT:      -1.7      4.106      5.455
REMARK  1 active torsions:
REMARK  status: ('A' for Active; 'I' for Inactive)
REMARK    1  A    between atoms: C_9  and  C_1 
ROOT
ATOM      1  C   UNL d   1      59.229  -1.083  29.349  0.00  0.00     0.087 A 
ATOM      2  N   UNL d   1      59.292  -1.815  28.928  0.00  0.00    -0.191 NA
ATOM      3  C   UNL d   1      58.636  -0.976  29.901  0.00  0.00     0.036 A 
ATOM      4  C   UNL d   1      58.713  -2.430  29.106  0.00  0.00     0.369 A 
ATOM      5  N   UNL d   1      58.118  -2.264  29.690  0.00  0.00    -0.191 NA
ATOM      6  C   UNL d   1      58.086  -1.561  30.070  0.00  0.00     0.088 A 
ATOM      7  C   UNL d   1      58.613  -0.230  30.296  0.00  0.00     0.014 A 
ATOM      8  O   UNL d   1      58.704  -3.210  28.721  0.00  0.00    -0.242 OA
ATOM      9  C   UNL d   1      57.502  -1.411  30.638  0.00  0.00     0.020 A 
ATOM     10  C   UNL d   1      58.040  -0.079  30.854  0.00  0.00     0.058 A 
ATOM     11  C   UNL d   1      57.461  -0.695  31.032  0.00  0.00     0.013 A 
ATOM     12 CL   UNL d   1      58.031   0.682  31.244  0.00  0.00    -0.082 Cl
ENDROOT
BRANCH   1  13
ATOM     13  C   UNL d   1      59.757  -0.522  29.186  0.00  0.00     0.018 A 
ATOM     14  C   UNL d   1      60.477  -0.522  29.577  0.00  0.00     0.002 A 
ATOM     15  C   UNL d   1      61.054   0.046  29.436  0.00  0.00     0.000 A 
ATOM     16  C   UNL d   1      60.890   0.682  28.838  0.00  0.00     0.000 A 
ATOM     17  C   UNL d   1      60.159   0.664  28.455  0.00  0.00     0.000 A 
ATOM     18  C   UNL d   1      59.601   0.072  28.627  0.00  0.00     0.002 A 
ENDBRANCH   1  13
TORSDOF 1
ENDMDL
MODEL 7
REMARK VINA RESULT:      -1.4      2.128      3.211
REMARK  1 active torsions:
REMARK  status: ('A' for Active; 'I' for Inactive)
REMARK    1  A    between atoms: C_9  and  C_1 
ROOT
ATOM      1  C   UNL d   1      56.945   0.275  33.422  0.00  0.00     0.087 A 
ATOM      2  N   UNL d   1      57.300   0.362  34.186  0.00  0.00    -0.191 NA
ATOM      3  C   UNL d   1      57.392   0.385  32.746  0.00  0.00     0.036 A 
ATOM      4  C   UNL d   1      58.137   0.567  34.217  0.00  0.00     0.369 A 
ATOM      5  N   UNL d   1      58.554   0.668  33.482  0.00  0.00    -0.191 NA
ATOM      6  C   UNL d   1      58.188   0.579  32.776  0.00  0.00     0.088 A 
ATOM      7  C   UNL d   1      56.995   0.288  32.007  0.00  0.00     0.014 A 
ATOM      8  O   UNL d   1      58.581   0.675  34.958  0.00  0.00    -0.242 OA
ATOM      9  C   UNL d   1      58.603   0.681  32.067  0.00  0.00     0.020 A 
ATOM     10  C   UNL d   1      57.400   0.387  31.309  0.00  0.00     0.058 A 
ATOM     11  C   UNL d   1      58.238   0.592  31.340  0.00  0.00     0.013 A 
ATOM     12 CL   UNL d   1      56.983   0.285  30.569  0.00  0.00    -0.082 Cl
ENDROOT
BRANCH   1  13
ATOM     13  C   UNL d   1      56.180   0.088  33.394  0.00  0.00     0.018 A 
ATOM     14  C   UNL d   1      55.619   0.678  33.485  0.00  0.00     0.002 A 
ATOM     15  C   UNL d   1      54.812   0.524  33.462  0.00  0.00     0.000 A 
ATOM     16  C   UNL d   1      54.541  -0.312  33.333  0.00  0.00     0.000 A 
ATOM     17  C   UNL d   1      55.122  -0.891  33.243  0.00  0.00     0.000 A 
ATOM     18  C   UNL d   1      55.929  -0.694  33.273  0.00  0.00     0.002 A 
ENDBRANCH   1  13
TORSDOF 1
ENDMDL
MODEL 8
REMARK VINA RESULT:      -1.0      3.524      5.019
REMARK  1 active torsions:
REMARK  status: ('A' for Active; 'I' for Inactive)
REMARK    1  A    between atoms: C_9  and  C_1 
ROOT
ATOM      1  C   UNL d   1      58.727   0.267  31.111  0.00  0.00     0.087 A 
ATOM      2  N   UNL d   1      59.350   0.330  31.681  0.00  0.00    -0.191 NA
ATOM      3  C   UNL d   1      58.882   0.385  30.318  0.00  0.00     0.036 A 
ATOM      4  C   UNL d   1      60.139   0.523  31.391  0.00  0.00     0.369 A 
ATOM      5  N   UNL d   1      60.243   0.636  30.554  0.00  0.00    -0.191 NA
ATOM      6  C   UNL d   1      59.632   0.568  30.042  0.00  0.00     0.088 A 
ATOM      7  C   UNL d   1      58.229   0.311  29.787  0.00  0.00     0.014 A 
ATOM      8  O   UNL d   1      60.836   0.608  31.905  0.00  0.00    -0.242 OA
ATOM      9  C   UNL d   1      59.745   0.681  29.229  0.00  0.00     0.020 A 
ATOM     10  C   UNL d   1      58.337   0.421  28.988  0.00  0.00     0.058 A 
ATOM     11  C   UNL d   1      59.127   0.613  28.697  0.00  0.00     0.013 A 
ATOM     12 CL   UNL d   1      57.665   0.342  28.464  0.00  0.00    -0.082 Cl
ENDROOT
BRANCH   1  13
ATOM     13  C   UNL d   1      58.006   0.091  31.377  0.00  0.00     0.018 A 
ATOM     14  C   UNL d   1      57.753  -0.688  31.365  0.00  0.00     0.002 A 
ATOM     15  C   UNL d   1      57.008  -0.911  31.633  0.00  0.00     0.000 A 
ATOM     16  C   UNL d   1      56.461  -0.285  31.945  0.00  0.00     0.000 A 
ATOM     17  C   UNL d   1      56.736   0.493  31.948  0.00  0.00     0.000 A 
ATOM     18  C   UNL d   1      57.496   0.678  31.668  0.00  0.00     0.002 A 
ENDBRANCH   1  13
TORSDOF 1
ENDMDL
