MODEL 1
REMARK VINA RESULT:      -9.0      0.000      0.000
REMARK  4 active torsions:
REMARK  status: ('A' for Active; 'I' for Inactive)
REMARK       I    between atoms: C_5  and  N_1 
REMARK    1  A    between atoms: N_3  and  C_8 
REMARK    2  A    between atoms: C_7  and  C_5 
REMARK    3  A    between atoms: C_11  and  C_7 
REMARK    4  A    between atoms: C_15  and  C_11 
ROOT
ATOM      1  N   UNL d   1      52.969  33.432  53.692  0.00  0.00    -0.256 N 
ATOM      2  C   UNL d   1      52.308  33.468  53.189  0.00  0.00     0.185 A 
ATOM      3  N   UNL d   1      52.034  34.229  53.237  0.00  0.00    -0.224 NA
ATOM      4  C   UNL d   1      53.449  32.759  53.836  0.00  0.00     0.266 C 
ATOM      5  C   UNL d   1      53.069  34.172  54.025  0.00  0.00     0.086 A 
ATOM      6  C   UNL d   1      52.492  34.670  53.746  0.00  0.00     0.099 A 
ATOM      7  O   UNL d   1      54.102  32.797  54.359  0.00  0.00    -0.267 OA
ATOM      8  C   UNL d   1      53.636  34.451  54.564  0.00  0.00     0.019 A 
ATOM      9  C   UNL d   1      52.462  35.448  53.990  0.00  0.00     0.021 A 
ATOM     10  C   UNL d   1      53.620  35.244  54.823  0.00  0.00     0.002 A 
ATOM     11  C   UNL d   1      53.012  35.767  54.528  0.00  0.00     0.002 A 
ENDROOT
BRANCH   4  12
ATOM     12  C   UNL d   1      53.283  32.049  53.462  0.00  0.00     0.061 C 
BRANCH  12  13
ATOM     13  C   UNL d   1      53.757  31.391  53.613  0.00  0.00     0.005 C 
BRANCH  13  14
ATOM     14  C   UNL d   1      53.432  30.637  53.545  0.00  0.00     0.002 A 
ATOM     15  C   UNL d   1      53.528  30.089  54.173  0.00  0.00     0.024 A 
ATOM     16  C   UNL d   1      53.208  29.344  54.110  0.00  0.00     0.127 A 
ATOM     17  C   UNL d   1      52.789  29.125  53.430  0.00  0.00     0.024 A 
ATOM     18  C   UNL d   1      52.697  29.667  52.814  0.00  0.00     0.002 A 
ATOM     19  C   UNL d   1      53.017  30.428  52.865  0.00  0.00     0.000 A 
BRANCH  16  20
ATOM     20  N   UNL d   1      53.284  28.783  54.707  0.00  0.00    -0.114 N 
ATOM     21  O   UNL d   1      52.906  28.906  55.442  0.00  0.00    -0.532 OA
ATOM     22  O   UNL d   1      53.723  28.108  54.584  0.00  0.00    -0.532 OA
ENDBRANCH  16  20
ENDBRANCH  13  14
ENDBRANCH  12  13
ENDBRANCH   4  12
TORSDOF 4
ENDMDL
MODEL 2
REMARK VINA RESULT:      -8.9      2.926      4.964
REMARK  4 active torsions:
REMARK  status: ('A' for Active; 'I' for Inactive)
REMARK       I    between atoms: C_5  and  N_1 
REMARK    1  A    between atoms: N_3  and  C_8 
REMARK    2  A    between atoms: C_7  and  C_5 
REMARK    3  A    between atoms: C_11  and  C_7 
REMARK    4  A    between atoms: C_15  and  C_11 
ROOT
ATOM      1  N   UNL d   1      52.667  34.115  53.965  0.00  0.00    -0.256 N 
ATOM      2  C   UNL d   1      52.751  34.933  54.087  0.00  0.00     0.185 A 
ATOM      3  N   UNL d   1      53.430  35.024  54.522  0.00  0.00    -0.224 NA
ATOM      4  C   UNL d   1      52.050  33.734  53.544  0.00  0.00     0.266 C 
ATOM      5  C   UNL d   1      53.298  33.743  54.330  0.00  0.00     0.086 A 
ATOM      6  C   UNL d   1      53.773  34.302  54.677  0.00  0.00     0.099 A 
ATOM      7  O   UNL d   1      52.030  32.901  53.461  0.00  0.00    -0.267 OA
ATOM      8  C   UNL d   1      53.493  32.937  54.385  0.00  0.00     0.019 A 
ATOM      9  C   UNL d   1      54.446  34.081  55.082  0.00  0.00     0.021 A 
ATOM     10  C   UNL d   1      54.178  32.694  54.796  0.00  0.00     0.002 A 
ATOM     11  C   UNL d   1      54.677  33.284  55.160  0.00  0.00     0.002 A 
ENDROOT
BRANCH   4  12
ATOM     12  C   UNL d   1      51.450  34.179  53.204  0.00  0.00     0.061 C 
BRANCH  12  13
ATOM     13  C   UNL d   1      50.706  33.841  53.095  0.00  0.00     0.005 C 
BRANCH  13  14
ATOM     14  C   UNL d   1      50.131  34.261  52.680  0.00  0.00     0.002 A 
ATOM     15  C   UNL d   1      49.623  34.783  53.097  0.00  0.00     0.024 A 
ATOM     16  C   UNL d   1      49.054  35.200  52.692  0.00  0.00     0.127 A 
ATOM     17  C   UNL d   1      48.975  35.110  51.871  0.00  0.00     0.024 A 
ATOM     18  C   UNL d   1      49.476  34.595  51.466  0.00  0.00     0.002 A 
ATOM     19  C   UNL d   1      50.059  34.165  51.866  0.00  0.00     0.000 A 
BRANCH  16  20
ATOM     20  N   UNL d   1      48.540  35.720  53.067  0.00  0.00    -0.114 N 
ATOM     21  O   UNL d   1      47.756  35.801  52.789  0.00  0.00    -0.532 OA
ATOM     22  O   UNL d   1      48.791  36.156  53.707  0.00  0.00    -0.532 OA
ENDBRANCH  16  20
ENDBRANCH  13  14
ENDBRANCH  12  13
ENDBRANCH   4  12
TORSDOF 4
ENDMDL
MODEL 3
REMARK VINA RESULT:      -8.5      3.517      4.862
REMARK  4 active torsions:
REMARK  status: ('A' for Active; 'I' for Inactive)
REMARK       I    between atoms: C_5  and  N_1 
REMARK    1  A    between atoms: N_3  and  C_8 
REMARK    2  A    between atoms: C_7  and  C_5 
REMARK    3  A    between atoms: C_11  and  C_7 
REMARK    4  A    between atoms: C_15  and  C_11 
ROOT
ATOM      1  N   UNL d   1      48.977  35.286  52.771  0.00  0.00    -0.256 N 
ATOM      2  C   UNL d   1      49.056  35.617  53.530  0.00  0.00     0.185 A 
ATOM      3  N   UNL d   1      48.384  36.053  53.652  0.00  0.00    -0.224 NA
ATOM      4  C   UNL d   1      49.530  34.787  52.385  0.00  0.00     0.266 C 
ATOM      5  C   UNL d   1      48.261  35.536  52.464  0.00  0.00     0.086 A 
ATOM      6  C   UNL d   1      47.890  36.011  53.007  0.00  0.00     0.099 A 
ATOM      7  O   UNL d   1      49.382  34.490  51.616  0.00  0.00    -0.267 OA
ATOM      8  C   UNL d   1      47.901  35.376  51.733  0.00  0.00     0.019 A 
ATOM      9  C   UNL d   1      47.160  36.338  52.842  0.00  0.00     0.021 A 
ATOM     10  C   UNL d   1      47.155  35.702  51.549  0.00  0.00     0.002 A 
ATOM     11  C   UNL d   1      46.765  36.203  52.121  0.00  0.00     0.002 A 
ENDROOT
BRANCH   4  12
ATOM     12  C   UNL d   1      50.229  34.581  52.760  0.00  0.00     0.061 C 
BRANCH  12  13
ATOM     13  C   UNL d   1      50.814  34.182  52.337  0.00  0.00     0.005 C 
BRANCH  13  14
ATOM     14  C   UNL d   1      51.540  34.035  52.698  0.00  0.00     0.002 A 
ATOM     15  C   UNL d   1      51.816  33.245  52.761  0.00  0.00     0.024 A 
ATOM     16  C   UNL d   1      52.533  33.096  53.115  0.00  0.00     0.127 A 
ATOM     17  C   UNL d   1      52.990  33.720  53.414  0.00  0.00     0.024 A 
ATOM     18  C   UNL d   1      52.714  34.495  53.350  0.00  0.00     0.002 A 
ATOM     19  C   UNL d   1      51.988  34.660  52.991  0.00  0.00     0.000 A 
BRANCH  16  20
ATOM     20  N   UNL d   1      52.833  32.334  53.194  0.00  0.00    -0.114 N 
ATOM     21  O   UNL d   1      52.746  31.788  52.568  0.00  0.00    -0.532 OA
ATOM     22  O   UNL d   1      53.215  32.111  53.878  0.00  0.00    -0.532 OA
ENDBRANCH  16  20
ENDBRANCH  13  14
ENDBRANCH  12  13
ENDBRANCH   4  12
TORSDOF 4
ENDMDL
MODEL 4
REMARK VINA RESULT:      -8.2      2.823      4.488
REMARK  4 active torsions:
REMARK  status: ('A' for Active; 'I' for Inactive)
REMARK       I    between atoms: C_5  and  N_1 
REMARK    1  A    between atoms: N_3  and  C_8 
REMARK    2  A    between atoms: C_7  and  C_5 
REMARK    3  A    between atoms: C_11  and  C_7 
REMARK    4  A    between atoms: C_15  and  C_11 
ROOT
ATOM      1  N   UNL d   1      49.864  34.717  52.476  0.00  0.00    -0.256 N 
ATOM      2  C   UNL d   1      49.587  35.061  53.180  0.00  0.00     0.185 A 
ATOM      3  N   UNL d   1      48.828  35.301  53.026  0.00  0.00    -0.224 NA
ATOM      4  C   UNL d   1      50.622  34.382  52.349  0.00  0.00     0.266 C 
ATOM      5  C   UNL d   1      49.262  34.762  51.923  0.00  0.00     0.086 A 
ATOM      6  C   UNL d   1      48.618  35.124  52.260  0.00  0.00     0.099 A 
ATOM      7  O   UNL d   1      50.833  34.052  51.609  0.00  0.00    -0.267 OA
ATOM      8  C   UNL d   1      49.233  34.508  51.133  0.00  0.00     0.019 A 
ATOM      9  C   UNL d   1      47.935  35.241  51.828  0.00  0.00     0.021 A 
ATOM     10  C   UNL d   1      48.542  34.620  50.678  0.00  0.00     0.002 A 
ATOM     11  C   UNL d   1      47.865  35.000  51.033  0.00  0.00     0.002 A 
ENDROOT
BRANCH   4  12
ATOM     12  C   UNL d   1      51.174  34.375  52.956  0.00  0.00     0.061 C 
BRANCH  12  13
ATOM     13  C   UNL d   1      51.959  34.190  52.788  0.00  0.00     0.005 C 
BRANCH  13  14
ATOM     14  C   UNL d   1      52.517  34.214  53.394  0.00  0.00     0.002 A 
ATOM     15  C   UNL d   1      52.938  33.516  53.593  0.00  0.00     0.024 A 
ATOM     16  C   UNL d   1      53.489  33.536  54.191  0.00  0.00     0.127 A 
ATOM     17  C   UNL d   1      53.634  34.240  54.604  0.00  0.00     0.024 A 
ATOM     18  C   UNL d   1      53.217  34.923  54.405  0.00  0.00     0.002 A 
ATOM     19  C   UNL d   1      52.655  34.918  53.799  0.00  0.00     0.000 A 
BRANCH  16  20
ATOM     20  N   UNL d   1      53.920  32.871  54.413  0.00  0.00    -0.114 N 
ATOM     21  O   UNL d   1      54.512  32.573  53.903  0.00  0.00    -0.532 OA
ATOM     22  O   UNL d   1      53.774  32.503  55.124  0.00  0.00    -0.532 OA
ENDBRANCH  16  20
ENDBRANCH  13  14
ENDBRANCH  12  13
ENDBRANCH   4  12
TORSDOF 4
ENDMDL
MODEL 5
REMARK VINA RESULT:      -8.1      1.496      4.903
REMARK  4 active torsions:
REMARK  status: ('A' for Active; 'I' for Inactive)
REMARK       I    between atoms: C_5  and  N_1 
REMARK    1  A    between atoms: N_3  and  C_8 
REMARK    2  A    between atoms: C_7  and  C_5 
REMARK    3  A    between atoms: C_11  and  C_7 
REMARK    4  A    between atoms: C_15  and  C_11 
ROOT
ATOM      1  N   UNL d   1      53.175  30.993  53.545  0.00  0.00    -0.256 N 
ATOM      2  C   UNL d   1      52.762  30.927  52.827  0.00  0.00     0.185 A 
ATOM      3  N   UNL d   1      52.591  30.139  52.740  0.00  0.00    -0.224 NA
ATOM      4  C   UNL d   1      53.474  31.698  53.885  0.00  0.00     0.266 C 
ATOM      5  C   UNL d   1      53.238  30.243  53.865  0.00  0.00     0.086 A 
ATOM      6  C   UNL d   1      52.878  29.710  53.370  0.00  0.00     0.099 A 
ATOM      7  O   UNL d   1      53.882  31.688  54.617  0.00  0.00    -0.267 OA
ATOM      8  C   UNL d   1      53.593  29.983  54.571  0.00  0.00     0.019 A 
ATOM      9  C   UNL d   1      52.860  28.916  53.557  0.00  0.00     0.021 A 
ATOM     10  C   UNL d   1      53.583  29.174  54.776  0.00  0.00     0.002 A 
ATOM     11  C   UNL d   1      53.204  28.615  54.254  0.00  0.00     0.002 A 
ENDROOT
BRANCH   4  12
ATOM     12  C   UNL d   1      53.370  32.415  53.501  0.00  0.00     0.061 C 
BRANCH  12  13
ATOM     13  C   UNL d   1      53.714  33.096  53.814  0.00  0.00     0.005 C 
BRANCH  13  14
ATOM     14  C   UNL d   1      53.329  33.819  53.722  0.00  0.00     0.002 A 
ATOM     15  C   UNL d   1      53.412  34.408  54.314  0.00  0.00     0.024 A 
ATOM     16  C   UNL d   1      53.034  35.122  54.228  0.00  0.00     0.127 A 
ATOM     17  C   UNL d   1      52.569  35.271  53.558  0.00  0.00     0.024 A 
ATOM     18  C   UNL d   1      52.490  34.690  52.978  0.00  0.00     0.002 A 
ATOM     19  C   UNL d   1      52.869  33.959  53.053  0.00  0.00     0.000 A 
BRANCH  16  20
ATOM     20  N   UNL d   1      53.093  35.721  54.789  0.00  0.00    -0.114 N 
ATOM     21  O   UNL d   1      53.288  36.497  54.547  0.00  0.00    -0.532 OA
ATOM     22  O   UNL d   1      52.962  35.561  55.576  0.00  0.00    -0.532 OA
ENDBRANCH  16  20
ENDBRANCH  13  14
ENDBRANCH  12  13
ENDBRANCH   4  12
TORSDOF 4
ENDMDL
MODEL 6
REMARK VINA RESULT:      -7.7      1.559      4.798
REMARK  4 active torsions:
REMARK  status: ('A' for Active; 'I' for Inactive)
REMARK       I    between atoms: C_5  and  N_1 
REMARK    1  A    between atoms: N_3  and  C_8 
REMARK    2  A    between atoms: C_7  and  C_5 
REMARK    3  A    between atoms: C_11  and  C_7 
REMARK    4  A    between atoms: C_15  and  C_11 
ROOT
ATOM      1  N   UNL d   1      53.229  30.945  53.749  0.00  0.00    -0.256 N 
ATOM      2  C   UNL d   1      52.957  30.890  52.965  0.00  0.00     0.185 A 
ATOM      3  N   UNL d   1      52.860  30.098  52.819  0.00  0.00    -0.224 NA
ATOM      4  C   UNL d   1      53.414  31.649  54.164  0.00  0.00     0.266 C 
ATOM      5  C   UNL d   1      53.286  30.185  54.046  0.00  0.00     0.086 A 
ATOM      6  C   UNL d   1      53.058  29.657  53.473  0.00  0.00     0.099 A 
ATOM      7  O   UNL d   1      53.685  31.627  54.956  0.00  0.00    -0.267 OA
ATOM      8  C   UNL d   1      53.527  29.912  54.793  0.00  0.00     0.019 A 
ATOM      9  C   UNL d   1      53.062  28.854  53.623  0.00  0.00     0.021 A 
ATOM     10  C   UNL d   1      53.537  29.095  54.962  0.00  0.00     0.002 A 
ATOM     11  C   UNL d   1      53.296  28.541  54.359  0.00  0.00     0.002 A 
ENDROOT
BRANCH   4  12
ATOM     12  C   UNL d   1      53.330  32.377  53.795  0.00  0.00     0.061 C 
BRANCH  12  13
ATOM     13  C   UNL d   1      53.263  33.059  54.254  0.00  0.00     0.005 C 
BRANCH  13  14
ATOM     14  C   UNL d   1      52.976  33.749  53.908  0.00  0.00     0.002 A 
ATOM     15  C   UNL d   1      52.277  33.716  53.444  0.00  0.00     0.024 A 
ATOM     16  C   UNL d   1      51.990  34.395  53.100  0.00  0.00     0.127 A 
ATOM     17  C   UNL d   1      52.384  35.117  53.207  0.00  0.00     0.024 A 
ATOM     18  C   UNL d   1      53.070  35.144  53.664  0.00  0.00     0.002 A 
ATOM     19  C   UNL d   1      53.373  34.461  54.019  0.00  0.00     0.000 A 
BRANCH  16  20
ATOM     20  N   UNL d   1      51.309  34.400  52.639  0.00  0.00    -0.114 N 
ATOM     21  O   UNL d   1      50.566  34.529  52.999  0.00  0.00    -0.532 OA
ATOM     22  O   UNL d   1      51.355  34.279  51.835  0.00  0.00    -0.532 OA
ENDBRANCH  16  20
ENDBRANCH  13  14
ENDBRANCH  12  13
ENDBRANCH   4  12
TORSDOF 4
ENDMDL
MODEL 7
REMARK VINA RESULT:      -6.2     10.345     11.015
REMARK  4 active torsions:
REMARK  status: ('A' for Active; 'I' for Inactive)
REMARK       I    between atoms: C_5  and  N_1 
REMARK    1  A    between atoms: N_3  and  C_8 
REMARK    2  A    between atoms: C_7  and  C_5 
REMARK    3  A    between atoms: C_11  and  C_7 
REMARK    4  A    between atoms: C_15  and  C_11 
ROOT
ATOM      1  N   UNL d   1      44.573  30.298  60.944  0.00  0.00    -0.256 N 
ATOM      2  C   UNL d   1      44.413  31.095  61.118  0.00  0.00     0.185 A 
ATOM      3  N   UNL d   1      44.314  31.131  61.922  0.00  0.00    -0.224 NA
ATOM      4  C   UNL d   1      44.717  29.973  60.184  0.00  0.00     0.266 C 
ATOM      5  C   UNL d   1      44.564  29.883  61.648  0.00  0.00     0.086 A 
ATOM      6  C   UNL d   1      44.404  30.395  62.258  0.00  0.00     0.099 A 
ATOM      7  O   UNL d   1      44.872  29.157  60.084  0.00  0.00    -0.267 OA
ATOM      8  C   UNL d   1      44.688  29.076  61.803  0.00  0.00     0.019 A 
ATOM      9  C   UNL d   1      44.363  30.125  63.027  0.00  0.00     0.021 A 
ATOM     10  C   UNL d   1      44.649  28.784  62.584  0.00  0.00     0.002 A 
ATOM     11  C   UNL d   1      44.481  29.324  63.223  0.00  0.00     0.002 A 
ENDROOT
BRANCH   4  12
ATOM     12  C   UNL d   1      44.708  30.458  59.522  0.00  0.00     0.061 C 
BRANCH  12  13
ATOM     13  C   UNL d   1      45.005  30.172  58.807  0.00  0.00     0.005 C 
BRANCH  13  14
ATOM     14  C   UNL d   1      44.867  30.600  58.117  0.00  0.00     0.002 A 
ATOM     15  C   UNL d   1      44.793  30.191  57.387  0.00  0.00     0.024 A 
ATOM     16  C   UNL d   1      44.657  30.609  56.703  0.00  0.00     0.127 A 
ATOM     17  C   UNL d   1      44.591  31.435  56.724  0.00  0.00     0.024 A 
ATOM     18  C   UNL d   1      44.665  31.833  57.443  0.00  0.00     0.002 A 
ATOM     19  C   UNL d   1      44.803  31.420  58.146  0.00  0.00     0.000 A 
BRANCH  16  20
ATOM     20  N   UNL d   1      44.579  30.241  55.972  0.00  0.00    -0.114 N 
ATOM     21  O   UNL d   1      44.325  30.684  55.310  0.00  0.00    -0.532 OA
ATOM     22  O   UNL d   1      44.747  29.449  55.890  0.00  0.00    -0.532 OA
ENDBRANCH  16  20
ENDBRANCH  13  14
ENDBRANCH  12  13
ENDBRANCH   4  12
TORSDOF 4
ENDMDL
MODEL 8
REMARK VINA RESULT:      -6.2     10.179     10.718
REMARK  4 active torsions:
REMARK  status: ('A' for Active; 'I' for Inactive)
REMARK       I    between atoms: C_5  and  N_1 
REMARK    1  A    between atoms: N_3  and  C_8 
REMARK    2  A    between atoms: C_7  and  C_5 
REMARK    3  A    between atoms: C_11  and  C_7 
REMARK    4  A    between atoms: C_15  and  C_11 
ROOT
ATOM      1  N   UNL d   1      44.598  30.184  60.552  0.00  0.00    -0.256 N 
ATOM      2  C   UNL d   1      44.661  30.929  60.188  0.00  0.00     0.185 A 
ATOM      3  N   UNL d   1      44.598  31.474  60.785  0.00  0.00    -0.224 NA
ATOM      4  C   UNL d   1      44.629  29.438  60.169  0.00  0.00     0.266 C 
ATOM      5  C   UNL d   1      44.499  30.307  61.354  0.00  0.00     0.086 A 
ATOM      6  C   UNL d   1      44.498  31.105  61.504  0.00  0.00     0.099 A 
ATOM      7  O   UNL d   1      44.558  28.726  60.603  0.00  0.00    -0.267 OA
ATOM      8  C   UNL d   1      44.407  29.765  61.978  0.00  0.00     0.019 A 
ATOM      9  C   UNL d   1      44.408  31.384  62.266  0.00  0.00     0.021 A 
ATOM     10  C   UNL d   1      44.314  30.034  62.762  0.00  0.00     0.002 A 
ATOM     11  C   UNL d   1      44.314  30.874  62.918  0.00  0.00     0.002 A 
ENDROOT
BRANCH   4  12
ATOM     12  C   UNL d   1      44.731  29.398  59.357  0.00  0.00     0.061 C 
BRANCH  12  13
ATOM     13  C   UNL d   1      45.024  28.705  59.019  0.00  0.00     0.005 C 
BRANCH  13  14
ATOM     14  C   UNL d   1      45.000  28.617  58.200  0.00  0.00     0.002 A 
ATOM     15  C   UNL d   1      45.073  27.850  57.867  0.00  0.00     0.024 A 
ATOM     16  C   UNL d   1      45.050  27.758  57.059  0.00  0.00     0.127 A 
ATOM     17  C   UNL d   1      44.956  28.418  56.565  0.00  0.00     0.024 A 
ATOM     18  C   UNL d   1      44.885  29.170  56.897  0.00  0.00     0.002 A 
ATOM     19  C   UNL d   1      44.907  29.277  57.717  0.00  0.00     0.000 A 
BRANCH  16  20
ATOM     20  N   UNL d   1      45.118  27.022  56.699  0.00  0.00    -0.114 N 
ATOM     21  O   UNL d   1      44.438  26.651  56.385  0.00  0.00    -0.532 OA
ATOM     22  O   UNL d   1      45.842  26.654  56.647  0.00  0.00    -0.532 OA
ENDBRANCH  16  20
ENDBRANCH  13  14
ENDBRANCH  12  13
ENDBRANCH   4  12
TORSDOF 4
ENDMDL
