MODEL 1
REMARK VINA RESULT:      11.9      0.000      0.000
REMARK  10 active torsions:
REMARK  status: ('A' for Active; 'I' for Inactive)
REMARK    1  A    between atoms: C_2  and  C_1 
REMARK       I    between atoms: N_3  and  C_1 
REMARK    2  A    between atoms: C_5  and  C_2 
REMARK    3  A    between atoms: C_6  and  N_3 
REMARK    4  A    between atoms: C_4  and  C_5 
REMARK    5  A    between atoms: O_11  and  C_4 
REMARK    6  A    between atoms: N_10  and  C_5 
REMARK    7  A    between atoms: O_13  and  C_9 
REMARK    8  A    between atoms: C_14  and  N_10 
REMARK    9  A    between atoms: N_12  and  C_16 
REMARK   10  A    between atoms: C_16  and  C_14 
ROOT
ATOM      1  C   UNK d   1      46.029 -16.065  44.013  0.00  0.00     0.084 C 
ENDROOT
BRANCH   1   2
ATOM      2  C   UNK d   1      46.199 -16.846  44.185  0.00  0.00     0.259 C 
ATOM      3  N   UNK d   1      46.138 -17.421  43.598  0.00  0.00    -0.320 N 
ATOM      4  H   UNK d   1      45.904 -17.200  42.831  0.00  0.00     0.169 HD
ATOM      5  O   UNK d   1      46.432 -17.060  44.955  0.00  0.00    -0.267 OA
BRANCH   3   6
ATOM      6  C   UNK d   1      46.306 -18.202  43.765  0.00  0.00     0.082 A 
ATOM      7  C   UNK d   1      46.462 -18.730  43.137  0.00  0.00     0.110 A 
ATOM      8  C   UNK d   1      46.634 -19.528  43.302  0.00  0.00     0.026 A 
ATOM      9  C   UNK d   1      46.645 -19.774  44.093  0.00  0.00     0.002 A 
ATOM     10  C   UNK d   1      46.490 -19.245  44.714  0.00  0.00     0.002 A 
ATOM     11  C   UNK d   1      46.321 -18.462  44.551  0.00  0.00     0.019 A 
BRANCH   7  12
ATOM     12  O   UNK d   1      46.445 -18.462  42.359  0.00  0.00    -0.327 OA
ATOM     13  C   UNK d   1      46.320 -18.997  41.745  0.00  0.00     0.181 C 
ENDBRANCH   7  12
ENDBRANCH   3   6
ENDBRANCH   1   2
BRANCH   1  14
ATOM     14  C   UNK d   1      45.562 -15.626  44.525  0.00  0.00     0.124 C 
BRANCH  14  15
ATOM     15  C   UNK d   1      44.753 -15.798  44.600  0.00  0.00     0.194 C 
ATOM     16  O   UNK d   1      44.505 -16.531  44.877  0.00  0.00    -0.645 OA
BRANCH  15  17
ATOM     17  O   UNK d   1      44.184 -15.232  44.396  0.00  0.00    -0.772 OA
ATOM     18  H   UNK d   1      44.336 -14.439  44.542  0.00  0.00     0.167 HD
ENDBRANCH  15  17
ENDBRANCH  14  15
BRANCH  14  19
ATOM     19  N   UNK d   1      45.896 -15.024  44.955  0.00  0.00    -0.346 N 
ATOM     20  H   UNK d   1      46.041 -15.128  45.760  0.00  0.00     0.166 HD
BRANCH  19  21
ATOM     21  C   UNK d   0      46.092 -14.308  44.597  0.00  0.00     0.092 C 
BRANCH  21  22
ATOM     22  C   UNK d   0      45.849 -13.594  44.921  0.00  0.00     0.099 C 
BRANCH  22  23
ATOM     23  N   UNK d   0      45.797 -12.926  44.441  0.00  0.00    -0.299 N 
ATOM     24  C   UNK d   0      46.045 -12.195  44.725  0.00  0.00     0.100 C 
ATOM     25  C   UNK d   0      45.498 -12.985  43.674  0.00  0.00     0.100 C 
ENDBRANCH  22  23
ENDBRANCH  21  22
ENDBRANCH  19  21
ENDBRANCH  14  19
ENDBRANCH   1  14
TORSDOF 10
ENDMDL
MODEL 2
REMARK VINA RESULT:      13.1      1.214      4.854
REMARK  10 active torsions:
REMARK  status: ('A' for Active; 'I' for Inactive)
REMARK    1  A    between atoms: C_2  and  C_1 
REMARK       I    between atoms: N_3  and  C_1 
REMARK    2  A    between atoms: C_5  and  C_2 
REMARK    3  A    between atoms: C_6  and  N_3 
REMARK    4  A    between atoms: C_4  and  C_5 
REMARK    5  A    between atoms: O_11  and  C_4 
REMARK    6  A    between atoms: N_10  and  C_5 
REMARK    7  A    between atoms: O_13  and  C_9 
REMARK    8  A    between atoms: C_14  and  N_10 
REMARK    9  A    between atoms: N_12  and  C_16 
REMARK   10  A    between atoms: C_16  and  C_14 
ROOT
ATOM      1  C   UNK d   1      45.724 -16.032  43.462  0.00  0.00     0.084 C 
ENDROOT
BRANCH   1   2
ATOM      2  C   UNK d   1      45.859 -15.350  43.894  0.00  0.00     0.259 C 
ATOM      3  N   UNK d   1      45.698 -14.613  43.562  0.00  0.00    -0.320 N 
ATOM      4  H   UNK d   1      45.399 -14.569  42.787  0.00  0.00     0.169 HD
ATOM      5  O   UNK d   1      46.158 -15.402  44.668  0.00  0.00    -0.267 OA
BRANCH   3   6
ATOM      6  C   UNK d   1      45.831 -13.930  43.988  0.00  0.00     0.082 A 
ATOM      7  C   UNK d   1      45.327 -13.273  43.875  0.00  0.00     0.110 A 
ATOM      8  C   UNK d   1      45.458 -12.574  44.307  0.00  0.00     0.026 A 
ATOM      9  C   UNK d   1      46.091 -12.552  44.841  0.00  0.00     0.002 A 
ATOM     10  C   UNK d   1      46.589 -13.208  44.951  0.00  0.00     0.002 A 
ATOM     11  C   UNK d   1      46.460 -13.895  44.526  0.00  0.00     0.019 A 
BRANCH   7  12
ATOM     12  O   UNK d   1      44.705 -13.318  43.338  0.00  0.00    -0.327 OA
ATOM     13  C   UNK d   1      44.332 -12.628  43.086  0.00  0.00     0.181 C 
ENDBRANCH   7  12
ENDBRANCH   3   6
ENDBRANCH   1   2
BRANCH   1  14
ATOM     14  C   UNK d   1      45.964 -16.758  43.760  0.00  0.00     0.124 C 
BRANCH  14  15
ATOM     15  C   UNK d   1      45.708 -17.004  44.511  0.00  0.00     0.194 C 
ATOM     16  O   UNK d   1      45.018 -16.701  44.838  0.00  0.00    -0.645 OA
BRANCH  15  17
ATOM     17  O   UNK d   1      46.145 -17.561  44.941  0.00  0.00    -0.772 OA
ATOM     18  H   UNK d   1      45.923 -18.350  44.920  0.00  0.00     0.167 HD
ENDBRANCH  15  17
ENDBRANCH  14  15
BRANCH  14  19
ATOM     19  N   UNK d   1      46.452 -17.230  43.317  0.00  0.00    -0.346 N 
ATOM     20  H   UNK d   1      47.259 -17.065  43.280  0.00  0.00     0.166 HD
BRANCH  19  21
ATOM     21  C   UNK d   0      46.152 -17.876  42.903  0.00  0.00     0.092 C 
BRANCH  21  22
ATOM     22  C   UNK d   0      46.644 -18.484  42.654  0.00  0.00     0.099 C 
BRANCH  22  23
ATOM     23  N   UNK d   0      46.319 -19.151  42.296  0.00  0.00    -0.299 N 
ATOM     24  C   UNK d   0      46.136 -19.814  42.749  0.00  0.00     0.100 C 
ATOM     25  C   UNK d   0      46.174 -19.161  41.484  0.00  0.00     0.100 C 
ENDBRANCH  22  23
ENDBRANCH  21  22
ENDBRANCH  19  21
ENDBRANCH  14  19
ENDBRANCH   1  14
TORSDOF 10
ENDMDL
MODEL 3
REMARK VINA RESULT:      13.6      1.242      4.597
REMARK  10 active torsions:
REMARK  status: ('A' for Active; 'I' for Inactive)
REMARK    1  A    between atoms: C_2  and  C_1 
REMARK       I    between atoms: N_3  and  C_1 
REMARK    2  A    between atoms: C_5  and  C_2 
REMARK    3  A    between atoms: C_6  and  N_3 
REMARK    4  A    between atoms: C_4  and  C_5 
REMARK    5  A    between atoms: O_11  and  C_4 
REMARK    6  A    between atoms: N_10  and  C_5 
REMARK    7  A    between atoms: O_13  and  C_9 
REMARK    8  A    between atoms: C_14  and  N_10 
REMARK    9  A    between atoms: N_12  and  C_16 
REMARK   10  A    between atoms: C_16  and  C_14 
ROOT
ATOM      1  C   UNK d   1      45.507 -17.096  44.043  0.00  0.00     0.084 C 
ENDROOT
BRANCH   1   2
ATOM      2  C   UNK d   1      45.717 -16.364  44.340  0.00  0.00     0.259 C 
ATOM      3  N   UNK d   1      45.376 -15.680  44.033  0.00  0.00    -0.320 N 
ATOM      4  H   UNK d   1      44.818 -15.742  43.419  0.00  0.00     0.169 HD
ATOM      5  O   UNK d   1      46.276 -16.310  44.955  0.00  0.00    -0.267 OA
BRANCH   3   6
ATOM      6  C   UNK d   1      45.582 -14.947  44.326  0.00  0.00     0.082 A 
ATOM      7  C   UNK d   1      44.988 -14.371  44.441  0.00  0.00     0.110 A 
ATOM      8  C   UNK d   1      45.192 -13.622  44.740  0.00  0.00     0.026 A 
ATOM      9  C   UNK d   1      45.988 -13.470  44.916  0.00  0.00     0.002 A 
ATOM     10  C   UNK d   1      46.575 -14.047  44.801  0.00  0.00     0.002 A 
ATOM     11  C   UNK d   1      46.373 -14.782  44.507  0.00  0.00     0.019 A 
BRANCH   7  12
ATOM     12  O   UNK d   1      44.205 -14.544  44.258  0.00  0.00    -0.327 OA
ATOM     13  C   UNK d   1      43.646 -13.939  44.240  0.00  0.00     0.181 C 
ENDBRANCH   7  12
ENDBRANCH   3   6
ENDBRANCH   1   2
BRANCH   1  14
ATOM     14  C   UNK d   1      46.044 -17.717  44.070  0.00  0.00     0.124 C 
BRANCH  14  15
ATOM     15  C   UNK d   1      45.967 -18.308  44.649  0.00  0.00     0.194 C 
ATOM     16  O   UNK d   1      46.627 -18.710  44.928  0.00  0.00    -0.645 OA
BRANCH  15  17
ATOM     17  O   UNK d   1      45.221 -18.499  44.955  0.00  0.00    -0.772 OA
ATOM     18  H   UNK d   1      44.719 -17.897  45.198  0.00  0.00     0.167 HD
ENDBRANCH  15  17
ENDBRANCH  14  15
BRANCH  14  19
ATOM     19  N   UNK d   1      46.646 -17.749  43.528  0.00  0.00    -0.346 N 
ATOM     20  H   UNK d   1      47.415 -17.561  43.759  0.00  0.00     0.166 HD
BRANCH  19  21
ATOM     21  C   UNK d   0      46.501 -17.967  42.747  0.00  0.00     0.092 C 
BRANCH  21  22
ATOM     22  C   UNK d   0      46.429 -18.757  42.536  0.00  0.00     0.099 C 
BRANCH  22  23
ATOM     23  N   UNK d   0      46.502 -18.976  41.745  0.00  0.00    -0.299 N 
ATOM     24  C   UNK d   0      46.618 -18.401  41.168  0.00  0.00     0.100 C 
ATOM     25  C   UNK d   0      46.460 -19.771  41.526  0.00  0.00     0.100 C 
ENDBRANCH  22  23
ENDBRANCH  21  22
ENDBRANCH  19  21
ENDBRANCH  14  19
ENDBRANCH   1  14
TORSDOF 10
ENDMDL
