MODEL 1
REMARK VINA RESULT:       6.3      0.000      0.000
REMARK  5 active torsions:
REMARK  status: ('A' for Active; 'I' for Inactive)
REMARK    1  A    between atoms: C_3  and  C_1 
REMARK    2  A    between atoms: N_4  and  C_3 
REMARK    3  A    between atoms: C_6  and  C_3 
REMARK    4  A    between atoms: C_21  and  N_9 
REMARK    5  A    between atoms: C_25  and  C_21 
ROOT
ATOM      1  C   UNL d   1     -42.679-122.433 -50.517  0.00  0.00     0.073 C 
ENDROOT
BRANCH   1   2
ATOM      2  C   UNL d   1     -42.290-122.404 -51.255  0.00  0.00     0.057 A 
ATOM      3  C   UNL d   1     -42.298-123.043 -51.777  0.00  0.00     0.214 A 
ATOM      4  C   UNL d   1     -41.913-123.006 -52.499  0.00  0.00     0.120 A 
ATOM      5  O   UNL d   1     -42.697-123.727 -51.568  0.00  0.00    -0.285 OA
ATOM      6  N   UNL d   1     -41.926-123.636 -53.003  0.00  0.00    -0.241 NA
ATOM      7  C   UNL d   1     -41.510-122.317 -52.711  0.00  0.00     0.021 A 
ATOM      8  C   UNL d   1     -41.541-123.601 -53.727  0.00  0.00     0.099 A 
ATOM      9  C   UNL d   1     -41.138-122.911 -53.939  0.00  0.00     0.021 A 
ATOM     10  C   UNL d   1     -41.124-122.265 -53.423  0.00  0.00     0.003 A 
ATOM     11  C   UNL d   1     -41.495-121.672 -52.197  0.00  0.00     0.002 A 
ATOM     12  C   UNL d   1     -41.887-121.715 -51.466  0.00  0.00     0.005 A 
ENDBRANCH   1   2
BRANCH   1  13
ATOM     13  N   UNL d   1     -42.293-122.772 -49.879  0.00  0.00    -0.301 N 
ATOM     14  C   UNL d   1     -42.585-123.467 -49.535  0.00  0.00     0.100 A 
ATOM     15  C   UNL d   1     -42.210-123.817 -48.897  0.00  0.00     0.100 A 
ATOM     16  N   UNL d   1     -41.511-123.458 -48.589  0.00  0.00    -0.297 N 
ATOM     17  C   UNL d   1     -41.212-122.773 -48.919  0.00  0.00     0.100 A 
ATOM     18  C   UNL d   1     -41.608-122.426 -49.573  0.00  0.00     0.100 A 
BRANCH  16  19
ATOM     19  C   UNL d   1     -41.123-123.799 -47.949  0.00  0.00     0.126 C 
BRANCH  19  20
ATOM     20  C   UNL d   1     -41.380-123.665 -47.190  0.00  0.00     0.253 C 
ATOM     21  O   UNL d   1     -41.231-122.944 -46.816  0.00  0.00    -0.281 OA
ENDBRANCH  19  20
ENDBRANCH  16  19
ENDBRANCH   1  13
BRANCH   1  22
ATOM     22  C   UNL d   1     -43.431-122.128 -50.440  0.00  0.00     0.046 A 
ATOM     23  S   UNL d   1     -44.012-122.532 -50.027  0.00  0.00    -0.085 SA
ATOM     24  C   UNL d   1     -44.680-122.090 -50.052  0.00  0.00     0.035 A 
ATOM     25  C   UNL d   1     -44.532-121.404 -50.479  0.00  0.00     0.007 A 
ATOM     26  C   UNL d   1     -43.756-121.421 -50.723  0.00  0.00     0.009 A 
ENDBRANCH   1  22
TORSDOF 5
ENDMDL
MODEL 2
REMARK VINA RESULT:       6.8      1.079      3.975
REMARK  5 active torsions:
REMARK  status: ('A' for Active; 'I' for Inactive)
REMARK    1  A    between atoms: C_3  and  C_1 
REMARK    2  A    between atoms: N_4  and  C_3 
REMARK    3  A    between atoms: C_6  and  C_3 
REMARK    4  A    between atoms: C_21  and  N_9 
REMARK    5  A    between atoms: C_25  and  C_21 
ROOT
ATOM      1  C   UNL d   1     -42.713-122.517 -50.364  0.00  0.00     0.073 C 
ENDROOT
BRANCH   1   2
ATOM      2  C   UNL d   1     -42.323-122.649 -49.638  0.00  0.00     0.057 A 
ATOM      3  C   UNL d   1     -42.659-123.108 -49.040  0.00  0.00     0.214 A 
ATOM      4  C   UNL d   1     -42.269-123.233 -48.330  0.00  0.00     0.120 A 
ATOM      5  O   UNL d   1     -43.396-123.445 -49.160  0.00  0.00    -0.285 OA
ATOM      6  N   UNL d   1     -42.606-123.683 -47.752  0.00  0.00    -0.241 NA
ATOM      7  C   UNL d   1     -41.526-122.894 -48.210  0.00  0.00     0.021 A 
ATOM      8  C   UNL d   1     -42.216-123.809 -47.040  0.00  0.00     0.099 A 
ATOM      9  C   UNL d   1     -41.473-123.469 -46.919  0.00  0.00     0.021 A 
ATOM     10  C   UNL d   1     -41.127-123.008 -47.512  0.00  0.00     0.003 A 
ATOM     11  C   UNL d   1     -41.180-122.433 -48.800  0.00  0.00     0.002 A 
ATOM     12  C   UNL d   1     -41.580-122.310 -49.517  0.00  0.00     0.005 A 
ENDBRANCH   1   2
BRANCH   1  13
ATOM     13  N   UNL d   1     -42.320-122.689 -51.062  0.00  0.00    -0.301 N 
ATOM     14  C   UNL d   1     -42.491-123.385 -51.478  0.00  0.00     0.100 A 
ATOM     15  C   UNL d   1     -42.106-123.569 -52.176  0.00  0.00     0.100 A 
ATOM     16  N   UNL d   1     -41.523-123.037 -52.473  0.00  0.00    -0.297 N 
ATOM     17  C   UNL d   1     -41.344-122.347 -52.072  0.00  0.00     0.100 A 
ATOM     18  C   UNL d   1     -41.748-122.171 -51.357  0.00  0.00     0.100 A 
BRANCH  16  19
ATOM     19  C   UNL d   1     -41.128-123.209 -53.173  0.00  0.00     0.126 C 
BRANCH  19  20
ATOM     20  C   UNL d   1     -41.535-123.277 -53.872  0.00  0.00     0.253 C 
ATOM     21  O   UNL d   1     -41.335-122.809 -54.523  0.00  0.00    -0.281 OA
ENDBRANCH  19  20
ENDBRANCH  16  19
ENDBRANCH   1  13
BRANCH   1  22
ATOM     22  C   UNL d   1     -43.473-122.222 -50.371  0.00  0.00     0.046 A 
ATOM     23  S   UNL d   1     -43.615-121.417 -50.325  0.00  0.00    -0.085 SA
ATOM     24  C   UNL d   1     -44.409-121.308 -50.345  0.00  0.00     0.035 A 
ATOM     25  C   UNL d   1     -44.778-122.039 -50.404  0.00  0.00     0.007 A 
ATOM     26  C   UNL d   1     -44.202-122.613 -50.421  0.00  0.00     0.009 A 
ENDBRANCH   1  22
TORSDOF 5
ENDMDL
MODEL 3
REMARK VINA RESULT:       7.8      1.945      4.146
REMARK  5 active torsions:
REMARK  status: ('A' for Active; 'I' for Inactive)
REMARK    1  A    between atoms: C_3  and  C_1 
REMARK    2  A    between atoms: N_4  and  C_3 
REMARK    3  A    between atoms: C_6  and  C_3 
REMARK    4  A    between atoms: C_21  and  N_9 
REMARK    5  A    between atoms: C_25  and  C_21 
ROOT
ATOM      1  C   UNL d   1     -41.773-122.545 -51.646  0.00  0.00     0.073 C 
ENDROOT
BRANCH   1   2
ATOM      2  C   UNL d   1     -41.907-122.862 -50.886  0.00  0.00     0.057 A 
ATOM      3  C   UNL d   1     -42.643-122.813 -50.517  0.00  0.00     0.214 A 
ATOM      4  C   UNL d   1     -42.766-123.126 -49.770  0.00  0.00     0.120 A 
ATOM      5  O   UNL d   1     -43.262-122.444 -50.906  0.00  0.00    -0.285 OA
ATOM      6  N   UNL d   1     -43.490-123.074 -49.418  0.00  0.00    -0.241 NA
ATOM      7  C   UNL d   1     -42.142-123.498 -49.377  0.00  0.00     0.021 A 
ATOM      8  C   UNL d   1     -43.614-123.387 -48.669  0.00  0.00     0.099 A 
ATOM      9  C   UNL d   1     -42.990-123.759 -48.276  0.00  0.00     0.021 A 
ATOM     10  C   UNL d   1     -42.248-123.814 -48.637  0.00  0.00     0.003 A 
ATOM     11  C   UNL d   1     -41.402-123.553 -49.735  0.00  0.00     0.002 A 
ATOM     12  C   UNL d   1     -41.282-123.234 -50.493  0.00  0.00     0.005 A 
ENDBRANCH   1   2
BRANCH   1  13
ATOM     13  N   UNL d   1     -41.612-121.745 -51.719  0.00  0.00    -0.301 N 
ATOM     14  C   UNL d   1     -41.661-121.375 -52.459  0.00  0.00     0.100 A 
ATOM     15  C   UNL d   1     -41.503-120.577 -52.546  0.00  0.00     0.100 A 
ATOM     16  N   UNL d   1     -41.285-120.127 -51.866  0.00  0.00    -0.297 N 
ATOM     17  C   UNL d   1     -41.232-120.480 -51.131  0.00  0.00     0.100 A 
ATOM     18  C   UNL d   1     -41.398-121.300 -51.056  0.00  0.00     0.100 A 
BRANCH  16  19
ATOM     19  C   UNL d   1     -41.123-119.324 -51.939  0.00  0.00     0.126 C 
BRANCH  19  20
ATOM     20  C   UNL d   1     -41.609-118.842 -52.375  0.00  0.00     0.253 C 
ATOM     21  O   UNL d   1     -41.392-118.062 -52.539  0.00  0.00    -0.281 OA
ENDBRANCH  19  20
ENDBRANCH  16  19
ENDBRANCH   1  13
BRANCH   1  22
ATOM     22  C   UNL d   1     -41.803-123.030 -52.301  0.00  0.00     0.046 A 
ATOM     23  S   UNL d   1     -41.124-123.227 -52.714  0.00  0.00    -0.085 SA
ATOM     24  C   UNL d   1     -41.338-123.705 -53.320  0.00  0.00     0.035 A 
ATOM     25  C   UNL d   1     -42.151-123.816 -53.300  0.00  0.00     0.007 A 
ATOM     26  C   UNL d   1     -42.448-123.398 -52.668  0.00  0.00     0.009 A 
ENDBRANCH   1  22
TORSDOF 5
ENDMDL
