MODEL 1
REMARK VINA RESULT:       6.4      0.000      0.000
REMARK  4 active torsions:
REMARK  status: ('A' for Active; 'I' for Inactive)
REMARK    1  A    between atoms: C_2  and  C_1 
REMARK       I    between atoms: N_5  and  C_1 
REMARK    2  A    between atoms: C_4  and  C_2 
REMARK    3  A    between atoms: C_3  and  C_4 
REMARK    4  A    between atoms: C_9  and  N_5 
ROOT
ATOM      1  C   UNL d   1      43.899 -15.595  36.730  0.00  0.00     0.280 C 
ATOM      2  N   UNL d   1      44.438 -15.095  36.332  0.00  0.00    -0.208 NA
ATOM      3  O   UNL d   1      44.087 -15.925  37.462  0.00  0.00    -0.265 OA
ENDROOT
BRANCH   1   4
ATOM      4  C   UNL d   1      43.173 -15.758  36.385  0.00  0.00     0.069 C 
BRANCH   4   5
ATOM      5  C   UNL d   1      42.493 -15.836  36.867  0.00  0.00     0.075 C 
BRANCH   5   6
ATOM      6  C   UNL d   1      41.735 -15.794  36.518  0.00  0.00     0.211 C 
ATOM      7  O   UNL d   1      41.398 -15.046  36.354  0.00  0.00    -0.644 OA
ATOM      8  O   UNL d   1      41.305 -16.479  36.331  0.00  0.00    -0.644 OA
ENDBRANCH   5   6
ENDBRANCH   4   5
ENDBRANCH   1   4
BRANCH   2   9
ATOM      9  C   UNL d   1      45.176 -14.931  36.686  0.00  0.00     0.085 A 
ATOM     10  C   UNL d   1      45.264 -14.272  37.178  0.00  0.00     0.019 A 
ATOM     11  C   UNL d   1      45.986 -14.108  37.527  0.00  0.00     0.002 A 
ATOM     12  C   UNL d   1      46.634 -14.596  37.395  0.00  0.00     0.000 A 
ATOM     13  C   UNL d   1      46.554 -15.269  36.896  0.00  0.00     0.002 A 
ATOM     14  C   UNL d   1      45.823 -15.420  36.552  0.00  0.00     0.019 A 
ENDBRANCH   2   9
TORSDOF 4
ENDMDL
MODEL 2
REMARK VINA RESULT:       7.9      7.658      8.223
REMARK  4 active torsions:
REMARK  status: ('A' for Active; 'I' for Inactive)
REMARK    1  A    between atoms: C_2  and  C_1 
REMARK       I    between atoms: N_5  and  C_1 
REMARK    2  A    between atoms: C_4  and  C_2 
REMARK    3  A    between atoms: C_3  and  C_4 
REMARK    4  A    between atoms: C_9  and  N_5 
ROOT
ATOM      1  C   UNL d   1      45.651 -15.007  44.662  0.00  0.00     0.280 C 
ATOM      2  N   UNL d   1      46.210 -14.387  44.639  0.00  0.00    -0.208 NA
ATOM      3  O   UNL d   1      44.853 -14.866  44.509  0.00  0.00    -0.265 OA
ENDROOT
BRANCH   1   4
ATOM      4  C   UNL d   1      45.902 -15.767  44.840  0.00  0.00     0.069 C 
BRANCH   4   5
ATOM      5  C   UNL d   1      45.462 -16.425  44.565  0.00  0.00     0.075 C 
BRANCH   5   6
ATOM      6  C   UNL d   1      45.850 -17.154  44.438  0.00  0.00     0.211 C 
ATOM      7  O   UNL d   1      46.352 -17.244  43.774  0.00  0.00    -0.644 OA
ATOM      8  O   UNL d   1      45.749 -17.795  44.955  0.00  0.00    -0.644 OA
ENDBRANCH   5   6
ENDBRANCH   4   5
ENDBRANCH   1   4
BRANCH   2   9
ATOM      9  C   UNL d   1      45.950 -13.614  44.457  0.00  0.00     0.085 A 
ATOM     10  C   UNL d   1      45.512 -13.474  43.769  0.00  0.00     0.019 A 
ATOM     11  C   UNL d   1      45.255 -12.719  43.588  0.00  0.00     0.002 A 
ATOM     12  C   UNL d   1      45.430 -12.088  44.085  0.00  0.00     0.000 A 
ATOM     13  C   UNL d   1      45.875 -12.220  44.786  0.00  0.00     0.002 A 
ATOM     14  C   UNL d   1      46.126 -12.985  44.955  0.00  0.00     0.019 A 
ENDBRANCH   2   9
TORSDOF 4
ENDMDL
