MODEL 1
REMARK VINA RESULT:      35.6      0.000      0.000
REMARK  6 active torsions:
REMARK  status: ('A' for Active; 'I' for Inactive)
REMARK    1  A    between atoms: N_8  and  C_2 
REMARK    2  A    between atoms: N_7  and  C_3 
REMARK    3  A    between atoms: N_10  and  C_6 
REMARK    4  A    between atoms: C_9  and  N_11 
REMARK    5  A    between atoms: N_13  and  C_9 
REMARK    6  A    between atoms: N_11  and  N_10 
ROOT
ATOM      1  N   UNL d   1      14.022  12.712  -2.672  0.00  0.00     0.133 NA
ATOM      2  C   UNL d   1      14.300  13.061  -2.020  0.00  0.00     0.766 A 
ATOM      3  C   UNL d   1      13.822  13.139  -3.337  0.00  0.00     0.766 A 
ATOM      4  N   UNL d   1      13.916  13.958  -3.322  0.00  0.00     0.135 NA
ATOM      5  N   UNL d   1      14.398  13.917  -2.005  0.00  0.00     0.135 NA
ATOM      6  C   UNL d   1      14.205  14.357  -2.657  0.00  0.00     0.798 A 
ENDROOT
BRANCH   2   7
ATOM      7  N   UNL d   1      14.500  12.634  -1.356  0.00  0.00    -0.132 N 
ATOM      8  C   UNL d   1      15.290  12.615  -1.121  0.00  0.00     0.125 A 
ATOM      9  C   UNL d   1      15.511  12.188  -0.450  0.00  0.00     0.142 A 
ATOM     10  O   UNL d   1      14.941  11.779  -0.014  0.00  0.00    -0.300 OA
ATOM     11  C   UNL d   1      14.151  11.798  -0.249  0.00  0.00     0.142 A 
ATOM     12  C   UNL d   1      13.929  12.226  -0.920  0.00  0.00     0.125 A 
ENDBRANCH   2   7
BRANCH   3  13
ATOM     13  N   UNL d   1      13.534  12.791  -4.014  0.00  0.00    -0.132 N 
ATOM     14  C   UNL d   1      13.057  12.131  -4.003  0.00  0.00     0.125 A 
ATOM     15  C   UNL d   1      12.769  11.783  -4.681  0.00  0.00     0.142 A 
ATOM     16  O   UNL d   1      12.969  12.113  -5.410  0.00  0.00    -0.300 OA
ATOM     17  C   UNL d   1      13.458  12.791  -5.461  0.00  0.00     0.142 A 
ATOM     18  C   UNL d   1      13.735  13.120  -4.744  0.00  0.00     0.125 A 
ENDBRANCH   3  13
BRANCH   6  19
ATOM     19  N   UNL d   1      14.297  15.158  -2.643  0.00  0.00     0.050 NA
BRANCH  19  20
ATOM     20  N   UNL d   1      14.922  15.500  -2.253  0.00  0.00    -0.101 NA
BRANCH  20  21
ATOM     21  C   UNL d   1      14.959  16.317  -2.145  0.00  0.00     0.241 C 
ATOM     22  S   UNL d   1      15.128  16.816  -2.760  0.00  0.00    -0.035 SA
BRANCH  21  23
ATOM     23  N   UNL d   1      14.821  16.636  -1.398  0.00  0.00    -0.213 NA
ATOM     24  C   UNL d   1      15.427  16.676  -0.840  0.00  0.00     0.122 C 
ENDBRANCH  21  23
ENDBRANCH  20  21
ENDBRANCH  19  20
ENDBRANCH   6  19
TORSDOF 6
ENDMDL
MODEL 2
REMARK VINA RESULT:      35.8      0.133      3.196
REMARK  6 active torsions:
REMARK  status: ('A' for Active; 'I' for Inactive)
REMARK    1  A    between atoms: N_8  and  C_2 
REMARK    2  A    between atoms: N_7  and  C_3 
REMARK    3  A    between atoms: N_10  and  C_6 
REMARK    4  A    between atoms: C_9  and  N_11 
REMARK    5  A    between atoms: N_13  and  C_9 
REMARK    6  A    between atoms: N_11  and  N_10 
ROOT
ATOM      1  N   UNL d   1      13.988  12.740  -2.654  0.00  0.00     0.133 NA
ATOM      2  C   UNL d   1      13.770  13.171  -3.280  0.00  0.00     0.766 A 
ATOM      3  C   UNL d   1      14.279  13.085  -1.976  0.00  0.00     0.766 A 
ATOM      4  N   UNL d   1      14.346  13.907  -1.948  0.00  0.00     0.135 NA
ATOM      5  N   UNL d   1      13.840  14.030  -3.251  0.00  0.00     0.135 NA
ATOM      6  C   UNL d   1      14.128  14.388  -2.585  0.00  0.00     0.798 A 
ENDROOT
BRANCH   2   7
ATOM      7  N   UNL d   1      13.479  12.827  -3.958  0.00  0.00    -0.132 N 
ATOM      8  C   UNL d   1      13.606  13.205  -4.680  0.00  0.00     0.125 A 
ATOM      9  C   UNL d   1      13.318  12.871  -5.377  0.00  0.00     0.142 A 
ATOM     10  O   UNL d   1      12.903  12.158  -5.354  0.00  0.00    -0.300 OA
ATOM     11  C   UNL d   1      12.775  11.779  -4.632  0.00  0.00     0.142 A 
ATOM     12  C   UNL d   1      13.063  12.113  -3.934  0.00  0.00     0.125 A 
ENDBRANCH   2   7
BRANCH   3  13
ATOM     13  N   UNL d   1      14.506  12.653  -1.324  0.00  0.00    -0.132 N 
ATOM     14  C   UNL d   1      13.975  12.369  -0.776  0.00  0.00     0.125 A 
ATOM     15  C   UNL d   1      14.203  11.937  -0.124  0.00  0.00     0.142 A 
ATOM     16  O   UNL d   1      15.005  11.779  -0.015  0.00  0.00    -0.300 OA
ATOM     17  C   UNL d   1      15.580  12.054  -0.558  0.00  0.00     0.142 A 
ATOM     18  C   UNL d   1      15.309  12.495  -1.215  0.00  0.00     0.125 A 
ENDBRANCH   3  13
BRANCH   6  19
ATOM     19  N   UNL d   1      14.194  15.192  -2.557  0.00  0.00     0.050 NA
BRANCH  19  20
ATOM     20  N   UNL d   1      14.861  15.546  -2.258  0.00  0.00    -0.101 NA
BRANCH  20  21
ATOM     21  C   UNL d   1      14.923  16.367  -2.218  0.00  0.00     0.241 C 
ATOM     22  S   UNL d   1      14.962  16.820  -2.888  0.00  0.00    -0.035 SA
BRANCH  21  23
ATOM     23  N   UNL d   1      14.946  16.739  -1.484  0.00  0.00    -0.213 NA
ATOM     24  C   UNL d   1      15.492  16.506  -0.910  0.00  0.00     0.122 C 
ENDBRANCH  21  23
ENDBRANCH  20  21
ENDBRANCH  19  20
ENDBRANCH   6  19
TORSDOF 6
ENDMDL
