MODEL 1
REMARK VINA RESULT:      -5.6      0.000      0.000
REMARK  1 active torsions:
REMARK  status: ('A' for Active; 'I' for Inactive)
REMARK    1  A    between atoms: C_6  and  C_3 
ROOT
ATOM      1  O   UNL d   1     -41.440-121.962 -52.764  0.00  0.00    -0.260 OA
ATOM      2  N   UNL d   1     -41.657-123.284 -52.979  0.00  0.00    -0.120 NA
ATOM      3  C   UNL d   1     -41.640-122.507 -53.325  0.00  0.00     0.205 A 
ATOM      4  N   UNL d   1     -41.468-123.203 -52.215  0.00  0.00    -0.109 NA
ATOM      5  C   UNL d   1     -41.327-122.431 -52.028  0.00  0.00     0.262 A 
ATOM      6  S   UNL d   1     -41.123-122.189 -51.285  0.00  0.00    -0.029 SA
ENDROOT
BRANCH   3   7
ATOM      7  C   UNL d   1     -41.797-122.325 -54.094  0.00  0.00     0.043 A 
ATOM      8  C   UNL d   1     -42.450-121.832 -54.271  0.00  0.00     0.004 A 
ATOM      9  C   UNL d   1     -42.618-121.640 -55.054  0.00  0.00     0.000 A 
ATOM     10  C   UNL d   1     -42.132-121.941 -55.668  0.00  0.00     0.000 A 
ATOM     11  C   UNL d   1     -41.493-122.424 -55.470  0.00  0.00     0.000 A 
ATOM     12  C   UNL d   1     -41.310-122.626 -54.698  0.00  0.00     0.004 A 
ENDBRANCH   3   7
TORSDOF 1
ENDMDL
MODEL 2
REMARK VINA RESULT:      -5.4      0.788      1.143
REMARK  1 active torsions:
REMARK  status: ('A' for Active; 'I' for Inactive)
REMARK    1  A    between atoms: C_6  and  C_3 
ROOT
ATOM      1  O   UNL d   1     -41.526-123.201 -52.842  0.00  0.00    -0.260 OA
ATOM      2  N   UNL d   1     -41.275-121.886 -52.619  0.00  0.00    -0.120 NA
ATOM      3  C   UNL d   1     -41.528-122.470 -53.184  0.00  0.00     0.205 A 
ATOM      4  N   UNL d   1     -41.123-122.267 -51.943  0.00  0.00    -0.109 NA
ATOM      5  C   UNL d   1     -41.255-123.060 -52.016  0.00  0.00     0.262 A 
ATOM      6  S   UNL d   1     -41.144-123.582 -51.410  0.00  0.00    -0.029 SA
ENDROOT
BRANCH   3   7
ATOM      7  C   UNL d   1     -41.742-122.332 -53.948  0.00  0.00     0.043 A 
ATOM      8  C   UNL d   1     -41.352-122.747 -54.562  0.00  0.00     0.004 A 
ATOM      9  C   UNL d   1     -41.564-122.613 -55.347  0.00  0.00     0.000 A 
ATOM     10  C   UNL d   1     -42.169-122.059 -55.523  0.00  0.00     0.000 A 
ATOM     11  C   UNL d   1     -42.539-121.661 -54.903  0.00  0.00     0.000 A 
ATOM     12  C   UNL d   1     -42.343-121.781 -54.117  0.00  0.00     0.004 A 
ENDBRANCH   3   7
TORSDOF 1
ENDMDL
MODEL 3
REMARK VINA RESULT:      -5.1      1.543      3.021
REMARK  1 active torsions:
REMARK  status: ('A' for Active; 'I' for Inactive)
REMARK    1  A    between atoms: C_6  and  C_3 
ROOT
ATOM      1  O   UNL d   1     -41.951-122.089 -53.803  0.00  0.00    -0.260 OA
ATOM      2  N   UNL d   1     -41.123-123.143 -54.009  0.00  0.00    -0.120 NA
ATOM      3  C   UNL d   1     -41.474-122.625 -53.434  0.00  0.00     0.205 A 
ATOM      4  N   UNL d   1     -41.389-122.917 -54.719  0.00  0.00    -0.109 NA
ATOM      5  C   UNL d   1     -41.891-122.288 -54.658  0.00  0.00     0.262 A 
ATOM      6  S   UNL d   1     -42.244-121.944 -55.297  0.00  0.00    -0.029 SA
ENDROOT
BRANCH   3   7
ATOM      7  C   UNL d   1     -41.359-122.651 -52.637  0.00  0.00     0.043 A 
ATOM      8  C   UNL d   1     -41.259-123.394 -52.263  0.00  0.00     0.004 A 
ATOM      9  C   UNL d   1     -41.141-123.431 -51.449  0.00  0.00     0.000 A 
ATOM     10  C   UNL d   1     -41.123-122.722 -51.000  0.00  0.00     0.000 A 
ATOM     11  C   UNL d   1     -41.224-122.001 -51.389  0.00  0.00     0.000 A 
ATOM     12  C   UNL d   1     -41.342-121.944 -52.198  0.00  0.00     0.004 A 
ENDBRANCH   3   7
TORSDOF 1
ENDMDL
MODEL 4
REMARK VINA RESULT:      -4.3      1.912      3.728
REMARK  1 active torsions:
REMARK  status: ('A' for Active; 'I' for Inactive)
REMARK    1  A    between atoms: C_6  and  C_3 
ROOT
ATOM      1  O   UNL d   1     -41.477-123.324 -52.298  0.00  0.00    -0.260 OA
ATOM      2  N   UNL d   1     -41.205-122.026 -52.015  0.00  0.00    -0.120 NA
ATOM      3  C   UNL d   1     -41.427-122.784 -51.701  0.00  0.00     0.205 A 
ATOM      4  N   UNL d   1     -41.123-122.113 -52.797  0.00  0.00    -0.109 NA
ATOM      5  C   UNL d   1     -41.274-122.872 -53.025  0.00  0.00     0.262 A 
ATOM      6  S   UNL d   1     -41.231-123.117 -53.794  0.00  0.00    -0.029 SA
ENDROOT
BRANCH   3   7
ATOM      7  C   UNL d   1     -41.569-122.955 -50.926  0.00  0.00     0.043 A 
ATOM      8  C   UNL d   1     -42.161-122.527 -50.516  0.00  0.00     0.004 A 
ATOM      9  C   UNL d   1     -42.314-122.695 -49.724  0.00  0.00     0.000 A 
ATOM     10  C   UNL d   1     -41.873-123.295 -49.336  0.00  0.00     0.000 A 
ATOM     11  C   UNL d   1     -41.295-123.703 -49.759  0.00  0.00     0.000 A 
ATOM     12  C   UNL d   1     -41.129-123.551 -50.546  0.00  0.00     0.004 A 
ENDBRANCH   3   7
TORSDOF 1
ENDMDL
MODEL 5
REMARK VINA RESULT:      -3.8      1.652      3.635
REMARK  1 active torsions:
REMARK  status: ('A' for Active; 'I' for Inactive)
REMARK    1  A    between atoms: C_6  and  C_3 
ROOT
ATOM      1  O   UNL d   1     -41.419-122.463 -52.449  0.00  0.00    -0.260 OA
ATOM      2  N   UNL d   1     -41.510-123.817 -52.467  0.00  0.00    -0.120 NA
ATOM      3  C   UNL d   1     -41.472-123.119 -51.982  0.00  0.00     0.205 A 
ATOM      4  N   UNL d   1     -41.480-123.578 -53.220  0.00  0.00    -0.109 NA
ATOM      5  C   UNL d   1     -41.425-122.775 -53.272  0.00  0.00     0.262 A 
ATOM      6  S   UNL d   1     -41.386-122.381 -53.976  0.00  0.00    -0.029 SA
ENDROOT
BRANCH   3   7
ATOM      7  C   UNL d   1     -41.486-123.098 -51.177  0.00  0.00     0.043 A 
ATOM      8  C   UNL d   1     -41.123-123.718 -50.746  0.00  0.00     0.004 A 
ATOM      9  C   UNL d   1     -41.131-123.705 -49.922  0.00  0.00     0.000 A 
ATOM     10  C   UNL d   1     -41.505-123.069 -49.522  0.00  0.00     0.000 A 
ATOM     11  C   UNL d   1     -41.856-122.469 -49.967  0.00  0.00     0.000 A 
ATOM     12  C   UNL d   1     -41.858-122.464 -50.785  0.00  0.00     0.004 A 
ENDBRANCH   3   7
TORSDOF 1
ENDMDL
