MODEL 1
REMARK VINA RESULT:      28.6      0.000      0.000
REMARK  4 active torsions:
REMARK  status: ('A' for Active; 'I' for Inactive)
REMARK    1  A    between atoms: C_6  and  C_1 
REMARK    2  A    between atoms: C_9  and  N_3 
REMARK    3  A    between atoms: C_17  and  C_9 
REMARK    4  A    between atoms: O_15  and  C_10 
ROOT
ATOM      1  C   UNL d   1      14.340  13.611  -2.017  0.00  0.00     0.148 A 
ATOM      2  N   UNL d   1      14.525  14.431  -2.164  0.00  0.00    -0.227 NA
ATOM      3  N   UNL d   1      14.598  13.439  -1.247  0.00  0.00    -0.289 N 
ATOM      4  C   UNL d   1      14.927  14.102  -0.919  0.00  0.00     0.083 A 
ATOM      5  C   UNL d   1      14.881  14.728  -1.498  0.00  0.00     0.099 A 
ATOM      6  C   UNL d   1      15.267  14.251  -0.181  0.00  0.00     0.019 A 
ATOM      7  C   UNL d   1      15.192  15.479  -1.280  0.00  0.00     0.021 A 
ATOM      8  C   UNL d   1      15.552  14.984  -0.015  0.00  0.00     0.002 A 
ATOM      9  C   UNL d   1      15.508  15.589  -0.574  0.00  0.00     0.002 A 
ENDROOT
BRANCH   1  10
ATOM     10  C   UNL d   1      13.970  13.109  -2.566  0.00  0.00     0.035 A 
ATOM     11  C   UNL d   1      14.061  12.300  -2.523  0.00  0.00     0.005 A 
ATOM     12  C   UNL d   1      13.701  11.780  -3.060  0.00  0.00     0.024 A 
ATOM     13  C   UNL d   1      13.251  12.068  -3.641  0.00  0.00     0.094 A 
ATOM     14  C   UNL d   1      13.147  12.904  -3.698  0.00  0.00     0.024 A 
ATOM     15  C   UNL d   1      13.507  13.424  -3.161  0.00  0.00     0.005 A 
BRANCH  13  16
ATOM     16  O   UNL d   1      12.769  11.940  -4.304  0.00  0.00    -0.328 OA
ATOM     17  C   UNL d   1      13.089  12.001  -5.068  0.00  0.00     0.181 C 
ENDBRANCH  13  16
ENDBRANCH   1  10
BRANCH   3  18
ATOM     18  C   UNL d   1      14.462  12.689  -1.029  0.00  0.00     0.082 C 
BRANCH  18  19
ATOM     19  C   UNL d   1      14.325  12.481  -0.251  0.00  0.00     0.019 C 
ATOM     20  C   UNL d   1      13.932  11.793  -0.031  0.00  0.00     0.002 C 
ENDBRANCH  18  19
ENDBRANCH   3  18
TORSDOF 4
ENDMDL
