MODEL 1
REMARK VINA RESULT:      61.7      0.000      0.000
REMARK  5 active torsions:
REMARK  status: ('A' for Active; 'I' for Inactive)
REMARK    1  A    between atoms: C_5  and  N_1 
REMARK    2  A    between atoms: C_8  and  C_2 
REMARK    3  A    between atoms: C_7  and  C_5 
REMARK    4  A    between atoms: N_10  and  C_8 
REMARK       I    between atoms: C_9  and  N_10 
REMARK    5  A    between atoms: C_17  and  C_9 
ROOT
ATOM      1  N   UNL d   1     -51.631  25.170  33.393  0.00  0.00    -0.288 N 
ATOM      2  C   UNL d   1     -50.811  25.092  33.431  0.00  0.00     0.167 A 
ATOM      3  N   UNL d   1     -50.482  25.838  33.429  0.00  0.00    -0.225 NA
ATOM      4  C   UNL d   1     -51.802  25.978  33.367  0.00  0.00     0.083 A 
ATOM      5  C   UNL d   1     -51.090  26.387  33.390  0.00  0.00     0.099 A 
ATOM      6  C   UNL d   1     -52.517  26.389  33.327  0.00  0.00     0.019 A 
ATOM      7  C   UNL d   1     -51.081  27.216  33.372  0.00  0.00     0.021 A 
ATOM      8  C   UNL d   1     -52.505  27.215  33.309  0.00  0.00     0.002 A 
ATOM      9  C   UNL d   1     -51.795  27.627  33.331  0.00  0.00     0.002 A 
ENDROOT
BRANCH   1  10
ATOM     10  C   UNL d   1     -52.176  24.552  33.382  0.00  0.00     0.084 C 
BRANCH  10  11
ATOM     11  C   UNL d   1     -52.558  24.332  34.070  0.00  0.00     0.045 A 
ATOM     12  C   UNL d   1     -53.195  23.794  34.035  0.00  0.00     0.141 A 
ATOM     13  F   UNL d   1     -53.434  23.487  33.309  0.00  0.00    -0.204 F 
ATOM     14  C   UNL d   1     -53.587  23.566  34.729  0.00  0.00     0.030 A 
ATOM     15  C   UNL d   1     -53.349  23.872  35.462  0.00  0.00     0.002 A 
ATOM     16  C   UNL d   1     -52.709  24.412  35.484  0.00  0.00     0.000 A 
ATOM     17  C   UNL d   1     -52.322  24.636  34.797  0.00  0.00     0.004 A 
ENDBRANCH  10  11
ENDBRANCH   1  10
BRANCH   2  18
ATOM     18  C   UNL d   1     -50.397  24.377  33.465  0.00  0.00     0.140 C 
BRANCH  18  19
ATOM     19  N   UNL d   1     -49.839  24.258  34.061  0.00  0.00    -0.203 NA
ATOM     20  C   UNL d   1     -49.277  23.671  33.990  0.00  0.00     0.279 C 
ATOM     21  O   UNL d   1     -49.268  23.192  33.315  0.00  0.00    -0.265 OA
BRANCH  20  22
ATOM     22  C   UNL d   1     -48.723  23.550  34.578  0.00  0.00     0.062 C 
ATOM     23  C   UNL d   1     -47.934  23.619  34.413  0.00  0.00     0.005 C 
ENDBRANCH  20  22
ENDBRANCH  18  19
ENDBRANCH   2  18
TORSDOF 5
ENDMDL
MODEL 2
REMARK VINA RESULT:      62.1      2.149      3.777
REMARK  5 active torsions:
REMARK  status: ('A' for Active; 'I' for Inactive)
REMARK    1  A    between atoms: C_5  and  N_1 
REMARK    2  A    between atoms: C_8  and  C_2 
REMARK    3  A    between atoms: C_7  and  C_5 
REMARK    4  A    between atoms: N_10  and  C_8 
REMARK       I    between atoms: C_9  and  N_10 
REMARK    5  A    between atoms: C_17  and  C_9 
ROOT
ATOM      1  N   UNL d   1     -52.308  25.344  34.330  0.00  0.00    -0.288 N 
ATOM      2  C   UNL d   1     -52.370  25.396  35.150  0.00  0.00     0.167 A 
ATOM      3  N   UNL d   1     -52.764  24.736  35.421  0.00  0.00    -0.225 NA
ATOM      4  C   UNL d   1     -52.672  24.639  34.098  0.00  0.00     0.083 A 
ATOM      5  C   UNL d   1     -52.952  24.266  34.775  0.00  0.00     0.099 A 
ATOM      6  C   UNL d   1     -52.781  24.293  33.357  0.00  0.00     0.019 A 
ATOM      7  C   UNL d   1     -53.347  23.539  34.721  0.00  0.00     0.021 A 
ATOM      8  C   UNL d   1     -53.175  23.568  33.306  0.00  0.00     0.002 A 
ATOM      9  C   UNL d   1     -53.456  23.193  33.980  0.00  0.00     0.002 A 
ENDROOT
BRANCH   1  10
ATOM     10  C   UNL d   1     -51.949  25.897  33.836  0.00  0.00     0.084 C 
BRANCH  10  11
ATOM     11  C   UNL d   1     -51.146  25.856  33.692  0.00  0.00     0.045 A 
ATOM     12  C   UNL d   1     -50.733  26.541  33.454  0.00  0.00     0.141 A 
ATOM     13  F   UNL d   1     -51.137  27.254  33.366  0.00  0.00    -0.204 F 
ATOM     14  C   UNL d   1     -49.918  26.507  33.307  0.00  0.00     0.030 A 
ATOM     15  C   UNL d   1     -49.509  25.791  33.394  0.00  0.00     0.002 A 
ATOM     16  C   UNL d   1     -49.934  25.111  33.633  0.00  0.00     0.000 A 
ATOM     17  C   UNL d   1     -50.739  25.146  33.779  0.00  0.00     0.004 A 
ENDBRANCH  10  11
ENDBRANCH   1  10
BRANCH   2  18
ATOM     18  C   UNL d   1     -52.080  26.014  35.616  0.00  0.00     0.140 C 
BRANCH  18  19
ATOM     19  N   UNL d   1     -52.174  25.985  36.436  0.00  0.00    -0.203 NA
ATOM     20  C   UNL d   1     -51.658  26.384  36.925  0.00  0.00     0.279 C 
ATOM     21  O   UNL d   1     -51.036  26.820  36.597  0.00  0.00    -0.265 OA
BRANCH  20  22
ATOM     22  C   UNL d   1     -51.747  26.357  37.737  0.00  0.00     0.062 C 
ATOM     23  C   UNL d   1     -51.172  26.658  38.219  0.00  0.00     0.005 C 
ENDBRANCH  20  22
ENDBRANCH  18  19
ENDBRANCH   2  18
TORSDOF 5
ENDMDL
