MODEL 1
REMARK VINA RESULT:     -11.2      0.000      0.000
REMARK  3 active torsions:
REMARK  status: ('A' for Active; 'I' for Inactive)
REMARK    1  A    between atoms: C_11  and  N_2 
REMARK    2  A    between atoms: C_9  and  N_3 
REMARK    3  A    between atoms: C_10  and  C_12 
ROOT
ATOM      1  C   UNL d   1      52.440  32.263  53.201  0.00  0.00     0.339 A 
ATOM      2  N   UNL d   1      52.287  33.040  53.426  0.00  0.00    -0.258 N 
ATOM      3  N   UNL d   1      53.107  31.994  53.612  0.00  0.00    -0.258 N 
ATOM      4  S   UNL d   1      53.791  33.605  54.876  0.00  0.00     0.214 S 
ATOM      5  C   UNL d   1      52.867  33.263  53.987  0.00  0.00     0.097 A 
ATOM      6  C   UNL d   1      53.369  32.610  54.096  0.00  0.00     0.097 A 
ATOM      7  C   UNL d   1      53.132  33.872  54.470  0.00  0.00     0.118 A 
ATOM      8  C   UNL d   1      53.942  32.832  54.651  0.00  0.00     0.118 A 
ATOM      9  O   UNL d   1      52.001  31.821  52.655  0.00  0.00    -0.245 OA
ATOM     10  O   UNL d   1      54.463  33.332  55.288  0.00  0.00    -0.217 OA
ATOM     11  O   UNL d   1      53.685  34.383  55.138  0.00  0.00    -0.217 OA
ENDROOT
BRANCH   3  12
ATOM     12  C   UNL d   1      53.450  31.243  53.552  0.00  0.00     0.068 A 
ATOM     13  C   UNL d   1      53.231  30.644  54.071  0.00  0.00     0.021 A 
ATOM     14  C   UNL d   1      53.569  29.898  54.015  0.00  0.00     0.073 A 
ATOM     15  C   UNL d   1      54.134  29.749  53.432  0.00  0.00     0.004 A 
ATOM     16  C   UNL d   1      54.360  30.346  52.905  0.00  0.00     0.001 A 
ATOM     17  C   UNL d   1      54.015  31.095  52.968  0.00  0.00     0.018 A 
BRANCH  14  18
ATOM     18  C   UNL d   1      53.348  29.296  54.538  0.00  0.00     0.419 C 
ATOM     19  F   UNL d   1      53.147  28.751  55.019  0.00  0.00    -0.166 F 
ATOM     20  F   UNL d   1      53.247  29.331  55.398  0.00  0.00    -0.166 F 
ATOM     21  F   UNL d   1      53.158  28.472  54.376  0.00  0.00    -0.166 F 
ENDBRANCH  14  18
ENDBRANCH   3  12
BRANCH   2  22
ATOM     22  C   UNL d   1      51.673  33.523  53.152  0.00  0.00     0.068 A 
ATOM     23  C   UNL d   1      51.789  33.998  52.488  0.00  0.00     0.016 A 
ATOM     24  C   UNL d   1      52.513  33.998  52.095  0.00  0.00     0.002 C 
ATOM     25  C   UNL d   1      51.167  34.477  52.222  0.00  0.00     0.001 A 
ATOM     26  C   UNL d   1      50.444  34.478  52.615  0.00  0.00     0.000 A 
ATOM     27  C   UNL d   1      50.334  34.001  53.277  0.00  0.00     0.002 A 
ATOM     28  C   UNL d   1      50.949  33.524  53.544  0.00  0.00     0.018 A 
ENDBRANCH   2  22
TORSDOF 3
ENDMDL
MODEL 2
REMARK VINA RESULT:     -10.2      2.245      4.055
REMARK  3 active torsions:
REMARK  status: ('A' for Active; 'I' for Inactive)
REMARK    1  A    between atoms: C_11  and  N_2 
REMARK    2  A    between atoms: C_9  and  N_3 
REMARK    3  A    between atoms: C_10  and  C_12 
ROOT
ATOM      1  C   UNL d   1      52.637  32.061  53.275  0.00  0.00     0.339 A 
ATOM      2  N   UNL d   1      53.144  31.708  53.819  0.00  0.00    -0.258 N 
ATOM      3  N   UNL d   1      52.675  32.883  53.370  0.00  0.00    -0.258 N 
ATOM      4  S   UNL d   1      54.076  33.292  54.962  0.00  0.00     0.214 S 
ATOM      5  C   UNL d   1      53.507  32.317  54.264  0.00  0.00     0.097 A 
ATOM      6  C   UNL d   1      53.211  33.040  53.979  0.00  0.00     0.097 A 
ATOM      7  C   UNL d   1      54.039  32.479  54.868  0.00  0.00     0.118 A 
ATOM      8  C   UNL d   1      53.572  33.642  54.420  0.00  0.00     0.118 A 
ATOM      9  O   UNL d   1      52.165  31.663  52.722  0.00  0.00    -0.245 OA
ATOM     10  O   UNL d   1      54.114  34.119  55.056  0.00  0.00    -0.217 OA
ATOM     11  O   UNL d   1      54.601  32.991  55.528  0.00  0.00    -0.217 OA
ENDROOT
BRANCH   3  12
ATOM     12  C   UNL d   1      52.255  33.448  52.936  0.00  0.00     0.068 A 
ATOM     13  C   UNL d   1      51.476  33.627  53.134  0.00  0.00     0.021 A 
ATOM     14  C   UNL d   1      51.054  34.186  52.706  0.00  0.00     0.073 A 
ATOM     15  C   UNL d   1      51.416  34.572  52.072  0.00  0.00     0.004 A 
ATOM     16  C   UNL d   1      52.198  34.398  51.866  0.00  0.00     0.001 A 
ATOM     17  C   UNL d   1      52.616  33.833  52.302  0.00  0.00     0.018 A 
BRANCH  14  18
ATOM     18  C   UNL d   1      50.272  34.365  52.906  0.00  0.00     0.419 C 
ATOM     19  F   UNL d   1      49.557  34.525  53.085  0.00  0.00    -0.166 F 
ATOM     20  F   UNL d   1      49.540  33.997  52.625  0.00  0.00    -0.166 F 
ATOM     21  F   UNL d   1      49.967  34.964  53.446  0.00  0.00    -0.166 F 
ENDBRANCH  14  18
ENDBRANCH   3  12
BRANCH   2  22
ATOM     22  C   UNL d   1      53.277  30.896  53.916  0.00  0.00     0.068 A 
ATOM     23  C   UNL d   1      53.790  30.501  53.405  0.00  0.00     0.016 A 
ATOM     24  C   UNL d   1      54.170  30.906  52.798  0.00  0.00     0.002 C 
ATOM     25  C   UNL d   1      53.915  29.688  53.512  0.00  0.00     0.001 A 
ATOM     26  C   UNL d   1      53.535  29.283  54.119  0.00  0.00     0.000 A 
ATOM     27  C   UNL d   1      53.025  29.684  54.625  0.00  0.00     0.002 A 
ATOM     28  C   UNL d   1      52.897  30.491  54.523  0.00  0.00     0.018 A 
ENDBRANCH   2  22
TORSDOF 3
ENDMDL
MODEL 3
REMARK VINA RESULT:      -9.8      2.694      4.469
REMARK  3 active torsions:
REMARK  status: ('A' for Active; 'I' for Inactive)
REMARK    1  A    between atoms: C_11  and  N_2 
REMARK    2  A    between atoms: C_9  and  N_3 
REMARK    3  A    between atoms: C_10  and  C_12 
ROOT
ATOM      1  C   UNL d   1      53.009  33.655  53.745  0.00  0.00     0.339 A 
ATOM      2  N   UNL d   1      53.647  33.154  53.885  0.00  0.00    -0.258 N 
ATOM      3  N   UNL d   1      52.397  33.215  53.400  0.00  0.00    -0.258 N 
ATOM      4  S   UNL d   1      53.085  31.178  53.208  0.00  0.00     0.214 S 
ATOM      5  C   UNL d   1      53.434  32.388  53.624  0.00  0.00     0.097 A 
ATOM      6  C   UNL d   1      52.660  32.435  53.327  0.00  0.00     0.097 A 
ATOM      7  C   UNL d   1      53.690  31.612  53.549  0.00  0.00     0.118 A 
ATOM      8  C   UNL d   1      52.450  31.676  53.069  0.00  0.00     0.118 A 
ATOM      9  O   UNL d   1      52.979  34.464  53.918  0.00  0.00    -0.245 OA
ATOM     10  O   UNL d   1      52.468  30.736  52.861  0.00  0.00    -0.217 OA
ATOM     11  O   UNL d   1      53.696  30.630  53.326  0.00  0.00    -0.217 OA
ENDROOT
BRANCH   3  12
ATOM     12  C   UNL d   1      51.656  33.502  53.170  0.00  0.00     0.068 A 
ATOM     13  C   UNL d   1      51.528  33.745  52.395  0.00  0.00     0.021 A 
ATOM     14  C   UNL d   1      50.794  34.030  52.162  0.00  0.00     0.073 A 
ATOM     15  C   UNL d   1      50.180  34.072  52.711  0.00  0.00     0.004 A 
ATOM     16  C   UNL d   1      50.300  33.830  53.493  0.00  0.00     0.001 A 
ATOM     17  C   UNL d   1      51.041  33.544  53.720  0.00  0.00     0.018 A 
BRANCH  14  18
ATOM     18  C   UNL d   1      50.667  34.275  51.382  0.00  0.00     0.419 C 
ATOM     19  F   UNL d   1      50.546  34.497  50.672  0.00  0.00    -0.166 F 
ATOM     20  F   UNL d   1      49.918  34.430  50.975  0.00  0.00    -0.166 F 
ATOM     21  F   UNL d   1      51.239  34.442  50.760  0.00  0.00    -0.166 F 
ENDBRANCH  14  18
ENDBRANCH   3  12
BRANCH   2  22
ATOM     22  C   UNL d   1      54.374  33.363  54.222  0.00  0.00     0.068 A 
ATOM     23  C   UNL d   1      54.443  33.425  55.042  0.00  0.00     0.016 A 
ATOM     24  C   UNL d   1      53.795  33.280  55.529  0.00  0.00     0.002 C 
ATOM     25  C   UNL d   1      55.176  33.635  55.369  0.00  0.00     0.001 A 
ATOM     26  C   UNL d   1      55.824  33.780  54.882  0.00  0.00     0.000 A 
ATOM     27  C   UNL d   1      55.747  33.716  54.066  0.00  0.00     0.002 A 
ATOM     28  C   UNL d   1      55.022  33.508  53.737  0.00  0.00     0.018 A 
ENDBRANCH   2  22
TORSDOF 3
ENDMDL
MODEL 4
REMARK VINA RESULT:      -9.5      1.420      2.600
REMARK  3 active torsions:
REMARK  status: ('A' for Active; 'I' for Inactive)
REMARK    1  A    between atoms: C_11  and  N_2 
REMARK    2  A    between atoms: C_9  and  N_3 
REMARK    3  A    between atoms: C_10  and  C_12 
ROOT
ATOM      1  C   UNL d   1      53.942  31.926  54.113  0.00  0.00     0.339 A 
ATOM      2  N   UNL d   1      53.851  32.741  54.179  0.00  0.00    -0.258 N 
ATOM      3  N   UNL d   1      53.275  31.613  53.733  0.00  0.00    -0.258 N 
ATOM      4  S   UNL d   1      51.949  33.258  53.287  0.00  0.00     0.214 S 
ATOM      5  C   UNL d   1      53.116  32.946  53.835  0.00  0.00     0.097 A 
ATOM      6  C   UNL d   1      52.767  32.242  53.562  0.00  0.00     0.097 A 
ATOM      7  C   UNL d   1      52.607  33.566  53.662  0.00  0.00     0.118 A 
ATOM      8  C   UNL d   1      52.040  32.446  53.221  0.00  0.00     0.118 A 
ATOM      9  O   UNL d   1      54.591  31.486  54.382  0.00  0.00    -0.245 OA
ATOM     10  O   UNL d   1      51.278  32.942  52.904  0.00  0.00    -0.217 OA
ATOM     11  O   UNL d   1      51.805  34.072  53.325  0.00  0.00    -0.217 OA
ENDROOT
BRANCH   3  12
ATOM     12  C   UNL d   1      53.139  30.817  53.555  0.00  0.00     0.068 A 
ATOM     13  C   UNL d   1      53.250  30.239  54.130  0.00  0.00     0.021 A 
ATOM     14  C   UNL d   1      53.117  29.448  53.959  0.00  0.00     0.073 A 
ATOM     15  C   UNL d   1      52.869  29.231  53.202  0.00  0.00     0.004 A 
ATOM     16  C   UNL d   1      52.755  29.805  52.617  0.00  0.00     0.001 A 
ATOM     17  C   UNL d   1      52.891  30.600  52.798  0.00  0.00     0.018 A 
BRANCH  14  18
ATOM     18  C   UNL d   1      53.229  28.868  54.538  0.00  0.00     0.419 C 
ATOM     19  F   UNL d   1      53.328  28.341  55.069  0.00  0.00    -0.166 F 
ATOM     20  F   UNL d   1      52.849  28.790  55.312  0.00  0.00    -0.166 F 
ATOM     21  F   UNL d   1      53.752  28.183  54.534  0.00  0.00    -0.166 F 
ENDBRANCH  14  18
ENDBRANCH   3  12
BRANCH   2  22
ATOM     22  C   UNL d   1      54.386  33.272  54.522  0.00  0.00     0.068 A 
ATOM     23  C   UNL d   1      55.051  33.515  54.100  0.00  0.00     0.016 A 
ATOM     24  C   UNL d   1      55.189  33.234  53.339  0.00  0.00     0.002 C 
ATOM     25  C   UNL d   1      55.580  34.046  54.454  0.00  0.00     0.001 A 
ATOM     26  C   UNL d   1      55.442  34.327  55.216  0.00  0.00     0.000 A 
ATOM     27  C   UNL d   1      54.776  34.080  55.631  0.00  0.00     0.002 A 
ATOM     28  C   UNL d   1      54.249  33.553  55.284  0.00  0.00     0.018 A 
ENDBRANCH   2  22
TORSDOF 3
ENDMDL
MODEL 5
REMARK VINA RESULT:      -9.0      2.083      3.026
REMARK  3 active torsions:
REMARK  status: ('A' for Active; 'I' for Inactive)
REMARK    1  A    between atoms: C_11  and  N_2 
REMARK    2  A    between atoms: C_9  and  N_3 
REMARK    3  A    between atoms: C_10  and  C_12 
ROOT
ATOM      1  C   UNL d   1      52.778  33.683  53.379  0.00  0.00     0.339 A 
ATOM      2  N   UNL d   1      52.094  33.304  53.121  0.00  0.00    -0.258 N 
ATOM      3  N   UNL d   1      53.365  33.113  53.508  0.00  0.00    -0.258 N 
ATOM      4  S   UNL d   1      52.516  31.184  53.040  0.00  0.00     0.214 S 
ATOM      5  C   UNL d   1      52.253  32.483  53.088  0.00  0.00     0.097 A 
ATOM      6  C   UNL d   1      53.041  32.374  53.329  0.00  0.00     0.097 A 
ATOM      7  C   UNL d   1      51.935  31.747  52.912  0.00  0.00     0.118 A 
ATOM      8  C   UNL d   1      53.196  31.561  53.296  0.00  0.00     0.118 A 
ATOM      9  O   UNL d   1      52.869  34.499  53.491  0.00  0.00    -0.245 OA
ATOM     10  O   UNL d   1      53.108  30.611  53.172  0.00  0.00    -0.217 OA
ATOM     11  O   UNL d   1      51.857  30.751  52.785  0.00  0.00    -0.217 OA
ENDROOT
BRANCH   3  12
ATOM     12  C   UNL d   1      54.137  33.254  53.770  0.00  0.00     0.068 A 
ATOM     13  C   UNL d   1      54.286  33.391  54.568  0.00  0.00     0.021 A 
ATOM     14  C   UNL d   1      55.050  33.531  54.833  0.00  0.00     0.073 A 
ATOM     15  C   UNL d   1      55.674  33.534  54.292  0.00  0.00     0.004 A 
ATOM     16  C   UNL d   1      55.534  33.397  53.488  0.00  0.00     0.001 A 
ATOM     17  C   UNL d   1      54.761  33.257  53.230  0.00  0.00     0.018 A 
BRANCH  14  18
ATOM     18  C   UNL d   1      55.198  33.668  55.635  0.00  0.00     0.419 C 
ATOM     19  F   UNL d   1      55.331  33.789  56.367  0.00  0.00    -0.166 F 
ATOM     20  F   UNL d   1      54.996  33.176  56.318  0.00  0.00    -0.166 F 
ATOM     21  F   UNL d   1      55.592  34.334  56.013  0.00  0.00    -0.166 F 
ENDBRANCH  14  18
ENDBRANCH   3  12
BRANCH   2  22
ATOM     22  C   UNL d   1      51.374  33.664  52.927  0.00  0.00     0.068 A 
ATOM     23  C   UNL d   1      51.296  34.068  52.213  0.00  0.00     0.016 A 
ATOM     24  C   UNL d   1      51.930  34.119  51.689  0.00  0.00     0.002 C 
ATOM     25  C   UNL d   1      50.570  34.424  52.029  0.00  0.00     0.001 A 
ATOM     26  C   UNL d   1      49.937  34.374  52.552  0.00  0.00     0.000 A 
ATOM     27  C   UNL d   1      50.021  33.969  53.263  0.00  0.00     0.002 A 
ATOM     28  C   UNL d   1      50.740  33.614  53.449  0.00  0.00     0.018 A 
ENDBRANCH   2  22
TORSDOF 3
ENDMDL
