MODEL 1
REMARK VINA RESULT:      58.5      0.000      0.000
REMARK  4 active torsions:
REMARK  status: ('A' for Active; 'I' for Inactive)
REMARK    1  A    between atoms: C_3  and  N_1 
REMARK       I    between atoms: C_2  and  N_5 
REMARK       I    between atoms: N_4  and  C_2 
REMARK    2  A    between atoms: C_17  and  N_4 
REMARK    3  A    between atoms: N_5  and  C_16 
REMARK    4  A    between atoms: C_8  and  C_9 
ROOT
ATOM      1  C   UNL d   1     -48.527  28.368  34.866  0.00  0.00     0.369 C 
ATOM      2  N   UNL d   1     -47.853  28.735  35.220  0.00  0.00    -0.191 NA
ATOM      3  N   UNL d   1     -48.632  27.572  34.911  0.00  0.00    -0.191 NA
ATOM      4  O   UNL d   1     -49.060  28.857  34.481  0.00  0.00    -0.242 OA
ENDROOT
BRANCH   3   5
ATOM      5  C   UNL d   1     -49.322  27.242  34.543  0.00  0.00     0.086 A 
ATOM      6  C   UNL d   1     -50.055  27.274  34.926  0.00  0.00     0.021 A 
ATOM      7  C   UNL d   1     -50.734  26.957  34.580  0.00  0.00     0.025 A 
ATOM      8  C   UNL d   1     -50.647  26.611  33.842  0.00  0.00     0.127 A 
ATOM      9  C   UNL d   1     -49.915  26.560  33.422  0.00  0.00     0.025 A 
ATOM     10  C   UNL d   1     -49.263  26.890  33.806  0.00  0.00     0.021 A 
BRANCH   8  11
ATOM     11  N   UNL d   1     -51.371  26.275  33.476  0.00  0.00    -0.114 N 
ATOM     12  O   UNL d   1     -52.002  26.777  33.307  0.00  0.00    -0.532 OA
ATOM     13  O   UNL d   1     -51.414  25.465  33.306  0.00  0.00    -0.532 OA
ENDBRANCH   8  11
ENDBRANCH   3   5
BRANCH   2  14
ATOM     14  C   UNL d   1     -47.733  29.548  35.182  0.00  0.00     0.086 A 
ATOM     15  C   UNL d   1     -47.645  29.984  35.877  0.00  0.00     0.019 A 
ATOM     16  C   UNL d   1     -47.526  30.783  35.841  0.00  0.00     0.005 A 
ATOM     17  C   UNL d   1     -47.489  31.193  35.102  0.00  0.00     0.039 A 
ATOM     18  C   UNL d   1     -47.578  30.746  34.422  0.00  0.00     0.005 A 
ATOM     19  C   UNL d   1     -47.699  29.927  34.461  0.00  0.00     0.019 A 
BRANCH  17  20
ATOM     20  C   UNL d   1     -47.372  31.983  35.041  0.00  0.00     0.196 C 
ATOM     21  O   UNL d   1     -46.983  32.384  35.620  0.00  0.00    -0.287 OA
ATOM     22  C   UNL d   1     -47.647  32.399  34.391  0.00  0.00     0.045 C 
ENDBRANCH  17  20
ENDBRANCH   2  14
TORSDOF 4
ENDMDL
