MODEL 1
REMARK VINA RESULT:       0.2      0.000      0.000
REMARK  5 active torsions:
REMARK  status: ('A' for Active; 'I' for Inactive)
REMARK    1  A    between atoms: N_10  and  C_3 
REMARK    2  A    between atoms: C_11  and  C_5 
REMARK    3  A    between atoms: C_16  and  C_7 
REMARK    4  A    between atoms: C_15  and  N_10 
REMARK       I    between atoms: C_12  and  N_13 
REMARK    5  A    between atoms: N_13  and  C_17 
ROOT
ATOM      1  N   UNL d   1     -41.894-122.643 -52.601  0.00  0.00    -0.184 N 
ATOM      2  C   UNL d   1     -41.846-122.268 -53.334  0.00  0.00     0.168 A 
ATOM      3  C   UNL d   1     -41.690-122.245 -51.937  0.00  0.00     0.217 A 
ATOM      4  N   UNL d   1     -42.347-123.794 -53.218  0.00  0.00    -0.162 NA
ATOM      5  C   UNL d   1     -42.048-122.660 -53.990  0.00  0.00     0.055 A 
ATOM      6  N   UNL d   1     -41.596-121.512 -53.374  0.00  0.00    -0.227 NA
ATOM      7  C   UNL d   1     -41.438-121.484 -51.979  0.00  0.00     0.066 A 
ATOM      8  C   UNL d   1     -42.300-123.426 -53.940  0.00  0.00     0.104 A 
ATOM      9  C   UNL d   1     -41.390-121.109 -52.713  0.00  0.00     0.087 A 
ATOM     10  C   UNL d   1     -42.503-123.816 -54.609  0.00  0.00     0.023 C 
ATOM     11  C   UNL d   1     -41.127-120.313 -52.761  0.00  0.00     0.021 C 
ENDROOT
BRANCH   3  12
ATOM     12  N   UNL d   1     -41.741-122.628 -51.204  0.00  0.00    -0.383 NA
BRANCH  12  13
ATOM     13  C   UNL d   1     -41.803-122.925 -50.434  0.00  0.00     0.134 A 
ATOM     14  C   UNL d   1     -41.141-123.252 -50.064  0.00  0.00     0.034 A 
ATOM     15  C   UNL d   1     -41.212-123.547 -49.291  0.00  0.00     0.022 A 
ATOM     16  C   UNL d   1     -41.935-123.515 -48.896  0.00  0.00     0.085 A 
ATOM     17  C   UNL d   1     -42.602-123.188 -49.263  0.00  0.00     0.022 A 
ATOM     18  C   UNL d   1     -42.538-122.889 -50.040  0.00  0.00     0.034 A 
BRANCH  16  19
ATOM     19  N   UNL d   1     -41.989-123.815 -48.122  0.00  0.00    -0.208 NA
ATOM     20  C   UNL d   1     -41.776-123.324 -47.484  0.00  0.00     0.279 C 
ATOM     21  O   UNL d   1     -41.825-123.609 -46.719  0.00  0.00    -0.265 OA
ATOM     22  C   UNL d   1     -41.516-122.552 -47.614  0.00  0.00     0.068 C 
ENDBRANCH  16  19
ENDBRANCH  12  13
ENDBRANCH   3  12
BRANCH   7  23
ATOM     23  C   UNL d   1     -41.223-121.058 -51.301  0.00  0.00     0.006 C 
ATOM     24  C   UNL d   1     -41.193-120.221 -51.307  0.00  0.00     0.000 C 
ENDBRANCH   7  23
BRANCH   5  25
ATOM     25  C   UNL d   1     -42.002-122.297 -54.701  0.00  0.00     0.004 A 
ATOM     26  C   UNL d   1     -41.315-122.283 -55.106  0.00  0.00     0.000 A 
ATOM     27  C   UNL d   1     -41.268-121.915 -55.828  0.00  0.00     0.000 A 
ATOM     28  C   UNL d   1     -41.908-121.565 -56.134  0.00  0.00     0.000 A 
ATOM     29  C   UNL d   1     -42.606-121.576 -55.729  0.00  0.00     0.000 A 
ATOM     30  C   UNL d   1     -42.653-121.939 -55.018  0.00  0.00     0.000 A 
ENDBRANCH   5  25
TORSDOF 5
ENDMDL
