MODEL 1
REMARK VINA RESULT:      52.9      0.000      0.000
REMARK  12 active torsions:
REMARK  status: ('A' for Active; 'I' for Inactive)
REMARK    1  A    between atoms: C_23  and  N_1 
REMARK    2  A    between atoms: S_8  and  C_2 
REMARK    3  A    between atoms: C_7  and  C_11 
REMARK       I    between atoms: N_12  and  C_7 
REMARK    4  A    between atoms: C_24  and  S_8 
REMARK    5  A    between atoms: C_25  and  N_12 
REMARK    6  A    between atoms: C_13  and  C_25 
REMARK    7  A    between atoms: C_15  and  C_24 
REMARK    8  A    between atoms: O_26  and  C_15 
REMARK    9  A    between atoms: C_28  and  C_23 
REMARK   10  A    between atoms: C_27  and  O_26 
REMARK   11  A    between atoms: C_30  and  C_28 
REMARK   12  A    between atoms: C_29  and  C_30 
ROOT
ATOM      1  N   UNL d   1      44.449 -16.595  38.660  0.00  0.00    -0.253 N 
ATOM      2  C   UNL d   1      45.176 -16.730  38.315  0.00  0.00     0.182 A 
ATOM      3  C   UNL d   1      44.240 -16.983  39.354  0.00  0.00     0.268 A 
ATOM      4  N   UNL d   1      45.697 -17.256  38.666  0.00  0.00    -0.222 NA
ATOM      5  C   UNL d   1      44.757 -17.508  39.706  0.00  0.00     0.074 A 
ATOM      6  C   UNL d   1      45.498 -17.650  39.360  0.00  0.00     0.088 A 
ATOM      7  C   UNL d   1      46.029 -18.182  39.712  0.00  0.00     0.024 A 
ATOM      8  C   UNL d   1      44.557 -17.904  40.403  0.00  0.00     0.006 A 
ATOM      9  C   UNL d   1      45.818 -18.572  40.409  0.00  0.00     0.059 A 
ATOM     10  O   UNL d   1      43.499 -16.841  39.699  0.00  0.00    -0.267 OA
ATOM     11  C   UNL d   1      45.078 -18.430  40.754  0.00  0.00     0.005 A 
ENDROOT
BRANCH   9  12
ATOM     12  C   UNL d   1      46.348 -19.106  40.764  0.00  0.00     0.279 C 
ATOM     13  N   UNL d   1      46.556 -18.996  41.541  0.00  0.00    -0.204 NA
ATOM     14  O   UNL d   1      46.646 -19.728  40.317  0.00  0.00    -0.265 OA
BRANCH  13  15
ATOM     15  C   UNL d   1      46.248 -18.368  41.972  0.00  0.00     0.127 C 
BRANCH  15  16
ATOM     16  C   UNL d   1      46.368 -18.327  42.787  0.00  0.00     0.119 A 
ATOM     17  O   UNL d   1      46.463 -17.708  43.302  0.00  0.00    -0.304 OA
ATOM     18  C   UNL d   1      46.566 -17.994  44.064  0.00  0.00     0.123 A 
ATOM     19  C   UNL d   1      46.531 -18.821  44.006  0.00  0.00     0.029 A 
ATOM     20  C   UNL d   1      46.411 -19.030  43.232  0.00  0.00     0.028 A 
ENDBRANCH  15  16
ENDBRANCH  13  15
ENDBRANCH   9  12
BRANCH   2  21
ATOM     21  S   UNL d   1      45.387 -16.340  37.618  0.00  0.00    -0.044 SA
BRANCH  21  22
ATOM     22  C   UNL d   1      45.785 -15.624  37.649  0.00  0.00     0.107 C 
BRANCH  22  23
ATOM     23  C   UNL d   1      46.041 -15.271  36.947  0.00  0.00     0.307 C 
ATOM     24  O   UNL d   1      46.571 -15.664  36.444  0.00  0.00    -0.258 OA
BRANCH  23  25
ATOM     25  O   UNL d   1      45.760 -14.515  36.751  0.00  0.00    -0.271 OA
BRANCH  25  26
ATOM     26  C   UNL d   1      46.306 -13.908  36.629  0.00  0.00     0.126 C 
ATOM     27  C   UNL d   1      46.572 -13.491  37.275  0.00  0.00     0.029 C 
ENDBRANCH  25  26
ENDBRANCH  23  25
ENDBRANCH  22  23
ENDBRANCH  21  22
ENDBRANCH   2  21
BRANCH   1  28
ATOM     28  C   UNL d   1      43.921 -16.057  38.298  0.00  0.00     0.085 C 
BRANCH  28  29
ATOM     29  C   UNL d   1      43.647 -16.195  37.533  0.00  0.00     0.019 C 
BRANCH  29  30
ATOM     30  C   UNL d   1      43.340 -15.593  37.080  0.00  0.00     0.002 C 
BRANCH  30  31
ATOM     31  C   UNL d   1      42.740 -15.733  36.533  0.00  0.00     0.000 C 
ATOM     32  C   UNL d   1      41.984 -15.503  36.682  0.00  0.00     0.000 C 
ENDBRANCH  30  31
ENDBRANCH  29  30
ENDBRANCH  28  29
ENDBRANCH   1  28
TORSDOF 12
ENDMDL
