MODEL 1
REMARK VINA RESULT:      21.6      0.000      0.000
REMARK  3 active torsions:
REMARK  status: ('A' for Active; 'I' for Inactive)
REMARK    1  A    between atoms: C_4  and  C_1 
REMARK       I    between atoms: N_8  and  C_4 
REMARK    2  A    between atoms: C_15  and  C_11 
REMARK    3  A    between atoms: C_12  and  C_15 
ROOT
ATOM      1  C   UNL d   1      14.291  12.471  -2.062  0.00  0.00     0.120 A 
ATOM      2  C   UNL d   1      14.307  13.289  -2.197  0.00  0.00     0.305 A 
ATOM      3  O   UNL d   1      13.934  13.607  -2.877  0.00  0.00    -0.273 OA
ATOM      4  C   UNL d   1      13.903  11.959  -2.601  0.00  0.00     0.012 A 
ATOM      5  C   UNL d   1      13.554  13.109  -3.408  0.00  0.00     0.103 A 
ATOM      6  C   UNL d   1      13.537  12.283  -3.271  0.00  0.00     0.023 A 
ATOM      7  O   UNL d   1      14.688  13.792  -1.667  0.00  0.00    -0.259 OA
ATOM      8  C   UNL d   1      13.181  13.415  -4.086  0.00  0.00     0.023 A 
ATOM      9  C   UNL d   1      13.152  11.780  -3.808  0.00  0.00     0.002 A 
ATOM     10  C   UNL d   1      12.785  12.100  -4.478  0.00  0.00     0.000 A 
ATOM     11  C   UNL d   1      12.800  12.912  -4.616  0.00  0.00     0.002 A 
ENDROOT
BRANCH   1  12
ATOM     12  C   UNL d   1      14.657  12.160  -1.394  0.00  0.00     0.270 C 
ATOM     13  N   UNL d   1      14.243  12.091  -0.685  0.00  0.00    -0.269 N 
ATOM     14  C   UNL d   1      14.609  11.779  -0.016  0.00  0.00     0.102 C 
ATOM     15  C   UNL d   1      13.457  12.338  -0.649  0.00  0.00     0.102 C 
ATOM     16  O   UNL d   1      15.442  11.913  -1.430  0.00  0.00    -0.266 OA
ENDBRANCH   1  12
BRANCH   8  17
ATOM     17  C   UNL d   1      13.195  14.228  -4.224  0.00  0.00     0.002 C 
BRANCH  17  18
ATOM     18  C   UNL d   1      13.020  14.522  -4.974  0.00  0.00     0.000 C 
ATOM     19  C   UNL d   1      13.000  15.336  -5.103  0.00  0.00     0.000 C 
ENDBRANCH  17  18
ENDBRANCH   8  17
TORSDOF 3
ENDMDL
