MODEL 1
REMARK VINA RESULT:      12.8      0.000      0.000
REMARK  1 active torsions:
REMARK  status: ('A' for Active; 'I' for Inactive)
REMARK    1  A    between atoms: C_7  and  C_5 
ROOT
ATOM      1  C   UNL d   1     -52.105  24.468  33.346  0.00  0.00     0.110 A 
ATOM      2  C   UNL d   1     -53.390  24.090  33.338  0.00  0.00     0.332 A 
ATOM      3  C   UNL d   1     -52.133  23.645  33.346  0.00  0.00     0.060 A 
ATOM      4  S   UNL d   1     -52.923  23.409  33.341  0.00  0.00    -0.018 SA
ATOM      5  C   UNL d   1     -51.384  24.867  33.350  0.00  0.00     0.027 A 
ATOM      6  O   UNL d   1     -52.885  24.745  33.341  0.00  0.00    -0.268 OA
ATOM      7  C   UNL d   1     -51.414  23.215  33.350  0.00  0.00     0.051 A 
ATOM      8  C   UNL d   1     -50.677  24.441  33.354  0.00  0.00     0.044 A 
ATOM      9  O   UNL d   1     -54.217  24.118  33.333  0.00  0.00    -0.251 OA
ATOM     10  C   UNL d   1     -50.692  23.615  33.354  0.00  0.00     0.196 A 
ATOM     11  O   UNL d   1     -49.982  23.188  33.359  0.00  0.00    -0.286 OA
ENDROOT
BRANCH   5  12
ATOM     12  C   UNL d   1     -51.368  25.694  33.350  0.00  0.00     0.004 A 
ATOM     13  C   UNL d   1     -50.647  26.094  33.359  0.00  0.00     0.030 A 
ATOM     14  C   UNL d   1     -50.632  26.921  33.359  0.00  0.00     0.140 A 
ATOM     15  F   UNL d   1     -49.910  27.326  33.368  0.00  0.00    -0.204 F 
ATOM     16  C   UNL d   1     -51.338  27.347  33.349  0.00  0.00     0.030 A 
ATOM     17  C   UNL d   1     -52.059  26.947  33.339  0.00  0.00     0.002 A 
ATOM     18  C   UNL d   1     -52.075  26.120  33.340  0.00  0.00     0.000 A 
ENDBRANCH   5  12
TORSDOF 1
ENDMDL
MODEL 2
REMARK VINA RESULT:      15.6      1.795      2.929
REMARK  1 active torsions:
REMARK  status: ('A' for Active; 'I' for Inactive)
REMARK    1  A    between atoms: C_7  and  C_5 
ROOT
ATOM      1  C   UNL d   1     -51.316  25.559  33.355  0.00  0.00     0.110 A 
ATOM      2  C   UNL d   1     -51.458  26.891  33.393  0.00  0.00     0.332 A 
ATOM      3  C   UNL d   1     -50.566  25.900  33.362  0.00  0.00     0.060 A 
ATOM      4  S   UNL d   1     -50.650  26.719  33.386  0.00  0.00    -0.018 SA
ATOM      5  C   UNL d   1     -51.409  24.740  33.332  0.00  0.00     0.027 A 
ATOM      6  O   UNL d   1     -51.870  26.174  33.374  0.00  0.00    -0.268 OA
ATOM      7  C   UNL d   1     -49.894  25.400  33.346  0.00  0.00     0.051 A 
ATOM      8  C   UNL d   1     -50.746  24.251  33.316  0.00  0.00     0.044 A 
ATOM      9  O   UNL d   1     -51.800  27.643  33.415  0.00  0.00    -0.251 OA
ATOM     10  C   UNL d   1     -49.987  24.581  33.323  0.00  0.00     0.196 A 
ATOM     11  O   UNL d   1     -49.322  24.087  33.307  0.00  0.00    -0.286 OA
ENDROOT
BRANCH   5  12
ATOM     12  C   UNL d   1     -52.168  24.410  33.325  0.00  0.00     0.004 A 
ATOM     13  C   UNL d   1     -52.831  24.900  33.319  0.00  0.00     0.030 A 
ATOM     14  C   UNL d   1     -53.590  24.570  33.312  0.00  0.00     0.140 A 
ATOM     15  F   UNL d   1     -54.258  25.058  33.306  0.00  0.00    -0.204 F 
ATOM     16  C   UNL d   1     -53.683  23.751  33.310  0.00  0.00     0.030 A 
ATOM     17  C   UNL d   1     -53.020  23.261  33.316  0.00  0.00     0.002 A 
ATOM     18  C   UNL d   1     -52.261  23.591  33.323  0.00  0.00     0.000 A 
ENDBRANCH   5  12
TORSDOF 1
ENDMDL
