MODEL 1
REMARK VINA RESULT:      38.2      0.000      0.000
REMARK  4 active torsions:
REMARK  status: ('A' for Active; 'I' for Inactive)
REMARK    1  A    between atoms: C_2  and  C_1 
REMARK       I    between atoms: N_7  and  C_2 
REMARK    2  A    between atoms: C_9  and  N_7 
REMARK    3  A    between atoms: O_16  and  C_10 
REMARK    4  A    between atoms: C_18  and  O_16 
ROOT
ATOM      1  C   UNL d   1     -51.454  24.123  33.434  0.00  0.00     0.280 C 
ATOM      2  N   UNL d   1     -50.715  24.459  33.573  0.00  0.00    -0.208 NA
ATOM      3  O   UNL d   1     -51.515  23.304  33.335  0.00  0.00    -0.265 OA
ENDROOT
BRANCH   1   4
ATOM      4  C   UNL d   1     -52.125  24.599  33.394  0.00  0.00     0.065 A 
ATOM      5  C   UNL d   1     -52.907  24.333  33.391  0.00  0.00     0.011 A 
ATOM      6  C   UNL d   1     -53.390  24.994  33.345  0.00  0.00     0.030 A 
ATOM      7  C   UNL d   1     -53.239  23.576  33.424  0.00  0.00     0.001 A 
ATOM      8  C   UNL d   1     -54.214  24.906  33.332  0.00  0.00     0.006 A 
ATOM      9  S   UNL d   1     -52.912  25.666  33.319  0.00  0.00    -0.086 SA
ATOM     10  C   UNL d   1     -54.538  24.168  33.364  0.00  0.00     0.001 A 
ATOM     11  C   UNL d   1     -54.055  23.497  33.411  0.00  0.00     0.000 A 
ATOM     12  C   UNL d   1     -52.126  25.411  33.350  0.00  0.00     0.040 A 
ENDBRANCH   1   4
BRANCH   2  13
ATOM     13  C   UNL d   1     -50.650  25.285  33.673  0.00  0.00     0.085 A 
ATOM     14  C   UNL d   1     -51.233  25.692  34.090  0.00  0.00     0.021 A 
ATOM     15  C   UNL d   1     -51.170  26.507  34.189  0.00  0.00     0.026 A 
ATOM     16  C   UNL d   1     -50.522  26.922  33.872  0.00  0.00     0.100 A 
ATOM     17  C   UNL d   1     -49.943  26.507  33.457  0.00  0.00     0.026 A 
ATOM     18  C   UNL d   1     -50.007  25.686  33.356  0.00  0.00     0.021 A 
BRANCH  16  19
ATOM     19  O   UNL d   1     -50.446  27.743  33.965  0.00  0.00    -0.305 OA
BRANCH  19  20
ATOM     20  C   UNL d   1     -50.525  28.244  33.315  0.00  0.00     0.123 C 
ATOM     21  C   UNL d   1     -50.744  29.035  33.423  0.00  0.00     0.029 C 
ENDBRANCH  19  20
ENDBRANCH  16  19
ENDBRANCH   2  13
TORSDOF 4
ENDMDL
