MODEL 1
REMARK VINA RESULT:      75.7      0.000      0.000
REMARK  5 active torsions:
REMARK  status: ('A' for Active; 'I' for Inactive)
REMARK    1  A    between atoms: C_11  and  N_1 
REMARK    2  A    between atoms: S_14  and  C_2 
REMARK    3  A    between atoms: C_12  and  C_3 
REMARK    4  A    between atoms: C_8  and  C_12 
REMARK    5  A    between atoms: C_20  and  S_14 
ROOT
ATOM      1  N   UNL d   1     -47.317  30.413  35.684  0.00  0.00    -0.269 N 
ATOM      2  C   UNL d   1     -46.918  30.514  36.383  0.00  0.00     0.201 A 
ATOM      3  C   UNL d   1     -47.401  31.154  35.338  0.00  0.00     0.172 A 
ATOM      4  N   UNL d   1     -46.747  31.301  36.486  0.00  0.00    -0.121 NA
ATOM      5  N   UNL d   1     -47.049  31.702  35.833  0.00  0.00    -0.128 NA
ENDROOT
BRANCH   3   6
ATOM      6  C   UNL d   1     -47.782  31.228  34.625  0.00  0.00     0.059 C 
BRANCH   6   7
ATOM      7  C   UNL d   1     -47.798  31.958  34.248  0.00  0.00     0.094 A 
ATOM      8  C   UNL d   1     -48.508  32.355  34.148  0.00  0.00     0.082 A 
ATOM      9  C   UNL d   1     -48.520  33.088  33.769  0.00  0.00     0.285 A 
ATOM     10  O   UNL d   1     -49.248  33.499  33.663  0.00  0.00    -0.265 OA
ATOM     11  N   UNL d   1     -47.805  33.415  33.493  0.00  0.00    -0.152 NA
ATOM     12  C   UNL d   1     -47.101  33.018  33.594  0.00  0.00     0.371 A 
ATOM     13  N   UNL d   1     -47.096  32.281  33.976  0.00  0.00    -0.191 NA
ATOM     14  O   UNL d   1     -46.398  33.352  33.316  0.00  0.00    -0.242 OA
ENDBRANCH   6   7
ENDBRANCH   3   6
BRANCH   1  15
ATOM     15  C   UNL d   1     -47.575  29.688  35.405  0.00  0.00     0.067 A 
ATOM     16  C   UNL d   1     -48.259  29.346  35.722  0.00  0.00     0.018 A 
ATOM     17  C   UNL d   1     -48.522  28.609  35.439  0.00  0.00     0.001 A 
ATOM     18  C   UNL d   1     -49.216  28.261  35.760  0.00  0.00     0.000 C 
ATOM     19  C   UNL d   1     -48.100  28.227  34.844  0.00  0.00     0.000 A 
ATOM     20  C   UNL d   1     -47.418  28.573  34.531  0.00  0.00     0.002 A 
ATOM     21  C   UNL d   1     -47.158  29.303  34.812  0.00  0.00     0.018 A 
ENDBRANCH   1  15
BRANCH   2  22
ATOM     22  S   UNL d   1     -46.715  29.893  36.914  0.00  0.00    -0.048 SA
BRANCH  22  23
ATOM     23  C   UNL d   1     -46.438  30.081  37.679  0.00  0.00     0.032 C 
ATOM     24  C   UNL d   1     -46.795  30.694  38.106  0.00  0.00     0.007 C 
ATOM     25  C   UNL d   1     -45.810  29.652  38.001  0.00  0.00     0.007 C 
ENDBRANCH  22  23
ENDBRANCH   2  22
TORSDOF 5
ENDMDL
MODEL 2
REMARK VINA RESULT:      76.7      0.983      2.362
REMARK  5 active torsions:
REMARK  status: ('A' for Active; 'I' for Inactive)
REMARK    1  A    between atoms: C_11  and  N_1 
REMARK    2  A    between atoms: S_14  and  C_2 
REMARK    3  A    between atoms: C_12  and  C_3 
REMARK    4  A    between atoms: C_8  and  C_12 
REMARK    5  A    between atoms: C_20  and  S_14 
ROOT
ATOM      1  N   UNL d   1     -47.794  30.062  35.227  0.00  0.00    -0.269 N 
ATOM      2  C   UNL d   1     -48.264  29.466  34.939  0.00  0.00     0.201 A 
ATOM      3  C   UNL d   1     -48.053  30.765  34.890  0.00  0.00     0.172 A 
ATOM      4  N   UNL d   1     -48.813  29.777  34.428  0.00  0.00    -0.121 NA
ATOM      5  N   UNL d   1     -48.682  30.590  34.397  0.00  0.00    -0.128 NA
ENDROOT
BRANCH   3   6
ATOM      6  C   UNL d   1     -47.684  31.464  35.076  0.00  0.00     0.059 C 
BRANCH   6   7
ATOM      7  C   UNL d   1     -47.688  32.081  34.534  0.00  0.00     0.094 A 
ATOM      8  C   UNL d   1     -48.393  32.445  34.328  0.00  0.00     0.082 A 
ATOM      9  C   UNL d   1     -48.393  33.064  33.783  0.00  0.00     0.285 A 
ATOM     10  O   UNL d   1     -49.116  33.441  33.569  0.00  0.00    -0.265 OA
ATOM     11  N   UNL d   1     -47.671  33.311  33.447  0.00  0.00    -0.152 NA
ATOM     12  C   UNL d   1     -46.972  32.947  33.653  0.00  0.00     0.371 A 
ATOM     13  N   UNL d   1     -46.979  32.324  34.203  0.00  0.00    -0.191 NA
ATOM     14  O   UNL d   1     -46.263  33.200  33.314  0.00  0.00    -0.242 OA
ENDBRANCH   6   7
ENDBRANCH   3   6
BRANCH   1  15
ATOM     15  C   UNL d   1     -47.182  29.946  35.757  0.00  0.00     0.067 A 
ATOM     16  C   UNL d   1     -47.283  30.152  36.553  0.00  0.00     0.018 A 
ATOM     17  C   UNL d   1     -46.660  30.034  37.093  0.00  0.00     0.001 A 
ATOM     18  C   UNL d   1     -46.762  30.242  37.900  0.00  0.00     0.000 C 
ATOM     19  C   UNL d   1     -45.948  29.715  36.830  0.00  0.00     0.000 A 
ATOM     20  C   UNL d   1     -45.853  29.511  36.035  0.00  0.00     0.002 A 
ATOM     21  C   UNL d   1     -46.469  29.628  35.501  0.00  0.00     0.018 A 
ENDBRANCH   1  15
BRANCH   2  22
ATOM     22  S   UNL d   1     -48.187  28.653  35.144  0.00  0.00    -0.048 SA
BRANCH  22  23
ATOM     23  C   UNL d   1     -48.822  28.131  34.996  0.00  0.00     0.032 C 
ATOM     24  C   UNL d   1     -48.842  27.698  34.291  0.00  0.00     0.007 C 
ATOM     25  C   UNL d   1     -49.423  28.054  35.557  0.00  0.00     0.007 C 
ENDBRANCH  22  23
ENDBRANCH   2  22
TORSDOF 5
ENDMDL
