MODEL 1
REMARK VINA RESULT:       3.0      0.000      0.000
REMARK  4 active torsions:
REMARK  status: ('A' for Active; 'I' for Inactive)
REMARK    1  A    between atoms: C_12  and  C_2 
REMARK    2  A    between atoms: N_9  and  C_3 
REMARK       I    between atoms: C_7  and  N_8 
REMARK    3  A    between atoms: C_10  and  C_7 
REMARK    4  A    between atoms: N_8  and  N_9 
ROOT
ATOM      1  C   UNL d   1     -41.373-122.379 -51.275  0.00  0.00     0.037 A 
ATOM      2  C   UNL d   1     -41.321-121.745 -51.805  0.00  0.00     0.101 A 
ATOM      3  C   UNL d   1     -41.403-122.673 -52.924  0.00  0.00     0.768 A 
ATOM      4  N   UNL d   1     -41.336-121.899 -52.615  0.00  0.00    -0.058 NA
ATOM      5  N   UNL d   1     -41.456-123.311 -52.368  0.00  0.00    -0.058 NA
ATOM      6  C   UNL d   1     -41.441-123.165 -51.563  0.00  0.00     0.101 A 
ATOM      7  C   UNL d   1     -41.361-122.267 -50.458  0.00  0.00     0.010 A 
ATOM      8  C   UNL d   1     -41.494-123.814 -51.021  0.00  0.00     0.020 A 
ATOM      9  C   UNL d   1     -41.412-122.883 -49.928  0.00  0.00     0.035 A 
ATOM     10  C   UNL d   1     -41.478-123.651 -50.221  0.00  0.00     0.008 A 
ATOM     11 BR   UNL d   1     -41.397-122.741 -49.084  0.00  0.00    -0.049 Br
ENDROOT
BRANCH   3  12
ATOM     12  N   UNL d   1     -41.419-122.835 -53.737  0.00  0.00     0.049 NA
BRANCH  12  13
ATOM     13  N   UNL d   1     -41.999-123.316 -54.064  0.00  0.00    -0.094 NA
ATOM     14  C   UNL d   1     -42.249-123.206 -54.817  0.00  0.00     0.273 C 
ATOM     15  O   UNL d   1     -42.837-123.711 -55.115  0.00  0.00    -0.269 OA
BRANCH  14  16
ATOM     16  C   UNL d   1     -41.931-122.609 -55.280  0.00  0.00     0.075 C 
ATOM     17  C   UNL d   1     -41.156-122.970 -55.211  0.00  0.00     0.009 C 
ATOM     18  C   UNL d   1     -42.689-122.276 -55.333  0.00  0.00     0.009 C 
ATOM     19  C   UNL d   1     -41.613-122.010 -55.743  0.00  0.00     0.009 C 
ENDBRANCH  14  16
ENDBRANCH  12  13
ENDBRANCH   3  12
BRANCH   2  20
ATOM     20  C   UNL d   1     -41.255-120.977 -51.549  0.00  0.00     0.018 A 
ATOM     21  C   UNL d   1     -41.211-120.790 -50.763  0.00  0.00     0.002 A 
ATOM     22  C   UNL d   1     -41.146-120.026 -50.511  0.00  0.00     0.000 A 
ATOM     23  C   UNL d   1     -41.123-119.422 -51.073  0.00  0.00     0.000 A 
ATOM     24  C   UNL d   1     -41.163-119.582 -51.834  0.00  0.00     0.000 A 
ATOM     25  C   UNL d   1     -41.231-120.364 -52.109  0.00  0.00     0.002 A 
ENDBRANCH   2  20
TORSDOF 4
ENDMDL
MODEL 2
REMARK VINA RESULT:       4.9      2.014      3.902
REMARK  4 active torsions:
REMARK  status: ('A' for Active; 'I' for Inactive)
REMARK    1  A    between atoms: C_12  and  C_2 
REMARK    2  A    between atoms: N_9  and  C_3 
REMARK       I    between atoms: C_7  and  N_8 
REMARK    3  A    between atoms: C_10  and  C_7 
REMARK    4  A    between atoms: N_8  and  N_9 
ROOT
ATOM      1  C   UNL d   1     -41.404-122.455 -52.840  0.00  0.00     0.037 A 
ATOM      2  C   UNL d   1     -41.403-121.944 -52.189  0.00  0.00     0.101 A 
ATOM      3  C   UNL d   1     -41.573-123.081 -51.295  0.00  0.00     0.768 A 
ATOM      4  N   UNL d   1     -41.487-122.260 -51.432  0.00  0.00    -0.058 NA
ATOM      5  N   UNL d   1     -41.572-123.590 -51.973  0.00  0.00    -0.058 NA
ATOM      6  C   UNL d   1     -41.490-123.283 -52.727  0.00  0.00     0.101 A 
ATOM      7  C   UNL d   1     -41.323-122.177 -53.612  0.00  0.00     0.010 A 
ATOM      8  C   UNL d   1     -41.491-123.806 -53.392  0.00  0.00     0.020 A 
ATOM      9  C   UNL d   1     -41.323-122.671 -54.260  0.00  0.00     0.035 A 
ATOM     10  C   UNL d   1     -41.407-123.482 -54.138  0.00  0.00     0.008 A 
ATOM     11 BR   UNL d   1     -41.237-122.359 -55.053  0.00  0.00    -0.049 Br
ENDROOT
BRANCH   3  12
ATOM     12  N   UNL d   1     -41.657-123.406 -50.537  0.00  0.00     0.049 NA
BRANCH  12  13
ATOM     13  N   UNL d   1     -42.396-123.479 -50.185  0.00  0.00    -0.094 NA
ATOM     14  C   UNL d   1     -42.475-123.471 -49.388  0.00  0.00     0.273 C 
ATOM     15  O   UNL d   1     -43.237-123.548 -49.067  0.00  0.00    -0.269 OA
BRANCH  14  16
ATOM     16  C   UNL d   1     -41.818-123.389 -48.904  0.00  0.00     0.075 C 
ATOM     17  C   UNL d   1     -41.344-123.817 -49.477  0.00  0.00     0.009 C 
ATOM     18  C   UNL d   1     -42.295-122.978 -48.364  0.00  0.00     0.009 C 
ATOM     19  C   UNL d   1     -41.161-123.307 -48.419  0.00  0.00     0.009 C 
ENDBRANCH  14  16
ENDBRANCH  12  13
ENDBRANCH   3  12
BRANCH   2  20
ATOM     20  C   UNL d   1     -41.322-121.140 -52.274  0.00  0.00     0.018 A 
ATOM     21  C   UNL d   1     -41.352-120.782 -53.000  0.00  0.00     0.002 A 
ATOM     22  C   UNL d   1     -41.271-119.983 -53.082  0.00  0.00     0.000 A 
ATOM     23  C   UNL d   1     -41.155-119.522 -52.408  0.00  0.00     0.000 A 
ATOM     24  C   UNL d   1     -41.123-119.849 -51.702  0.00  0.00     0.000 A 
ATOM     25  C   UNL d   1     -41.204-120.670 -51.600  0.00  0.00     0.002 A 
ENDBRANCH   2  20
TORSDOF 4
ENDMDL
