MODEL 1
REMARK VINA RESULT:      -3.6      0.000      0.000
REMARK  1 active torsions:
REMARK  status: ('A' for Active; 'I' for Inactive)
REMARK    1  A    between atoms: O_8  and  C_4 
ROOT
ATOM      1  C   UNL d   1      56.455  -0.604  32.485  0.00  0.00     0.021 A 
ATOM      2  C   UNL d   1      56.482   0.037  33.004  0.00  0.00     0.024 A 
ATOM      3  C   UNL d   1      55.964  -1.250  32.637  0.00  0.00     0.103 A 
ATOM      4  C   UNL d   1      56.018   0.037  33.680  0.00  0.00     0.094 A 
ATOM      5  C   UNL d   1      55.495  -1.254  33.317  0.00  0.00     0.023 A 
ATOM      6  C   UNL d   1      55.522  -0.613  33.835  0.00  0.00     0.026 A 
ATOM      7  N   UNL d   1      55.946  -1.889  32.108  0.00  0.00    -0.148 N 
ATOM      8  C   UNL d   1      56.921  -0.604  31.807  0.00  0.00     0.002 A 
ATOM      9  C   UNL d   1      56.975   0.675  32.843  0.00  0.00     0.002 A 
ATOM     10  C   UNL d   1      57.417   0.037  31.644  0.00  0.00     0.000 A 
ATOM     11  C   UNL d   1      57.444   0.678  32.163  0.00  0.00     0.000 A 
ENDROOT
BRANCH   4  12
ATOM     12  O   UNL d   1      56.045   0.681  34.201  0.00  0.00    -0.328 OA
ATOM     13  C   UNL d   1      55.633   0.654  34.909  0.00  0.00     0.181 C 
ENDBRANCH   4  12
TORSDOF 1
ENDMDL
MODEL 2
REMARK VINA RESULT:      -3.3      0.988      1.819
REMARK  1 active torsions:
REMARK  status: ('A' for Active; 'I' for Inactive)
REMARK    1  A    between atoms: O_8  and  C_4 
ROOT
ATOM      1  C   UNL d   1      56.613  -0.471  32.817  0.00  0.00     0.021 A 
ATOM      2  C   UNL d   1      56.022  -0.465  33.393  0.00  0.00     0.024 A 
ATOM      3  C   UNL d   1      57.213   0.096  32.821  0.00  0.00     0.103 A 
ATOM      4  C   UNL d   1      56.026   0.108  33.978  0.00  0.00     0.094 A 
ATOM      5  C   UNL d   1      57.220   0.676  33.409  0.00  0.00     0.023 A 
ATOM      6  C   UNL d   1      56.629   0.682  33.985  0.00  0.00     0.026 A 
ATOM      7  N   UNL d   1      57.802   0.079  32.237  0.00  0.00    -0.148 N 
ATOM      8  C   UNL d   1      56.609  -1.048  32.230  0.00  0.00     0.002 A 
ATOM      9  C   UNL d   1      55.430  -1.035  33.378  0.00  0.00     0.002 A 
ATOM     10  C   UNL d   1      56.014  -1.621  32.215  0.00  0.00     0.000 A 
ATOM     11  C   UNL d   1      55.423  -1.615  32.790  0.00  0.00     0.000 A 
ENDROOT
BRANCH   4  12
ATOM     12  O   UNL d   1      55.432   0.115  34.556  0.00  0.00    -0.328 OA
ATOM     13  C   UNL d   1      55.455   0.665  35.163  0.00  0.00     0.181 C 
ENDBRANCH   4  12
TORSDOF 1
ENDMDL
MODEL 3
REMARK VINA RESULT:      -3.0      9.466      9.871
REMARK  1 active torsions:
REMARK  status: ('A' for Active; 'I' for Inactive)
REMARK    1  A    between atoms: O_8  and  C_4 
ROOT
ATOM      1  C   UNL d   1      59.807  -8.921  35.336  0.00  0.00     0.021 A 
ATOM      2  C   UNL d   1      60.409  -8.693  34.819  0.00  0.00     0.024 A 
ATOM      3  C   UNL d   1      59.245  -9.482  35.110  0.00  0.00     0.103 A 
ATOM      4  C   UNL d   1      60.454  -9.024  34.071  0.00  0.00     0.094 A 
ATOM      5  C   UNL d   1      59.287  -9.818  34.357  0.00  0.00     0.023 A 
ATOM      6  C   UNL d   1      59.889  -9.590  33.840  0.00  0.00     0.026 A 
ATOM      7  N   UNL d   1      58.646  -9.703  35.639  0.00  0.00    -0.148 N 
ATOM      8  C   UNL d   1      59.763  -8.588  36.087  0.00  0.00     0.002 A 
ATOM      9  C   UNL d   1      60.963  -8.133  35.056  0.00  0.00     0.002 A 
ATOM     10  C   UNL d   1      60.319  -8.025  36.326  0.00  0.00     0.000 A 
ATOM     11  C   UNL d   1      60.920  -7.797  35.809  0.00  0.00     0.000 A 
ENDROOT
BRANCH   4  12
ATOM     12  O   UNL d   1      61.058  -8.795  33.552  0.00  0.00    -0.328 OA
ATOM     13  C   UNL d   1      61.133  -9.161  32.823  0.00  0.00     0.181 C 
ENDBRANCH   4  12
TORSDOF 1
ENDMDL
MODEL 4
REMARK VINA RESULT:      -2.1      5.581      6.108
REMARK  1 active torsions:
REMARK  status: ('A' for Active; 'I' for Inactive)
REMARK    1  A    between atoms: O_8  and  C_4 
ROOT
ATOM      1  C   UNL d   1      59.962  -2.977  28.983  0.00  0.00     0.021 A 
ATOM      2  C   UNL d   1      59.565  -2.272  28.824  0.00  0.00     0.024 A 
ATOM      3  C   UNL d   1      60.744  -2.972  29.247  0.00  0.00     0.103 A 
ATOM      4  C   UNL d   1      59.946  -1.554  28.927  0.00  0.00     0.094 A 
ATOM      5  C   UNL d   1      61.132  -2.251  29.353  0.00  0.00     0.023 A 
ATOM      6  C   UNL d   1      60.735  -1.545  29.194  0.00  0.00     0.026 A 
ATOM      7  N   UNL d   1      61.132  -3.688  29.404  0.00  0.00    -0.148 N 
ATOM      8  C   UNL d   1      59.578  -3.697  28.879  0.00  0.00     0.002 A 
ATOM      9  C   UNL d   1      58.786  -2.290  28.561  0.00  0.00     0.002 A 
ATOM     10  C   UNL d   1      58.795  -3.717  28.615  0.00  0.00     0.000 A 
ATOM     11  C   UNL d   1      58.398  -3.011  28.456  0.00  0.00     0.000 A 
ENDROOT
BRANCH   4  12
ATOM     12  O   UNL d   1      59.548  -0.845  28.767  0.00  0.00    -0.328 OA
ATOM     13  C   UNL d   1      59.936  -0.128  28.847  0.00  0.00     0.181 C 
ENDBRANCH   4  12
TORSDOF 1
ENDMDL
MODEL 5
REMARK VINA RESULT:      -2.1      4.270      5.328
REMARK  1 active torsions:
REMARK  status: ('A' for Active; 'I' for Inactive)
REMARK    1  A    between atoms: O_8  and  C_4 
ROOT
ATOM      1  C   UNL d   1      58.885  -0.899  29.521  0.00  0.00     0.021 A 
ATOM      2  C   UNL d   1      59.585  -0.855  29.086  0.00  0.00     0.024 A 
ATOM      3  C   UNL d   1      58.579  -0.231  29.898  0.00  0.00     0.103 A 
ATOM      4  C   UNL d   1      59.986  -0.144  29.025  0.00  0.00     0.094 A 
ATOM      5  C   UNL d   1      58.980   0.488  29.838  0.00  0.00     0.023 A 
ATOM      6  C   UNL d   1      59.680   0.532  29.403  0.00  0.00     0.026 A 
ATOM      7  N   UNL d   1      57.874  -0.287  30.331  0.00  0.00    -0.148 N 
ATOM      8  C   UNL d   1      58.482  -1.614  29.582  0.00  0.00     0.002 A 
ATOM      9  C   UNL d   1      59.879  -1.528  28.715  0.00  0.00     0.002 A 
ATOM     10  C   UNL d   1      58.778  -2.290  29.210  0.00  0.00     0.000 A 
ATOM     11  C   UNL d   1      59.478  -2.247  28.775  0.00  0.00     0.000 A 
ENDROOT
BRANCH   4  12
ATOM     12  O   UNL d   1      60.689  -0.100  28.588  0.00  0.00    -0.328 OA
ATOM     13  C   UNL d   1      61.055   0.623  28.469  0.00  0.00     0.181 C 
ENDBRANCH   4  12
TORSDOF 1
ENDMDL
MODEL 6
REMARK VINA RESULT:      -2.0      4.672      5.625
REMARK  1 active torsions:
REMARK  status: ('A' for Active; 'I' for Inactive)
REMARK    1  A    between atoms: O_8  and  C_4 
ROOT
ATOM      1  C   UNL d   1      59.584  -0.708  29.136  0.00  0.00     0.021 A 
ATOM      2  C   UNL d   1      59.977  -1.402  28.922  0.00  0.00     0.024 A 
ATOM      3  C   UNL d   1      58.809  -0.732  29.420  0.00  0.00     0.103 A 
ATOM      4  C   UNL d   1      59.599  -2.125  28.990  0.00  0.00     0.094 A 
ATOM      5  C   UNL d   1      58.425  -1.459  29.490  0.00  0.00     0.023 A 
ATOM      6  C   UNL d   1      58.817  -2.152  29.276  0.00  0.00     0.026 A 
ATOM      7  N   UNL d   1      58.425  -0.028  29.632  0.00  0.00    -0.148 N 
ATOM      8  C   UNL d   1      59.965   0.018  29.067  0.00  0.00     0.002 A 
ATOM      9  C   UNL d   1      60.749  -1.365  28.640  0.00  0.00     0.002 A 
ATOM     10  C   UNL d   1      60.741   0.055  28.783  0.00  0.00     0.000 A 
ATOM     11  C   UNL d   1      61.133  -0.638  28.570  0.00  0.00     0.000 A 
ENDROOT
BRANCH   4  12
ATOM     12  O   UNL d   1      59.993  -2.822  28.775  0.00  0.00    -0.328 OA
ATOM     13  C   UNL d   1      59.628  -3.548  28.875  0.00  0.00     0.181 C 
ENDBRANCH   4  12
TORSDOF 1
ENDMDL
MODEL 7
REMARK VINA RESULT:      -2.0      1.353      2.189
REMARK  1 active torsions:
REMARK  status: ('A' for Active; 'I' for Inactive)
REMARK    1  A    between atoms: O_8  and  C_4 
ROOT
ATOM      1  C   UNL d   1      56.018  -0.294  33.548  0.00  0.00     0.021 A 
ATOM      2  C   UNL d   1      56.702  -0.168  33.104  0.00  0.00     0.024 A 
ATOM      3  C   UNL d   1      55.928   0.050  34.292  0.00  0.00     0.103 A 
ATOM      4  C   UNL d   1      57.302   0.304  33.401  0.00  0.00     0.094 A 
ATOM      5  C   UNL d   1      56.531   0.527  34.595  0.00  0.00     0.023 A 
ATOM      6  C   UNL d   1      57.215   0.653  34.151  0.00  0.00     0.026 A 
ATOM      7  N   UNL d   1      55.236  -0.084  34.729  0.00  0.00    -0.148 N 
ATOM      8  C   UNL d   1      55.416  -0.769  33.249  0.00  0.00     0.002 A 
ATOM      9  C   UNL d   1      56.781  -0.517  32.363  0.00  0.00     0.002 A 
ATOM     10  C   UNL d   1      55.494  -1.120  32.505  0.00  0.00     0.000 A 
ATOM     11  C   UNL d   1      56.178  -0.994  32.061  0.00  0.00     0.000 A 
ENDROOT
BRANCH   4  12
ATOM     12  O   UNL d   1      57.990   0.430  32.955  0.00  0.00    -0.328 OA
ATOM     13  C   UNL d   1      58.681   0.668  33.325  0.00  0.00     0.181 C 
ENDBRANCH   4  12
TORSDOF 1
ENDMDL
MODEL 8
REMARK VINA RESULT:      -1.9      3.953      5.072
REMARK  1 active torsions:
REMARK  status: ('A' for Active; 'I' for Inactive)
REMARK    1  A    between atoms: O_8  and  C_4 
ROOT
ATOM      1  C   UNL d   1      59.965  -1.165  28.837  0.00  0.00     0.021 A 
ATOM      2  C   UNL d   1      59.622  -0.514  29.212  0.00  0.00     0.024 A 
ATOM      3  C   UNL d   1      59.587  -1.899  28.835  0.00  0.00     0.103 A 
ATOM      4  C   UNL d   1      58.898  -0.592  29.588  0.00  0.00     0.094 A 
ATOM      5  C   UNL d   1      58.857  -1.981  29.213  0.00  0.00     0.023 A 
ATOM      6  C   UNL d   1      58.515  -1.330  29.587  0.00  0.00     0.026 A 
ATOM      7  N   UNL d   1      59.942  -2.545  28.455  0.00  0.00    -0.148 N 
ATOM      8  C   UNL d   1      60.692  -1.086  28.460  0.00  0.00     0.002 A 
ATOM      9  C   UNL d   1      60.008   0.212  29.207  0.00  0.00     0.002 A 
ATOM     10  C   UNL d   1      61.081  -0.356  28.455  0.00  0.00     0.000 A 
ATOM     11  C   UNL d   1      60.738   0.294  28.830  0.00  0.00     0.000 A 
ENDROOT
BRANCH   4  12
ATOM     12  O   UNL d   1      58.554   0.062  29.964  0.00  0.00    -0.328 OA
ATOM     13  C   UNL d   1      57.863  -0.029  30.396  0.00  0.00     0.181 C 
ENDBRANCH   4  12
TORSDOF 1
ENDMDL
MODEL 9
REMARK VINA RESULT:      -1.8      2.536      3.979
REMARK  1 active torsions:
REMARK  status: ('A' for Active; 'I' for Inactive)
REMARK    1  A    between atoms: O_8  and  C_4 
ROOT
ATOM      1  C   UNL d   1      58.308   0.572  31.361  0.00  0.00     0.021 A 
ATOM      2  C   UNL d   1      57.826   0.543  30.692  0.00  0.00     0.024 A 
ATOM      3  C   UNL d   1      59.127   0.641  31.289  0.00  0.00     0.103 A 
ATOM      4  C   UNL d   1      58.158   0.582  29.945  0.00  0.00     0.094 A 
ATOM      5  C   UNL d   1      59.467   0.682  30.537  0.00  0.00     0.023 A 
ATOM      6  C   UNL d   1      58.984   0.652  29.868  0.00  0.00     0.026 A 
ATOM      7  N   UNL d   1      59.601   0.670  31.969  0.00  0.00    -0.148 N 
ATOM      8  C   UNL d   1      57.972   0.532  32.111  0.00  0.00     0.002 A 
ATOM      9  C   UNL d   1      57.011   0.473  30.777  0.00  0.00     0.002 A 
ATOM     10  C   UNL d   1      57.153   0.462  32.198  0.00  0.00     0.000 A 
ATOM     11  C   UNL d   1      56.671   0.433  31.529  0.00  0.00     0.000 A 
ENDROOT
BRANCH   4  12
ATOM     12  O   UNL d   1      57.674   0.553  29.273  0.00  0.00    -0.328 OA
ATOM     13  C   UNL d   1      57.994   0.682  28.529  0.00  0.00     0.181 C 
ENDBRANCH   4  12
TORSDOF 1
ENDMDL
