MODEL 1
REMARK VINA RESULT:      -7.1      0.000      0.000
REMARK  4 active torsions:
REMARK  status: ('A' for Active; 'I' for Inactive)
REMARK    1  A    between atoms: C_2  and  N_1 
REMARK       I    between atoms: C_3  and  N_1 
REMARK    2  A    between atoms: N_4  and  C_2 
REMARK    3  A    between atoms: C_7  and  C_3 
REMARK    4  A    between atoms: C_8  and  N_4 
ROOT
ATOM      1  C   UNL d   1     -47.848  12.177  23.381  0.00  0.00     0.179 C 
ATOM      2  S   UNL d   1     -47.858  11.353  23.460  0.00  0.00    -0.040 SA
ENDROOT
BRANCH   1   3
ATOM      3  N   UNL d   1     -48.458  12.566  22.984  0.00  0.00    -0.299 N 
ATOM      4  C   UNL d   1     -49.222  12.297  23.077  0.00  0.00     0.259 C 
ATOM      5  O   UNL d   1     -49.385  11.645  23.560  0.00  0.00    -0.267 OA
ATOM      6  H   UNL d   1     -48.297  13.208  22.507  0.00  0.00     0.171 HD
BRANCH   4   7
ATOM      7  C   UNL d   1     -49.844  12.686  22.677  0.00  0.00     0.056 A 
ATOM      8  C   UNL d   1     -50.326  13.206  23.082  0.00  0.00     0.005 A 
ATOM      9  C   UNL d   1     -50.941  13.593  22.693  0.00  0.00     0.000 A 
ATOM     10  C   UNL d   1     -51.064  13.450  21.890  0.00  0.00     0.000 A 
ATOM     11  C   UNL d   1     -50.582  12.931  21.485  0.00  0.00     0.000 A 
ATOM     12  C   UNL d   1     -49.967  12.543  21.874  0.00  0.00     0.005 A 
ENDBRANCH   4   7
ENDBRANCH   1   3
BRANCH   1  13
ATOM     13  N   UNL d   1     -47.227  12.619  23.698  0.00  0.00    -0.332 N 
ATOM     14  H   UNL d   1     -47.264  12.888  24.468  0.00  0.00     0.168 HD
BRANCH  13  15
ATOM     15  C   UNL d   1     -46.575  12.783  23.229  0.00  0.00     0.058 A 
ATOM     16  C   UNL d   1     -46.011  12.198  23.073  0.00  0.00     0.018 A 
ATOM     17  C   UNL d   1     -45.364  12.383  22.601  0.00  0.00     0.013 A 
ATOM     18  C   UNL d   1     -45.265  13.128  22.283  0.00  0.00     0.058 A 
ATOM     19  C   UNL d   1     -45.829  13.713  22.439  0.00  0.00     0.013 A 
ATOM     20 CL   UNL d   1     -44.622  13.309  21.814  0.00  0.00    -0.082 Cl
ATOM     21  C   UNL d   1     -46.485  13.545  22.911  0.00  0.00     0.018 A 
ENDBRANCH  13  15
ENDBRANCH   1  13
TORSDOF 4
ENDMDL
MODEL 2
REMARK VINA RESULT:      -7.1      1.918      2.276
REMARK  4 active torsions:
REMARK  status: ('A' for Active; 'I' for Inactive)
REMARK    1  A    between atoms: C_2  and  N_1 
REMARK       I    between atoms: C_3  and  N_1 
REMARK    2  A    between atoms: N_4  and  C_2 
REMARK    3  A    between atoms: C_7  and  C_3 
REMARK    4  A    between atoms: C_8  and  N_4 
ROOT
ATOM      1  C   UNL d   1     -47.868  13.665  22.683  0.00  0.00     0.179 C 
ATOM      2  S   UNL d   1     -47.780  13.440  21.891  0.00  0.00    -0.040 SA
ENDROOT
BRANCH   1   3
ATOM      3  N   UNL d   1     -48.589  13.959  22.956  0.00  0.00    -0.299 N 
ATOM      4  C   UNL d   1     -48.882  14.646  22.631  0.00  0.00     0.259 C 
ATOM      5  O   UNL d   1     -48.465  15.046  22.038  0.00  0.00    -0.267 OA
ATOM      6  H   UNL d   1     -49.000  13.565  23.541  0.00  0.00     0.171 HD
BRANCH   4   7
ATOM      7  C   UNL d   1     -49.612  14.948  22.904  0.00  0.00     0.056 A 
ATOM      8  C   UNL d   1     -49.624  15.575  23.426  0.00  0.00     0.005 A 
ATOM      9  C   UNL d   1     -50.342  15.877  23.698  0.00  0.00     0.000 A 
ATOM     10  C   UNL d   1     -51.048  15.538  23.436  0.00  0.00     0.000 A 
ATOM     11  C   UNL d   1     -51.036  14.911  22.914  0.00  0.00     0.000 A 
ATOM     12  C   UNL d   1     -50.318  14.609  22.642  0.00  0.00     0.005 A 
ENDBRANCH   4   7
ENDBRANCH   1   3
BRANCH   1  13
ATOM     13  N   UNL d   1     -47.235  13.598  23.208  0.00  0.00    -0.332 N 
ATOM     14  H   UNL d   1     -46.966  14.252  23.616  0.00  0.00     0.168 HD
BRANCH  13  15
ATOM     15  C   UNL d   1     -46.881  12.866  23.314  0.00  0.00     0.058 A 
ATOM     16  C   UNL d   1     -46.076  12.760  23.149  0.00  0.00     0.018 A 
ATOM     17  C   UNL d   1     -45.741  12.019  23.262  0.00  0.00     0.013 A 
ATOM     18  C   UNL d   1     -46.180  11.386  23.533  0.00  0.00     0.058 A 
ATOM     19  C   UNL d   1     -46.984  11.493  23.698  0.00  0.00     0.013 A 
ATOM     20 CL   UNL d   1     -45.843  10.651  23.644  0.00  0.00    -0.082 Cl
ATOM     21  C   UNL d   1     -47.338  12.230  23.590  0.00  0.00     0.018 A 
ENDBRANCH  13  15
ENDBRANCH   1  13
TORSDOF 4
ENDMDL
MODEL 3
REMARK VINA RESULT:      -6.2      2.422      4.257
REMARK  4 active torsions:
REMARK  status: ('A' for Active; 'I' for Inactive)
REMARK    1  A    between atoms: C_2  and  N_1 
REMARK       I    between atoms: C_3  and  N_1 
REMARK    2  A    between atoms: N_4  and  C_2 
REMARK    3  A    between atoms: C_7  and  C_3 
REMARK    4  A    between atoms: C_8  and  N_4 
ROOT
ATOM      1  C   UNL d   1     -47.532  14.123  22.614  0.00  0.00     0.179 C 
ATOM      2  S   UNL d   1     -47.067  14.731  22.930  0.00  0.00    -0.040 SA
ENDROOT
BRANCH   1   3
ATOM      3  N   UNL d   1     -47.390  13.338  22.825  0.00  0.00    -0.299 N 
ATOM      4  C   UNL d   1     -46.638  13.120  23.051  0.00  0.00     0.259 C 
ATOM      5  O   UNL d   1     -46.024  13.675  23.069  0.00  0.00    -0.267 OA
ATOM      6  H   UNL d   1     -47.996  12.790  22.808  0.00  0.00     0.171 HD
BRANCH   4   7
ATOM      7  C   UNL d   1     -46.489  12.327  23.266  0.00  0.00     0.056 A 
ATOM      8  C   UNL d   1     -47.107  11.841  23.485  0.00  0.00     0.005 A 
ATOM      9  C   UNL d   1     -46.966  11.057  23.698  0.00  0.00     0.000 A 
ATOM     10  C   UNL d   1     -46.193  10.768  23.687  0.00  0.00     0.000 A 
ATOM     11  C   UNL d   1     -45.575  11.254  23.467  0.00  0.00     0.000 A 
ATOM     12  C   UNL d   1     -45.716  12.038  23.254  0.00  0.00     0.005 A 
ENDBRANCH   4   7
ENDBRANCH   1   3
BRANCH   1  13
ATOM     13  N   UNL d   1     -48.141  14.295  22.085  0.00  0.00    -0.332 N 
ATOM     14  H   UNL d   1     -48.029  14.200  21.282  0.00  0.00     0.168 HD
BRANCH  13  15
ATOM     15  C   UNL d   1     -48.859  14.563  22.377  0.00  0.00     0.058 A 
ATOM     16  C   UNL d   1     -48.916  15.306  22.738  0.00  0.00     0.018 A 
ATOM     17  C   UNL d   1     -49.644  15.556  23.024  0.00  0.00     0.013 A 
ATOM     18  C   UNL d   1     -50.312  15.090  22.962  0.00  0.00     0.058 A 
ATOM     19  C   UNL d   1     -50.254  14.347  22.602  0.00  0.00     0.013 A 
ATOM     20 CL   UNL d   1     -51.034  15.341  23.247  0.00  0.00    -0.082 Cl
ATOM     21  C   UNL d   1     -49.531  14.080  22.309  0.00  0.00     0.018 A 
ENDBRANCH  13  15
ENDBRANCH   1  13
TORSDOF 4
ENDMDL
MODEL 4
REMARK VINA RESULT:      -6.1      8.639      9.913
REMARK  4 active torsions:
REMARK  status: ('A' for Active; 'I' for Inactive)
REMARK    1  A    between atoms: C_2  and  N_1 
REMARK       I    between atoms: C_3  and  N_1 
REMARK    2  A    between atoms: N_4  and  C_2 
REMARK    3  A    between atoms: C_7  and  C_3 
REMARK    4  A    between atoms: C_8  and  N_4 
ROOT
ATOM      1  C   UNL d   1     -40.463  14.962  19.030  0.00  0.00     0.179 C 
ATOM      2  S   UNL d   1     -40.933  15.606  18.806  0.00  0.00    -0.040 SA
ENDROOT
BRANCH   1   3
ATOM      3  N   UNL d   1     -39.857  14.696  18.536  0.00  0.00    -0.299 N 
ATOM      4  C   UNL d   1     -40.052  14.344  17.828  0.00  0.00     0.259 C 
ATOM      5  O   UNL d   1     -40.844  14.253  17.604  0.00  0.00    -0.267 OA
ATOM      6  H   UNL d   1     -39.077  14.786  18.757  0.00  0.00     0.171 HD
BRANCH   4   7
ATOM      7  C   UNL d   1     -39.443  14.074  17.325  0.00  0.00     0.056 A 
ATOM      8  C   UNL d   1     -39.091  13.351  17.463  0.00  0.00     0.005 A 
ATOM      9  C   UNL d   1     -38.489  13.078  16.969  0.00  0.00     0.000 A 
ATOM     10  C   UNL d   1     -38.246  13.545  16.334  0.00  0.00     0.000 A 
ATOM     11  C   UNL d   1     -38.598  14.268  16.195  0.00  0.00     0.000 A 
ATOM     12  C   UNL d   1     -39.200  14.541  16.689  0.00  0.00     0.005 A 
ENDBRANCH   4   7
ENDBRANCH   1   3
BRANCH   1  13
ATOM     13  N   UNL d   1     -40.596  14.578  19.748  0.00  0.00    -0.332 N 
ATOM     14  H   UNL d   1     -41.022  13.883  19.772  0.00  0.00     0.168 HD
BRANCH  13  15
ATOM     15  C   UNL d   1     -40.294  14.906  20.436  0.00  0.00     0.058 A 
ATOM     16  C   UNL d   1     -40.607  15.610  20.740  0.00  0.00     0.018 A 
ATOM     17  C   UNL d   1     -40.291  15.921  21.431  0.00  0.00     0.013 A 
ATOM     18  C   UNL d   1     -39.676  15.556  21.824  0.00  0.00     0.058 A 
ATOM     19  C   UNL d   1     -39.363  14.852  21.520  0.00  0.00     0.013 A 
ATOM     20 CL   UNL d   1     -39.363  15.868  22.511  0.00  0.00    -0.082 Cl
ATOM     21  C   UNL d   1     -39.669  14.524  20.828  0.00  0.00     0.018 A 
ENDBRANCH  13  15
ENDBRANCH   1  13
TORSDOF 4
ENDMDL
MODEL 5
REMARK VINA RESULT:      -5.9      2.206      4.346
REMARK  4 active torsions:
REMARK  status: ('A' for Active; 'I' for Inactive)
REMARK    1  A    between atoms: C_2  and  N_1 
REMARK       I    between atoms: C_3  and  N_1 
REMARK    2  A    between atoms: N_4  and  C_2 
REMARK    3  A    between atoms: C_7  and  C_3 
REMARK    4  A    between atoms: C_8  and  N_4 
ROOT
ATOM      1  C   UNL d   1     -48.255  14.136  22.560  0.00  0.00     0.179 C 
ATOM      2  S   UNL d   1     -48.157  14.867  22.937  0.00  0.00    -0.040 SA
ENDROOT
BRANCH   1   3
ATOM      3  N   UNL d   1     -47.640  13.585  22.553  0.00  0.00    -0.299 N 
ATOM      4  C   UNL d   1     -46.873  13.851  22.625  0.00  0.00     0.259 C 
ATOM      5  O   UNL d   1     -46.710  14.659  22.704  0.00  0.00    -0.267 OA
ATOM      6  H   UNL d   1     -47.801  12.789  22.476  0.00  0.00     0.171 HD
BRANCH   4   7
ATOM      7  C   UNL d   1     -46.247  13.298  22.619  0.00  0.00     0.056 A 
ATOM      8  C   UNL d   1     -46.244  12.680  23.152  0.00  0.00     0.005 A 
ATOM      9  C   UNL d   1     -45.628  12.131  23.150  0.00  0.00     0.000 A 
ATOM     10  C   UNL d   1     -45.016  12.213  22.603  0.00  0.00     0.000 A 
ATOM     11  C   UNL d   1     -45.019  12.830  22.070  0.00  0.00     0.000 A 
ATOM     12  C   UNL d   1     -45.635  13.379  22.072  0.00  0.00     0.005 A 
ENDBRANCH   4   7
ENDBRANCH   1   3
BRANCH   1  13
ATOM     13  N   UNL d   1     -48.967  13.951  22.188  0.00  0.00    -0.332 N 
ATOM     14  H   UNL d   1     -49.150  14.274  21.462  0.00  0.00     0.168 HD
BRANCH  13  15
ATOM     15  C   UNL d   1     -49.489  13.438  22.559  0.00  0.00     0.058 A 
ATOM     16  C   UNL d   1     -49.640  12.689  22.240  0.00  0.00     0.018 A 
ATOM     17  C   UNL d   1     -50.166  12.189  22.627  0.00  0.00     0.013 A 
ATOM     18  C   UNL d   1     -50.542  12.414  23.316  0.00  0.00     0.058 A 
ATOM     19  C   UNL d   1     -50.390  13.163  23.634  0.00  0.00     0.013 A 
ATOM     20 CL   UNL d   1     -51.063  11.916  23.698  0.00  0.00    -0.082 Cl
ATOM     21  C   UNL d   1     -49.865  13.677  23.259  0.00  0.00     0.018 A 
ENDBRANCH  13  15
ENDBRANCH   1  13
TORSDOF 4
ENDMDL
MODEL 6
REMARK VINA RESULT:      -5.8      8.915      9.782
REMARK  4 active torsions:
REMARK  status: ('A' for Active; 'I' for Inactive)
REMARK    1  A    between atoms: C_2  and  N_1 
REMARK       I    between atoms: C_3  and  N_1 
REMARK    2  A    between atoms: N_4  and  C_2 
REMARK    3  A    between atoms: C_7  and  C_3 
REMARK    4  A    between atoms: C_8  and  N_4 
ROOT
ATOM      1  C   UNL d   1     -40.283  14.982  19.053  0.00  0.00     0.179 C 
ATOM      2  S   UNL d   1     -40.574  15.738  18.879  0.00  0.00    -0.040 SA
ENDROOT
BRANCH   1   3
ATOM      3  N   UNL d   1     -39.860  14.848  19.749  0.00  0.00    -0.299 N 
ATOM      4  C   UNL d   1     -40.230  14.972  20.464  0.00  0.00     0.259 C 
ATOM      5  O   UNL d   1     -41.017  15.228  20.496  0.00  0.00    -0.267 OA
ATOM      6  H   UNL d   1     -39.085  14.596  19.718  0.00  0.00     0.171 HD
BRANCH   4   7
ATOM      7  C   UNL d   1     -39.806  14.838  21.172  0.00  0.00     0.056 A 
ATOM      8  C   UNL d   1     -39.450  15.463  21.558  0.00  0.00     0.005 A 
ATOM      9  C   UNL d   1     -39.030  15.336  22.257  0.00  0.00     0.000 A 
ATOM     10  C   UNL d   1     -38.975  14.571  22.562  0.00  0.00     0.000 A 
ATOM     11  C   UNL d   1     -39.332  13.947  22.176  0.00  0.00     0.000 A 
ATOM     12  C   UNL d   1     -39.751  14.073  21.477  0.00  0.00     0.005 A 
ENDBRANCH   4   7
ENDBRANCH   1   3
BRANCH   1  13
ATOM     13  N   UNL d   1     -40.414  14.355  18.533  0.00  0.00    -0.332 N 
ATOM     14  H   UNL d   1     -41.036  13.841  18.654  0.00  0.00     0.168 HD
BRANCH  13  15
ATOM     15  C   UNL d   1     -39.909  14.256  17.894  0.00  0.00     0.058 A 
ATOM     16  C   UNL d   1     -39.934  14.780  17.253  0.00  0.00     0.018 A 
ATOM     17  C   UNL d   1     -39.420  14.663  16.623  0.00  0.00     0.013 A 
ATOM     18  C   UNL d   1     -38.888  14.045  16.613  0.00  0.00     0.058 A 
ATOM     19  C   UNL d   1     -38.863  13.521  17.253  0.00  0.00     0.013 A 
ATOM     20 CL   UNL d   1     -38.379  13.931  15.985  0.00  0.00    -0.082 Cl
ATOM     21  C   UNL d   1     -39.372  13.623  17.895  0.00  0.00     0.018 A 
ENDBRANCH  13  15
ENDBRANCH   1  13
TORSDOF 4
ENDMDL
MODEL 7
REMARK VINA RESULT:      -5.2      8.762      9.371
REMARK  4 active torsions:
REMARK  status: ('A' for Active; 'I' for Inactive)
REMARK    1  A    between atoms: C_2  and  N_1 
REMARK       I    between atoms: C_3  and  N_1 
REMARK    2  A    between atoms: N_4  and  C_2 
REMARK    3  A    between atoms: C_7  and  C_3 
REMARK    4  A    between atoms: C_8  and  N_4 
ROOT
ATOM      1  C   UNL d   1     -40.196  14.783  20.539  0.00  0.00     0.179 C 
ATOM      2  S   UNL d   1     -40.937  14.545  20.822  0.00  0.00    -0.040 SA
ENDROOT
BRANCH   1   3
ATOM      3  N   UNL d   1     -40.037  14.775  19.729  0.00  0.00    -0.299 N 
ATOM      4  C   UNL d   1     -40.486  15.244  19.236  0.00  0.00     0.259 C 
ATOM      5  O   UNL d   1     -41.091  15.721  19.539  0.00  0.00    -0.267 OA
ATOM      6  H   UNL d   1     -39.441  14.305  19.430  0.00  0.00     0.171 HD
BRANCH   4   7
ATOM      7  C   UNL d   1     -40.330  15.241  18.415  0.00  0.00     0.056 A 
ATOM      8  C   UNL d   1     -40.469  14.566  17.977  0.00  0.00     0.005 A 
ATOM      9  C   UNL d   1     -40.317  14.557  17.166  0.00  0.00     0.000 A 
ATOM     10  C   UNL d   1     -40.022  15.237  16.803  0.00  0.00     0.000 A 
ATOM     11  C   UNL d   1     -39.882  15.911  17.241  0.00  0.00     0.000 A 
ATOM     12  C   UNL d   1     -40.034  15.920  18.052  0.00  0.00     0.005 A 
ENDBRANCH   4   7
ENDBRANCH   1   3
BRANCH   1  13
ATOM     13  N   UNL d   1     -39.609  15.030  21.063  0.00  0.00    -0.332 N 
ATOM     14  H   UNL d   1     -39.451  15.825  21.160  0.00  0.00     0.168 HD
BRANCH  13  15
ATOM     15  C   UNL d   1     -39.187  14.467  21.484  0.00  0.00     0.058 A 
ATOM     16  C   UNL d   1     -38.522  14.103  21.151  0.00  0.00     0.018 A 
ATOM     17  C   UNL d   1     -38.114  13.541  21.590  0.00  0.00     0.013 A 
ATOM     18  C   UNL d   1     -38.347  13.333  22.344  0.00  0.00     0.058 A 
ATOM     19  C   UNL d   1     -39.012  13.697  22.676  0.00  0.00     0.013 A 
ATOM     20 CL   UNL d   1     -37.940  12.775  22.777  0.00  0.00    -0.082 Cl
ATOM     21  C   UNL d   1     -39.435  14.264  22.250  0.00  0.00     0.018 A 
ENDBRANCH  13  15
ENDBRANCH   1  13
TORSDOF 4
ENDMDL
