MODEL 1
REMARK VINA RESULT:      33.9      0.000      0.000
REMARK  5 active torsions:
REMARK  status: ('A' for Active; 'I' for Inactive)
REMARK    1  A    between atoms: N_3  and  C_1 
REMARK    2  A    between atoms: C_12  and  N_2 
REMARK       I    between atoms: C_5  and  N_3 
REMARK    3  A    between atoms: C_8  and  C_5 
REMARK    4  A    between atoms: C_15  and  C_12 
REMARK    5  A    between atoms: O_22  and  C_15 
ROOT
ATOM      1  C   UNL d   1      14.411  13.710  -2.018  0.00  0.00     0.183 A 
ATOM      2  N   UNL d   1      14.630  13.580  -1.236  0.00  0.00    -0.280 N 
ATOM      3  S   UNL d   1      14.543  14.507  -2.192  0.00  0.00    -0.048 SA
ATOM      4  C   UNL d   1      14.900  14.296  -0.917  0.00  0.00     0.072 A 
ATOM      5  C   UNL d   1      14.846  14.871  -1.510  0.00  0.00     0.048 A 
ATOM      6  C   UNL d   1      15.187  14.499  -0.169  0.00  0.00     0.018 A 
ATOM      7  C   UNL d   1      15.078  15.649  -1.355  0.00  0.00     0.008 A 
ATOM      8  C   UNL d   1      15.419  15.277  -0.014  0.00  0.00     0.002 A 
ATOM      9  C   UNL d   1      15.365  15.852  -0.607  0.00  0.00     0.001 A 
ATOM     10  C   UNL d   1      15.594  16.624  -0.458  0.00  0.00     0.000 C 
ENDROOT
BRANCH   1  11
ATOM     11  N   UNL d   1      14.111  13.137  -2.535  0.00  0.00    -0.183 NA
ATOM     12  C   UNL d   1      13.724  13.374  -3.226  0.00  0.00     0.287 C 
ATOM     13  O   UNL d   1      13.639  14.178  -3.394  0.00  0.00    -0.265 OA
BRANCH  12  14
ATOM     14  C   UNL d   1      13.426  12.815  -3.740  0.00  0.00     0.088 A 
ATOM     15  S   UNL d   1      13.576  12.766  -4.557  0.00  0.00    -0.071 SA
ATOM     16  C   UNL d   1      13.167  12.126  -4.852  0.00  0.00     0.087 A 
ATOM     17 CL   UNL d   1      13.149  11.863  -5.629  0.00  0.00    -0.075 Cl
ATOM     18  C   UNL d   1      12.769  11.779  -4.230  0.00  0.00     0.019 A 
ATOM     19  C   UNL d   1      12.929  12.203  -3.551  0.00  0.00     0.013 A 
ENDBRANCH  12  14
ENDBRANCH   1  11
BRANCH   2  20
ATOM     20  C   UNL d   1      14.726  13.094  -0.577  0.00  0.00     0.151 C 
BRANCH  20  21
ATOM     21  C   UNL d   1      14.548  12.297  -0.633  0.00  0.00     0.314 C 
ATOM     22  O   UNL d   1      14.918  11.841  -1.205  0.00  0.00    -0.257 OA
BRANCH  21  23
ATOM     23  O   UNL d   1      14.010  11.959  -0.126  0.00  0.00    -0.295 OA
ATOM     24  C   UNL d   1      13.260  11.780  -0.386  0.00  0.00     0.185 C 
ENDBRANCH  21  23
ENDBRANCH  20  21
ENDBRANCH   2  20
TORSDOF 5
ENDMDL
MODEL 2
REMARK VINA RESULT:      35.7      1.791      4.090
REMARK  5 active torsions:
REMARK  status: ('A' for Active; 'I' for Inactive)
REMARK    1  A    between atoms: N_3  and  C_1 
REMARK    2  A    between atoms: C_12  and  N_2 
REMARK       I    between atoms: C_5  and  N_3 
REMARK    3  A    between atoms: C_8  and  C_5 
REMARK    4  A    between atoms: C_15  and  C_12 
REMARK    5  A    between atoms: O_22  and  C_15 
ROOT
ATOM      1  C   UNL d   1      14.083  13.594  -2.403  0.00  0.00     0.183 A 
ATOM      2  N   UNL d   1      13.910  12.790  -2.377  0.00  0.00    -0.280 N 
ATOM      3  S   UNL d   1      13.888  13.872  -3.157  0.00  0.00    -0.048 SA
ATOM      4  C   UNL d   1      13.607  12.562  -3.114  0.00  0.00     0.072 A 
ATOM      5  C   UNL d   1      13.593  13.234  -3.598  0.00  0.00     0.048 A 
ATOM      6  C   UNL d   1      13.343  11.836  -3.407  0.00  0.00     0.018 A 
ATOM      7  C   UNL d   1      13.316  13.180  -4.374  0.00  0.00     0.008 A 
ATOM      8  C   UNL d   1      13.065  11.782  -4.183  0.00  0.00     0.002 A 
ATOM      9  C   UNL d   1      13.052  12.453  -4.667  0.00  0.00     0.001 A 
ATOM     10  C   UNL d   1      12.777  12.403  -5.437  0.00  0.00     0.000 C 
ENDROOT
BRANCH   1  11
ATOM     11  N   UNL d   1      14.396  14.039  -1.780  0.00  0.00    -0.183 NA
ATOM     12  C   UNL d   1      14.602  14.829  -1.907  0.00  0.00     0.287 C 
ATOM     13  O   UNL d   1      14.494  15.168  -2.653  0.00  0.00    -0.265 OA
BRANCH  12  14
ATOM     14  C   UNL d   1      14.912  15.275  -1.297  0.00  0.00     0.088 A 
ATOM     15  S   UNL d   1      15.141  16.073  -1.337  0.00  0.00    -0.071 SA
ATOM     16  C   UNL d   1      15.418  16.294  -0.603  0.00  0.00     0.087 A 
ATOM     17 CL   UNL d   1      15.704  17.030  -0.380  0.00  0.00    -0.075 Cl
ATOM     18  C   UNL d   1      15.364  15.644  -0.113  0.00  0.00     0.019 A 
ATOM     19  C   UNL d   1      15.053  15.022  -0.541  0.00  0.00     0.013 A 
ENDBRANCH  12  14
ENDBRANCH   1  11
BRANCH   2  20
ATOM     20  C   UNL d   1      13.879  12.064  -1.988  0.00  0.00     0.151 C 
BRANCH  20  21
ATOM     21  C   UNL d   1      14.221  11.985  -1.249  0.00  0.00     0.314 C 
ATOM     22  O   UNL d   1      13.755  12.054  -0.579  0.00  0.00    -0.257 OA
BRANCH  21  23
ATOM     23  O   UNL d   1      15.018  11.841  -1.178  0.00  0.00    -0.295 OA
ATOM     24  C   UNL d   1      15.361  11.785  -0.442  0.00  0.00     0.185 C 
ENDBRANCH  21  23
ENDBRANCH  20  21
ENDBRANCH   2  20
TORSDOF 5
ENDMDL
