MODEL 1
REMARK VINA RESULT:      -5.5      0.000      0.000
REMARK  8 active torsions:
REMARK  status: ('A' for Active; 'I' for Inactive)
REMARK    1  A    between atoms: C_4  and  C_1 
REMARK    2  A    between atoms: C_2  and  C_15 
REMARK    3  A    between atoms: C_3  and  C_2 
REMARK    4  A    between atoms: C_16  and  C_4 
REMARK    5  A    between atoms: O_14  and  C_9 
REMARK    6  A    between atoms: S_13  and  C_16 
REMARK    7  A    between atoms: C_15  and  S_13 
REMARK    8  A    between atoms: C_17  and  O_14 
ROOT
ATOM      1  C   UNL d   1     -47.430  13.553  22.860  0.00  0.00     0.040 A 
ATOM      2  C   UNL d   1     -47.731  14.317  22.799  0.00  0.00     0.005 A 
ATOM      3  C   UNL d   1     -47.944  12.902  22.824  0.00  0.00     0.005 A 
ATOM      4  C   UNL d   1     -49.054  13.789  22.666  0.00  0.00     0.100 A 
ATOM      5  C   UNL d   1     -48.540  14.439  22.702  0.00  0.00     0.025 A 
ATOM      6  C   UNL d   1     -48.753  13.024  22.727  0.00  0.00     0.025 A 
ENDROOT
BRANCH   1   7
ATOM      7  C   UNL d   1     -46.611  13.444  22.957  0.00  0.00     0.202 C 
ATOM      8  O   UNL d   1     -46.260  13.520  23.698  0.00  0.00    -0.286 OA
BRANCH   7   9
ATOM      9  C   UNL d   1     -46.139  13.256  22.293  0.00  0.00     0.077 C 
BRANCH   9  10
ATOM     10  S   UNL d   1     -45.300  13.311  22.348  0.00  0.00    -0.082 SA
BRANCH  10  11
ATOM     11  C   UNL d   1     -44.826  12.911  21.806  0.00  0.00     0.042 C 
BRANCH  11  12
ATOM     12  C   UNL d   1     -44.028  13.101  21.741  0.00  0.00     0.077 C 
BRANCH  12  13
ATOM     13  C   UNL d   1     -43.488  12.540  21.467  0.00  0.00     0.211 C 
ATOM     14  O   UNL d   1     -43.229  12.572  20.682  0.00  0.00    -0.644 OA
ATOM     15  O   UNL d   1     -43.209  11.952  21.971  0.00  0.00    -0.644 OA
ENDBRANCH  12  13
ENDBRANCH  11  12
ENDBRANCH  10  11
ENDBRANCH   9  10
ENDBRANCH   7   9
ENDBRANCH   1   7
BRANCH   4  16
ATOM     16  O   UNL d   1     -49.885  13.907  22.567  0.00  0.00    -0.305 OA
BRANCH  16  17
ATOM     17  C   UNL d   1     -50.239  13.733  21.843  0.00  0.00     0.123 C 
ATOM     18  C   UNL d   1     -51.024  13.949  21.706  0.00  0.00     0.029 C 
ENDBRANCH  16  17
ENDBRANCH   4  16
TORSDOF 8
ENDMDL
MODEL 2
REMARK VINA RESULT:      -5.0      1.995      2.287
REMARK  8 active torsions:
REMARK  status: ('A' for Active; 'I' for Inactive)
REMARK    1  A    between atoms: C_4  and  C_1 
REMARK    2  A    between atoms: C_2  and  C_15 
REMARK    3  A    between atoms: C_3  and  C_2 
REMARK    4  A    between atoms: C_16  and  C_4 
REMARK    5  A    between atoms: O_14  and  C_9 
REMARK    6  A    between atoms: S_13  and  C_16 
REMARK    7  A    between atoms: C_15  and  S_13 
REMARK    8  A    between atoms: C_17  and  O_14 
ROOT
ATOM      1  C   UNL d   1     -47.933  12.345  23.021  0.00  0.00     0.040 A 
ATOM      2  C   UNL d   1     -47.523  13.058  22.971  0.00  0.00     0.005 A 
ATOM      3  C   UNL d   1     -48.746  12.323  22.856  0.00  0.00     0.005 A 
ATOM      4  C   UNL d   1     -48.730  13.728  22.592  0.00  0.00     0.100 A 
ATOM      5  C   UNL d   1     -47.917  13.749  22.758  0.00  0.00     0.025 A 
ATOM      6  C   UNL d   1     -49.140  13.014  22.643  0.00  0.00     0.025 A 
ENDROOT
BRANCH   1   7
ATOM      7  C   UNL d   1     -47.523  11.654  23.238  0.00  0.00     0.202 C 
ATOM      8  O   UNL d   1     -47.907  10.928  23.271  0.00  0.00    -0.286 OA
BRANCH   7   9
ATOM      9  C   UNL d   1     -46.708  11.701  23.424  0.00  0.00     0.077 C 
BRANCH   9  10
ATOM     10  S   UNL d   1     -46.283  10.998  23.614  0.00  0.00    -0.082 SA
BRANCH  10  11
ATOM     11  C   UNL d   1     -45.460  11.009  23.628  0.00  0.00     0.042 C 
BRANCH  11  12
ATOM     12  C   UNL d   1     -45.042  10.303  23.698  0.00  0.00     0.077 C 
BRANCH  12  13
ATOM     13  C   UNL d   1     -44.225  10.289  23.574  0.00  0.00     0.211 C 
ATOM     14  O   UNL d   1     -43.807   9.587  23.695  0.00  0.00    -0.644 OA
ATOM     15  O   UNL d   1     -43.831  10.970  23.331  0.00  0.00    -0.644 OA
ENDBRANCH  12  13
ENDBRANCH  11  12
ENDBRANCH  10  11
ENDBRANCH   9  10
ENDBRANCH   7   9
ENDBRANCH   1   7
BRANCH   4  16
ATOM     16  O   UNL d   1     -49.139  14.434  22.373  0.00  0.00    -0.305 OA
BRANCH  16  17
ATOM     17  C   UNL d   1     -49.060  15.113  22.835  0.00  0.00     0.123 C 
ATOM     18  C   UNL d   1     -49.618  15.717  22.778  0.00  0.00     0.029 C 
ENDBRANCH  16  17
ENDBRANCH   4  16
TORSDOF 8
ENDMDL
MODEL 3
REMARK VINA RESULT:      -4.8      1.059      1.377
REMARK  8 active torsions:
REMARK  status: ('A' for Active; 'I' for Inactive)
REMARK    1  A    between atoms: C_4  and  C_1 
REMARK    2  A    between atoms: C_2  and  C_15 
REMARK    3  A    between atoms: C_3  and  C_2 
REMARK    4  A    between atoms: C_16  and  C_4 
REMARK    5  A    between atoms: O_14  and  C_9 
REMARK    6  A    between atoms: S_13  and  C_16 
REMARK    7  A    between atoms: C_15  and  S_13 
REMARK    8  A    between atoms: C_17  and  O_14 
ROOT
ATOM      1  C   UNL d   1     -47.865  13.671  22.965  0.00  0.00     0.040 A 
ATOM      2  C   UNL d   1     -48.619  13.341  22.952  0.00  0.00     0.005 A 
ATOM      3  C   UNL d   1     -47.774  14.495  22.938  0.00  0.00     0.005 A 
ATOM      4  C   UNL d   1     -49.193  14.651  22.883  0.00  0.00     0.100 A 
ATOM      5  C   UNL d   1     -49.284  13.826  22.911  0.00  0.00     0.025 A 
ATOM      6  C   UNL d   1     -48.438  14.980  22.897  0.00  0.00     0.025 A 
ENDROOT
BRANCH   1   7
ATOM      7  C   UNL d   1     -47.203  13.169  23.007  0.00  0.00     0.202 C 
ATOM      8  O   UNL d   1     -47.199  12.515  23.507  0.00  0.00    -0.286 OA
BRANCH   7   9
ATOM      9  C   UNL d   1     -46.533  13.332  22.533  0.00  0.00     0.077 C 
BRANCH   9  10
ATOM     10  S   UNL d   1     -45.845  12.850  22.603  0.00  0.00    -0.082 SA
BRANCH  10  11
ATOM     11  C   UNL d   1     -45.172  13.028  22.163  0.00  0.00     0.042 C 
BRANCH  11  12
ATOM     12  C   UNL d   1     -44.553  12.488  22.123  0.00  0.00     0.077 C 
BRANCH  12  13
ATOM     13  C   UNL d   1     -43.835  12.702  21.775  0.00  0.00     0.211 C 
ATOM     14  O   UNL d   1     -43.212  12.160  21.758  0.00  0.00    -0.644 OA
ATOM     15  O   UNL d   1     -43.741  13.452  21.448  0.00  0.00    -0.644 OA
ENDBRANCH  12  13
ENDBRANCH  11  12
ENDBRANCH  10  11
ENDBRANCH   9  10
ENDBRANCH   7   9
ENDBRANCH   1   7
BRANCH   4  16
ATOM     16  O   UNL d   1     -49.871  15.154  22.841  0.00  0.00    -0.305 OA
BRANCH  16  17
ATOM     17  C   UNL d   1     -50.078  15.616  23.492  0.00  0.00     0.123 C 
ATOM     18  C   UNL d   1     -50.841  15.922  23.554  0.00  0.00     0.029 C 
ENDBRANCH  16  17
ENDBRANCH   4  16
TORSDOF 8
ENDMDL
MODEL 4
REMARK VINA RESULT:      -4.7      1.342      5.015
REMARK  8 active torsions:
REMARK  status: ('A' for Active; 'I' for Inactive)
REMARK    1  A    between atoms: C_4  and  C_1 
REMARK    2  A    between atoms: C_2  and  C_15 
REMARK    3  A    between atoms: C_3  and  C_2 
REMARK    4  A    between atoms: C_16  and  C_4 
REMARK    5  A    between atoms: O_14  and  C_9 
REMARK    6  A    between atoms: S_13  and  C_16 
REMARK    7  A    between atoms: C_15  and  S_13 
REMARK    8  A    between atoms: C_17  and  O_14 
ROOT
ATOM      1  C   UNL d   1     -46.388  13.143  22.769  0.00  0.00     0.040 A 
ATOM      2  C   UNL d   1     -45.948  13.603  22.246  0.00  0.00     0.005 A 
ATOM      3  C   UNL d   1     -46.074  12.431  23.057  0.00  0.00     0.005 A 
ATOM      4  C   UNL d   1     -44.885  12.646  22.295  0.00  0.00     0.100 A 
ATOM      5  C   UNL d   1     -45.198  13.358  22.007  0.00  0.00     0.025 A 
ATOM      6  C   UNL d   1     -45.325  12.186  22.818  0.00  0.00     0.025 A 
ENDROOT
BRANCH   1   7
ATOM      7  C   UNL d   1     -47.143  13.402  23.002  0.00  0.00     0.202 C 
ATOM      8  O   UNL d   1     -47.250  14.146  23.336  0.00  0.00    -0.286 OA
BRANCH   7   9
ATOM      9  C   UNL d   1     -47.802  12.898  22.894  0.00  0.00     0.077 C 
BRANCH   9  10
ATOM     10  S   UNL d   1     -48.579  13.187  23.051  0.00  0.00    -0.082 SA
BRANCH  10  11
ATOM     11  C   UNL d   1     -49.226  12.685  22.972  0.00  0.00     0.042 C 
BRANCH  11  12
ATOM     12  C   UNL d   1     -49.988  12.981  23.069  0.00  0.00     0.077 C 
BRANCH  12  13
ATOM     13  C   UNL d   1     -50.643  12.514  22.879  0.00  0.00     0.211 C 
ATOM     14  O   UNL d   1     -51.015  12.611  22.147  0.00  0.00    -0.644 OA
ATOM     15  O   UNL d   1     -50.924  11.956  23.415  0.00  0.00    -0.644 OA
ENDBRANCH  12  13
ENDBRANCH  11  12
ENDBRANCH  10  11
ENDBRANCH   9  10
ENDBRANCH   7   9
ENDBRANCH   1   7
BRANCH   4  16
ATOM     16  O   UNL d   1     -44.116  12.390  22.053  0.00  0.00    -0.305 OA
BRANCH  16  17
ATOM     17  C   UNL d   1     -43.684  12.845  21.517  0.00  0.00     0.123 C 
ATOM     18  C   UNL d   1     -42.899  12.653  21.355  0.00  0.00     0.029 C 
ENDBRANCH  16  17
ENDBRANCH   4  16
TORSDOF 8
ENDMDL
MODEL 5
REMARK VINA RESULT:      -4.6      0.941      1.246
REMARK  8 active torsions:
REMARK  status: ('A' for Active; 'I' for Inactive)
REMARK    1  A    between atoms: C_4  and  C_1 
REMARK    2  A    between atoms: C_2  and  C_15 
REMARK    3  A    between atoms: C_3  and  C_2 
REMARK    4  A    between atoms: C_16  and  C_4 
REMARK    5  A    between atoms: O_14  and  C_9 
REMARK    6  A    between atoms: S_13  and  C_16 
REMARK    7  A    between atoms: C_15  and  S_13 
REMARK    8  A    between atoms: C_17  and  O_14 
ROOT
ATOM      1  C   UNL d   1     -46.880  13.338  22.908  0.00  0.00     0.040 A 
ATOM      2  C   UNL d   1     -47.585  12.916  22.962  0.00  0.00     0.005 A 
ATOM      3  C   UNL d   1     -46.895  14.167  22.890  0.00  0.00     0.005 A 
ATOM      4  C   UNL d   1     -48.320  14.143  22.982  0.00  0.00     0.100 A 
ATOM      5  C   UNL d   1     -48.305  13.314  22.999  0.00  0.00     0.025 A 
ATOM      6  C   UNL d   1     -47.614  14.565  22.928  0.00  0.00     0.025 A 
ENDROOT
BRANCH   1   7
ATOM      7  C   UNL d   1     -46.159  12.923  22.871  0.00  0.00     0.202 C 
ATOM      8  O   UNL d   1     -45.919  12.437  23.490  0.00  0.00    -0.286 OA
BRANCH   7   9
ATOM      9  C   UNL d   1     -45.674  13.001  22.194  0.00  0.00     0.077 C 
BRANCH   9  10
ATOM     10  S   UNL d   1     -44.876  12.729  22.219  0.00  0.00    -0.082 SA
BRANCH  10  11
ATOM     11  C   UNL d   1     -44.352  12.940  21.620  0.00  0.00     0.042 C 
BRANCH  11  12
ATOM     12  C   UNL d   1     -43.572  12.677  21.646  0.00  0.00     0.077 C 
BRANCH  12  13
ATOM     13  C   UNL d   1     -43.011  12.987  21.125  0.00  0.00     0.211 C 
ATOM     14  O   UNL d   1     -42.544  13.626  21.362  0.00  0.00    -0.644 OA
ATOM     15  O   UNL d   1     -42.918  12.661  20.375  0.00  0.00    -0.644 OA
ENDBRANCH  12  13
ENDBRANCH  11  12
ENDBRANCH  10  11
ENDBRANCH   9  10
ENDBRANCH   7   9
ENDBRANCH   1   7
BRANCH   4  16
ATOM     16  O   UNL d   1     -49.057  14.557  23.020  0.00  0.00    -0.305 OA
BRANCH  16  17
ATOM     17  C   UNL d   1     -49.286  15.041  22.393  0.00  0.00     0.123 C 
ATOM     18  C   UNL d   1     -50.012  15.431  22.419  0.00  0.00     0.029 C 
ENDBRANCH  16  17
ENDBRANCH   4  16
TORSDOF 8
ENDMDL
MODEL 6
REMARK VINA RESULT:      -4.3      8.095      8.379
REMARK  8 active torsions:
REMARK  status: ('A' for Active; 'I' for Inactive)
REMARK    1  A    between atoms: C_4  and  C_1 
REMARK    2  A    between atoms: C_2  and  C_15 
REMARK    3  A    between atoms: C_3  and  C_2 
REMARK    4  A    between atoms: C_16  and  C_4 
REMARK    5  A    between atoms: O_14  and  C_9 
REMARK    6  A    between atoms: S_13  and  C_16 
REMARK    7  A    between atoms: C_15  and  S_13 
REMARK    8  A    between atoms: C_17  and  O_14 
ROOT
ATOM      1  C   UNL d   1     -39.712  15.075  18.834  0.00  0.00     0.040 A 
ATOM      2  C   UNL d   1     -40.231  15.710  18.774  0.00  0.00     0.005 A 
ATOM      3  C   UNL d   1     -39.737  14.466  18.271  0.00  0.00     0.005 A 
ATOM      4  C   UNL d   1     -40.802  15.136  17.594  0.00  0.00     0.100 A 
ATOM      5  C   UNL d   1     -40.777  15.745  18.157  0.00  0.00     0.025 A 
ATOM      6  C   UNL d   1     -40.281  14.500  17.654  0.00  0.00     0.025 A 
ENDROOT
BRANCH   1   7
ATOM      7  C   UNL d   1     -39.166  15.053  19.462  0.00  0.00     0.202 C 
ATOM      8  O   UNL d   1     -38.539  15.585  19.496  0.00  0.00    -0.286 OA
BRANCH   7   9
ATOM      9  C   UNL d   1     -39.258  14.483  20.067  0.00  0.00     0.077 C 
BRANCH   9  10
ATOM     10  S   UNL d   1     -38.685  14.432  20.683  0.00  0.00    -0.082 SA
BRANCH  10  11
ATOM     11  C   UNL d   1     -38.803  13.913  21.311  0.00  0.00     0.042 C 
BRANCH  11  12
ATOM     12  C   UNL d   1     -38.155  13.571  21.687  0.00  0.00     0.077 C 
BRANCH  12  13
ATOM     13  C   UNL d   1     -38.220  13.303  22.466  0.00  0.00     0.211 C 
ATOM     14  O   UNL d   1     -37.956  12.544  22.659  0.00  0.00    -0.644 OA
ATOM     15  O   UNL d   1     -38.544  13.789  23.045  0.00  0.00    -0.644 OA
ENDBRANCH  12  13
ENDBRANCH  11  12
ENDBRANCH  10  11
ENDBRANCH   9  10
ENDBRANCH   7   9
ENDBRANCH   1   7
BRANCH   4  16
ATOM     16  O   UNL d   1     -41.359  15.166  16.959  0.00  0.00    -0.305 OA
BRANCH  16  17
ATOM     17  C   UNL d   1     -41.548  15.891  16.615  0.00  0.00     0.123 C 
ATOM     18  C   UNL d   1     -42.083  15.922  15.988  0.00  0.00     0.029 C 
ENDBRANCH  16  17
ENDBRANCH   4  16
TORSDOF 8
ENDMDL
MODEL 7
REMARK VINA RESULT:      -2.8      7.289      8.394
REMARK  8 active torsions:
REMARK  status: ('A' for Active; 'I' for Inactive)
REMARK    1  A    between atoms: C_4  and  C_1 
REMARK    2  A    between atoms: C_2  and  C_15 
REMARK    3  A    between atoms: C_3  and  C_2 
REMARK    4  A    between atoms: C_16  and  C_4 
REMARK    5  A    between atoms: O_14  and  C_9 
REMARK    6  A    between atoms: S_13  and  C_16 
REMARK    7  A    between atoms: C_15  and  S_13 
REMARK    8  A    between atoms: C_17  and  O_14 
ROOT
ATOM      1  C   UNL d   1     -40.056  15.178  21.046  0.00  0.00     0.040 A 
ATOM      2  C   UNL d   1     -39.774  15.663  21.649  0.00  0.00     0.005 A 
ATOM      3  C   UNL d   1     -39.823  14.382  21.012  0.00  0.00     0.005 A 
ATOM      4  C   UNL d   1     -39.026  14.566  22.184  0.00  0.00     0.100 A 
ATOM      5  C   UNL d   1     -39.260  15.362  22.218  0.00  0.00     0.025 A 
ATOM      6  C   UNL d   1     -39.309  14.081  21.581  0.00  0.00     0.025 A 
ENDROOT
BRANCH   1   7
ATOM      7  C   UNL d   1     -40.575  15.496  20.478  0.00  0.00     0.202 C 
ATOM      8  O   UNL d   1     -41.322  15.765  20.692  0.00  0.00    -0.286 OA
BRANCH   7   9
ATOM      9  C   UNL d   1     -40.331  15.541  19.679  0.00  0.00     0.077 C 
BRANCH   9  10
ATOM     10  S   UNL d   1     -40.905  15.665  19.075  0.00  0.00    -0.082 SA
BRANCH  10  11
ATOM     11  C   UNL d   1     -40.662  15.829  18.305  0.00  0.00     0.042 C 
BRANCH  11  12
ATOM     12  C   UNL d   1     -40.879  15.326  17.691  0.00  0.00     0.077 C 
BRANCH  12  13
ATOM     13  C   UNL d   1     -40.908  15.607  16.914  0.00  0.00     0.211 C 
ATOM     14  O   UNL d   1     -41.628  15.610  16.509  0.00  0.00    -0.644 OA
ATOM     15  O   UNL d   1     -40.225  15.881  16.547  0.00  0.00    -0.644 OA
ENDBRANCH  12  13
ENDBRANCH  11  12
ENDBRANCH  10  11
ENDBRANCH   9  10
ENDBRANCH   7   9
ENDBRANCH   1   7
BRANCH   4  16
ATOM     16  O   UNL d   1     -38.499  14.251  22.766  0.00  0.00    -0.305 OA
BRANCH  16  17
ATOM     17  C   UNL d   1     -38.714  13.577  23.189  0.00  0.00     0.123 C 
ATOM     18  C   UNL d   1     -38.171  13.221  23.698  0.00  0.00     0.029 C 
ENDBRANCH  16  17
ENDBRANCH   4  16
TORSDOF 8
ENDMDL
