MODEL 1
REMARK VINA RESULT:      -3.2      0.000      0.000
REMARK  2 active torsions:
REMARK  status: ('A' for Active; 'I' for Inactive)
REMARK    1  A    between atoms: C_3  and  C_1 
REMARK       I    between atoms: N_7  and  C_3 
REMARK    2  A    between atoms: C_11  and  N_7 
ROOT
ATOM      1  C   UNL d   1      32.994  19.615 -22.951  0.00  0.00     0.121 A 
ATOM      2  C   UNL d   1      33.159  20.275 -23.414  0.00  0.00     0.305 A 
ATOM      3  C   UNL d   1      32.911  19.693 -22.134  0.00  0.00     0.012 A 
ATOM      4  O   UNL d   1      33.240  21.010 -23.057  0.00  0.00    -0.273 OA
ATOM      5  C   UNL d   1      32.994  20.435 -21.782  0.00  0.00     0.023 A 
ATOM      6  C   UNL d   1      33.159  21.095 -22.245  0.00  0.00     0.103 A 
ATOM      7  O   UNL d   1      33.240  20.186 -24.233  0.00  0.00    -0.259 OA
ATOM      8  C   UNL d   1      32.911  20.508 -20.971  0.00  0.00     0.002 A 
ATOM      9  C   UNL d   1      33.240  21.825 -21.894  0.00  0.00     0.025 A 
ATOM     10  C   UNL d   1      32.994  21.254 -20.612  0.00  0.00     0.000 A 
ATOM     11  C   UNL d   1      33.159  21.914 -21.075  0.00  0.00     0.002 A 
ENDROOT
BRANCH   1  12
ATOM     12  C   UNL d   1      32.912  18.869 -23.310  0.00  0.00     0.284 C 
ATOM     13  N   UNL d   1      32.640  18.234 -22.872  0.00  0.00    -0.208 NA
ATOM     14  O   UNL d   1      33.104  18.769 -24.112  0.00  0.00    -0.265 OA
BRANCH  13  15
ATOM     15  C   UNL d   1      32.559  17.496 -23.232  0.00  0.00     0.085 A 
ATOM     16  C   UNL d   1      31.848  17.293 -23.610  0.00  0.00     0.019 A 
ATOM     17  C   UNL d   1      31.773  16.549 -23.970  0.00  0.00     0.002 A 
ATOM     18  C   UNL d   1      32.398  16.008 -23.956  0.00  0.00     0.000 A 
ATOM     19  C   UNL d   1      33.110  16.211 -23.578  0.00  0.00     0.002 A 
ATOM     20  C   UNL d   1      33.194  16.941 -23.221  0.00  0.00     0.019 A 
ENDBRANCH  13  15
ENDBRANCH   1  12
TORSDOF 2
ENDMDL
MODEL 2
REMARK VINA RESULT:      -2.8      1.034      4.233
REMARK  2 active torsions:
REMARK  status: ('A' for Active; 'I' for Inactive)
REMARK    1  A    between atoms: C_3  and  C_1 
REMARK       I    between atoms: N_7  and  C_3 
REMARK    2  A    between atoms: C_11  and  N_7 
ROOT
ATOM      1  C   UNL d   1      33.020  20.145 -22.870  0.00  0.00     0.121 A 
ATOM      2  C   UNL d   1      33.149  20.240 -23.677  0.00  0.00     0.305 A 
ATOM      3  C   UNL d   1      32.944  19.389 -22.549  0.00  0.00     0.012 A 
ATOM      4  O   UNL d   1      33.202  19.577 -24.159  0.00  0.00    -0.273 OA
ATOM      5  C   UNL d   1      32.998  18.728 -23.039  0.00  0.00     0.023 A 
ATOM      6  C   UNL d   1      33.128  18.822 -23.846  0.00  0.00     0.103 A 
ATOM      7  O   UNL d   1      33.224  21.003 -23.989  0.00  0.00    -0.259 OA
ATOM      8  C   UNL d   1      32.923  17.979 -22.718  0.00  0.00     0.002 A 
ATOM      9  C   UNL d   1      33.181  18.168 -24.327  0.00  0.00     0.025 A 
ATOM     10  C   UNL d   1      32.977  17.310 -23.208  0.00  0.00     0.000 A 
ATOM     11  C   UNL d   1      33.106  17.404 -24.016  0.00  0.00     0.002 A 
ENDROOT
BRANCH   1  12
ATOM     12  C   UNL d   1      32.966  20.815 -22.379  0.00  0.00     0.284 C 
ATOM     13  N   UNL d   1      32.647  20.746 -21.629  0.00  0.00    -0.208 NA
ATOM     14  O   UNL d   1      33.235  21.553 -22.650  0.00  0.00    -0.265 OA
BRANCH  13  15
ATOM     15  C   UNL d   1      32.595  21.412 -21.145  0.00  0.00     0.085 A 
ATOM     16  C   UNL d   1      33.224  21.608 -20.638  0.00  0.00     0.019 A 
ATOM     17  C   UNL d   1      33.165  22.279 -20.154  0.00  0.00     0.002 A 
ATOM     18  C   UNL d   1      32.489  22.755 -20.171  0.00  0.00     0.000 A 
ATOM     19  C   UNL d   1      31.861  22.559 -20.678  0.00  0.00     0.002 A 
ATOM     20  C   UNL d   1      31.908  21.900 -21.159  0.00  0.00     0.019 A 
ENDBRANCH  13  15
ENDBRANCH   1  12
TORSDOF 2
ENDMDL
MODEL 3
REMARK VINA RESULT:      -2.6      2.842      5.165
REMARK  2 active torsions:
REMARK  status: ('A' for Active; 'I' for Inactive)
REMARK    1  A    between atoms: C_3  and  C_1 
REMARK       I    between atoms: N_7  and  C_3 
REMARK    2  A    between atoms: C_11  and  N_7 
ROOT
ATOM      1  C   UNL d   1      30.212  16.550 -24.128  0.00  0.00     0.121 A 
ATOM      2  C   UNL d   1      30.094  15.836 -24.520  0.00  0.00     0.305 A 
ATOM      3  C   UNL d   1      29.593  16.897 -23.707  0.00  0.00     0.012 A 
ATOM      4  O   UNL d   1      29.358  15.474 -24.489  0.00  0.00    -0.273 OA
ATOM      5  C   UNL d   1      28.856  16.528 -23.680  0.00  0.00     0.023 A 
ATOM      6  C   UNL d   1      28.738  15.814 -24.072  0.00  0.00     0.103 A 
ATOM      7  O   UNL d   1      30.721  15.496 -24.939  0.00  0.00    -0.259 OA
ATOM      8  C   UNL d   1      28.245  16.876 -23.261  0.00  0.00     0.002 A 
ATOM      9  C   UNL d   1      28.010  15.453 -24.043  0.00  0.00     0.025 A 
ATOM     10  C   UNL d   1      27.501  16.507 -23.232  0.00  0.00     0.000 A 
ATOM     11  C   UNL d   1      27.382  15.793 -23.624  0.00  0.00     0.002 A 
ENDROOT
BRANCH   1  12
ATOM     12  C   UNL d   1      30.957  16.919 -24.157  0.00  0.00     0.284 C 
ATOM     13  N   UNL d   1      31.007  17.725 -24.287  0.00  0.00    -0.208 NA
ATOM     14  O   UNL d   1      31.649  16.470 -24.056  0.00  0.00    -0.265 OA
BRANCH  13  15
ATOM     15  C   UNL d   1      31.748  18.088 -24.315  0.00  0.00     0.085 A 
ATOM     16  C   UNL d   1      32.099  18.260 -25.049  0.00  0.00     0.019 A 
ATOM     17  C   UNL d   1      32.843  18.625 -25.070  0.00  0.00     0.002 A 
ATOM     18  C   UNL d   1      33.240  18.819 -24.372  0.00  0.00     0.000 A 
ATOM     19  C   UNL d   1      32.889  18.646 -23.638  0.00  0.00     0.002 A 
ATOM     20  C   UNL d   1      32.156  18.287 -23.605  0.00  0.00     0.019 A 
ENDBRANCH  13  15
ENDBRANCH   1  12
TORSDOF 2
ENDMDL
MODEL 4
REMARK VINA RESULT:      -1.5      1.289      4.541
REMARK  2 active torsions:
REMARK  status: ('A' for Active; 'I' for Inactive)
REMARK    1  A    between atoms: C_3  and  C_1 
REMARK       I    between atoms: N_7  and  C_3 
REMARK    2  A    between atoms: C_11  and  N_7 
ROOT
ATOM      1  C   UNL d   1      32.123  17.550 -23.551  0.00  0.00     0.121 A 
ATOM      2  C   UNL d   1      32.493  16.814 -23.556  0.00  0.00     0.305 A 
ATOM      3  C   UNL d   1      31.394  17.649 -23.925  0.00  0.00     0.012 A 
ATOM      4  O   UNL d   1      32.130  16.182 -23.934  0.00  0.00    -0.273 OA
ATOM      5  C   UNL d   1      31.036  17.009 -24.302  0.00  0.00     0.023 A 
ATOM      6  C   UNL d   1      31.405  16.273 -24.307  0.00  0.00     0.103 A 
ATOM      7  O   UNL d   1      33.224  16.726 -23.179  0.00  0.00    -0.259 OA
ATOM      8  C   UNL d   1      30.313  17.111 -24.671  0.00  0.00     0.002 A 
ATOM      9  C   UNL d   1      31.049  15.644 -24.680  0.00  0.00     0.025 A 
ATOM     10  C   UNL d   1      29.948  16.468 -25.053  0.00  0.00     0.000 A 
ATOM     11  C   UNL d   1      30.317  15.732 -25.058  0.00  0.00     0.002 A 
ENDROOT
BRANCH   1  12
ATOM     12  C   UNL d   1      32.488  18.193 -23.170  0.00  0.00     0.284 C 
ATOM     13  N   UNL d   1      32.136  18.931 -23.188  0.00  0.00    -0.208 NA
ATOM     14  O   UNL d   1      33.209  18.086 -22.770  0.00  0.00    -0.265 OA
BRANCH  13  15
ATOM     15  C   UNL d   1      32.501  19.566 -22.808  0.00  0.00     0.085 A 
ATOM     16  C   UNL d   1      32.496  19.612 -21.978  0.00  0.00     0.019 A 
ATOM     17  C   UNL d   1      32.865  20.254 -21.603  0.00  0.00     0.002 A 
ATOM     18  C   UNL d   1      33.236  20.846 -22.044  0.00  0.00     0.000 A 
ATOM     19  C   UNL d   1      33.241  20.799 -22.873  0.00  0.00     0.002 A 
ATOM     20  C   UNL d   1      32.881  20.172 -23.254  0.00  0.00     0.019 A 
ENDBRANCH  13  15
ENDBRANCH   1  12
TORSDOF 2
ENDMDL
MODEL 5
REMARK VINA RESULT:      -0.9      3.010      5.065
REMARK  2 active torsions:
REMARK  status: ('A' for Active; 'I' for Inactive)
REMARK    1  A    between atoms: C_3  and  C_1 
REMARK       I    between atoms: N_7  and  C_3 
REMARK    2  A    between atoms: C_11  and  N_7 
ROOT
ATOM      1  C   UNL d   1      29.642  17.097 -24.105  0.00  0.00     0.121 A 
ATOM      2  C   UNL d   1      29.008  17.526 -24.408  0.00  0.00     0.305 A 
ATOM      3  C   UNL d   1      29.506  16.471 -23.586  0.00  0.00     0.012 A 
ATOM      4  O   UNL d   1      28.243  17.326 -24.190  0.00  0.00    -0.273 OA
ATOM      5  C   UNL d   1      28.735  16.275 -23.371  0.00  0.00     0.023 A 
ATOM      6  C   UNL d   1      28.101  16.704 -23.674  0.00  0.00     0.103 A 
ATOM      7  O   UNL d   1      29.155  18.153 -24.929  0.00  0.00    -0.259 OA
ATOM      8  C   UNL d   1      28.604  15.653 -22.856  0.00  0.00     0.002 A 
ATOM      9  C   UNL d   1      27.340  16.508 -23.460  0.00  0.00     0.025 A 
ATOM     10  C   UNL d   1      27.827  15.453 -22.636  0.00  0.00     0.000 A 
ATOM     11  C   UNL d   1      27.193  15.881 -22.939  0.00  0.00     0.002 A 
ENDROOT
BRANCH   1  12
ATOM     12  C   UNL d   1      30.419  17.298 -24.325  0.00  0.00     0.284 C 
ATOM     13  N   UNL d   1      30.920  17.645 -23.779  0.00  0.00    -0.208 NA
ATOM     14  O   UNL d   1      30.686  17.147 -25.097  0.00  0.00    -0.265 OA
BRANCH  13  15
ATOM     15  C   UNL d   1      31.690  17.842 -24.000  0.00  0.00     0.085 A 
ATOM     16  C   UNL d   1      32.309  17.301 -23.881  0.00  0.00     0.019 A 
ATOM     17  C   UNL d   1      33.081  17.506 -24.106  0.00  0.00     0.002 A 
ATOM     18  C   UNL d   1      33.240  18.242 -24.446  0.00  0.00     0.000 A 
ATOM     19  C   UNL d   1      32.621  18.783 -24.566  0.00  0.00     0.002 A 
ATOM     20  C   UNL d   1      31.857  18.592 -24.348  0.00  0.00     0.019 A 
ENDBRANCH  13  15
ENDBRANCH   1  12
TORSDOF 2
ENDMDL
MODEL 6
REMARK VINA RESULT:      -0.5      1.568      4.392
REMARK  2 active torsions:
REMARK  status: ('A' for Active; 'I' for Inactive)
REMARK    1  A    between atoms: C_3  and  C_1 
REMARK       I    between atoms: N_7  and  C_3 
REMARK    2  A    between atoms: C_11  and  N_7 
ROOT
ATOM      1  C   UNL d   1      33.185  19.957 -22.840  0.00  0.00     0.121 A 
ATOM      2  C   UNL d   1      33.159  19.549 -22.126  0.00  0.00     0.305 A 
ATOM      3  C   UNL d   1      33.202  19.542 -23.553  0.00  0.00     0.012 A 
ATOM      4  O   UNL d   1      33.151  18.728 -22.129  0.00  0.00    -0.273 OA
ATOM      5  C   UNL d   1      33.194  18.717 -23.549  0.00  0.00     0.023 A 
ATOM      6  C   UNL d   1      33.168  18.309 -22.835  0.00  0.00     0.103 A 
ATOM      7  O   UNL d   1      33.142  19.975 -21.416  0.00  0.00    -0.259 OA
ATOM      8  C   UNL d   1      33.211  18.309 -24.258  0.00  0.00     0.002 A 
ATOM      9  C   UNL d   1      33.159  17.495 -22.834  0.00  0.00     0.025 A 
ATOM     10  C   UNL d   1      33.202  17.478 -24.258  0.00  0.00     0.000 A 
ATOM     11  C   UNL d   1      33.176  17.069 -23.544  0.00  0.00     0.002 A 
ENDROOT
BRANCH   1  12
ATOM     12  C   UNL d   1      33.194  20.789 -22.840  0.00  0.00     0.284 C 
ATOM     13  N   UNL d   1      33.156  21.197 -23.548  0.00  0.00    -0.208 NA
ATOM     14  O   UNL d   1      33.241  21.205 -22.123  0.00  0.00    -0.265 OA
BRANCH  13  15
ATOM     15  C   UNL d   1      33.164  22.022 -23.544  0.00  0.00     0.085 A 
ATOM     16  C   UNL d   1      33.106  22.442 -24.258  0.00  0.00     0.019 A 
ATOM     17  C   UNL d   1      33.115  23.272 -24.247  0.00  0.00     0.002 A 
ATOM     18  C   UNL d   1      33.182  23.684 -23.534  0.00  0.00     0.000 A 
ATOM     19  C   UNL d   1      33.241  23.264 -22.820  0.00  0.00     0.002 A 
ATOM     20  C   UNL d   1      33.233  22.447 -22.819  0.00  0.00     0.019 A 
ENDBRANCH  13  15
ENDBRANCH   1  12
TORSDOF 2
ENDMDL
