MODEL 1
REMARK VINA RESULT:     -10.1      0.000      0.000
REMARK  3 active torsions:
REMARK  status: ('A' for Active; 'I' for Inactive)
REMARK    1  A    between atoms: N_6  and  S_1 
REMARK    2  A    between atoms: C_11  and  S_1 
REMARK    3  A    between atoms: C_2  and  N_6 
ROOT
ATOM      1  C   UNL d   1      53.257  33.420  53.582  0.00  0.00     0.106 A 
ATOM      2  C   UNL d   1      53.024  34.654  54.198  0.00  0.00     0.110 A 
ATOM      3  C   UNL d   1      52.906  34.144  53.566  0.00  0.00     0.090 A 
ATOM      4  C   UNL d   1      53.476  34.452  54.830  0.00  0.00     0.217 A 
ATOM      5  C   UNL d   1      53.724  33.206  54.229  0.00  0.00     0.035 A 
ATOM      6  C   UNL d   1      53.829  33.727  54.849  0.00  0.00     0.099 A 
ATOM      7  O   UNL d   1      53.589  34.982  55.471  0.00  0.00    -0.285 OA
ATOM      8 CL   UNL d   1      52.648  35.453  54.200  0.00  0.00    -0.078 Cl
ATOM      9 CL   UNL d   1      52.431  34.368  52.911  0.00  0.00    -0.080 Cl
ATOM     10 CL   UNL d   1      54.317  33.489  55.515  0.00  0.00    -0.079 Cl
ENDROOT
BRANCH   1  11
ATOM     11  N   UNL d   1      53.140  32.910  52.949  0.00  0.00    -0.158 NA
BRANCH  11  12
ATOM     12  S   UNL d   1      53.129  32.085  53.083  0.00  0.00     0.285 S 
ATOM     13  O   UNL d   1      53.946  32.055  52.942  0.00  0.00    -0.198 OA
ATOM     14  O   UNL d   1      52.285  32.120  53.228  0.00  0.00    -0.198 OA
BRANCH  12  15
ATOM     15  C   UNL d   1      53.097  31.239  53.224  0.00  0.00     0.105 A 
ATOM     16  C   UNL d   1      53.760  30.813  53.504  0.00  0.00     0.013 A 
ATOM     17  C   UNL d   1      53.714  29.993  53.637  0.00  0.00     0.001 A 
ATOM     18  C   UNL d   1      53.001  29.606  53.487  0.00  0.00     0.000 A 
ATOM     19  C   UNL d   1      52.353  30.000  53.218  0.00  0.00     0.001 A 
ATOM     20  C   UNL d   1      52.384  30.853  53.075  0.00  0.00     0.013 A 
ENDBRANCH  12  15
ENDBRANCH  11  12
ENDBRANCH   1  11
TORSDOF 3
ENDMDL
MODEL 2
REMARK VINA RESULT:      -9.0      2.081      3.427
REMARK  3 active torsions:
REMARK  status: ('A' for Active; 'I' for Inactive)
REMARK    1  A    between atoms: N_6  and  S_1 
REMARK    2  A    between atoms: C_11  and  S_1 
REMARK    3  A    between atoms: C_2  and  N_6 
ROOT
ATOM      1  C   UNL d   1      53.029  33.592  53.679  0.00  0.00     0.106 A 
ATOM      2  C   UNL d   1      53.822  32.830  54.544  0.00  0.00     0.110 A 
ATOM      3  C   UNL d   1      53.491  33.552  54.337  0.00  0.00     0.090 A 
ATOM      4  C   UNL d   1      53.698  32.165  54.111  0.00  0.00     0.217 A 
ATOM      5  C   UNL d   1      52.897  32.911  53.230  0.00  0.00     0.035 A 
ATOM      6  C   UNL d   1      53.235  32.202  53.452  0.00  0.00     0.099 A 
ATOM      7  O   UNL d   1      54.041  31.432  54.332  0.00  0.00    -0.285 OA
ATOM      8 CL   UNL d   1      54.332  32.765  55.261  0.00  0.00    -0.078 Cl
ATOM      9 CL   UNL d   1      53.628  34.240  54.798  0.00  0.00    -0.080 Cl
ATOM     10 CL   UNL d   1      53.088  31.503  52.973  0.00  0.00    -0.079 Cl
ENDROOT
BRANCH   1  11
ATOM     11  N   UNL d   1      52.697  34.314  53.472  0.00  0.00    -0.158 NA
BRANCH  11  12
ATOM     12  S   UNL d   1      51.955  34.331  53.089  0.00  0.00     0.285 S 
ATOM     13  O   UNL d   1      51.583  34.158  53.811  0.00  0.00    -0.198 OA
ATOM     14  O   UNL d   1      52.342  34.510  52.346  0.00  0.00    -0.198 OA
BRANCH  12  15
ATOM     15  C   UNL d   1      51.202  34.353  52.678  0.00  0.00     0.105 A 
ATOM     16  C   UNL d   1      51.151  34.257  51.848  0.00  0.00     0.013 A 
ATOM     17  C   UNL d   1      50.414  34.281  51.461  0.00  0.00     0.001 A 
ATOM     18  C   UNL d   1      49.734  34.400  51.911  0.00  0.00     0.000 A 
ATOM     19  C   UNL d   1      49.764  34.494  52.710  0.00  0.00     0.001 A 
ATOM     20  C   UNL d   1      50.522  34.472  53.128  0.00  0.00     0.013 A 
ENDBRANCH  12  15
ENDBRANCH  11  12
ENDBRANCH   1  11
TORSDOF 3
ENDMDL
MODEL 3
REMARK VINA RESULT:      -8.5      1.839      3.695
REMARK  3 active torsions:
REMARK  status: ('A' for Active; 'I' for Inactive)
REMARK    1  A    between atoms: N_6  and  S_1 
REMARK    2  A    between atoms: C_11  and  S_1 
REMARK    3  A    between atoms: C_2  and  N_6 
ROOT
ATOM      1  C   UNL d   1      53.182  31.513  53.266  0.00  0.00     0.106 A 
ATOM      2  C   UNL d   1      52.247  30.473  53.259  0.00  0.00     0.110 A 
ATOM      3  C   UNL d   1      52.424  31.267  53.156  0.00  0.00     0.090 A 
ATOM      4  C   UNL d   1      52.807  29.935  53.464  0.00  0.00     0.217 A 
ATOM      5  C   UNL d   1      53.763  30.964  53.478  0.00  0.00     0.035 A 
ATOM      6  C   UNL d   1      53.567  30.177  53.575  0.00  0.00     0.099 A 
ATOM      7  O   UNL d   1      52.614  29.124  53.566  0.00  0.00    -0.285 OA
ATOM      8 CL   UNL d   1      51.421  30.183  53.143  0.00  0.00    -0.078 Cl
ATOM      9 CL   UNL d   1      51.829  31.820  52.941  0.00  0.00    -0.080 Cl
ATOM     10 CL   UNL d   1      54.183  29.620  53.795  0.00  0.00    -0.079 Cl
ENDROOT
BRANCH   1  11
ATOM     11  N   UNL d   1      53.360  32.308  53.164  0.00  0.00    -0.158 NA
BRANCH  11  12
ATOM     12  S   UNL d   1      53.858  32.692  53.714  0.00  0.00     0.285 S 
ATOM     13  O   UNL d   1      54.511  32.532  53.229  0.00  0.00    -0.198 OA
ATOM     14  O   UNL d   1      53.179  32.855  54.212  0.00  0.00    -0.198 OA
BRANCH  12  15
ATOM     15  C   UNL d   1      54.351  33.091  54.291  0.00  0.00     0.105 A 
ATOM     16  C   UNL d   1      54.139  33.130  55.100  0.00  0.00     0.013 A 
ATOM     17  C   UNL d   1      54.627  33.520  55.650  0.00  0.00     0.001 A 
ATOM     18  C   UNL d   1      55.326  33.868  55.383  0.00  0.00     0.000 A 
ATOM     19  C   UNL d   1      55.545  33.840  54.610  0.00  0.00     0.001 A 
ATOM     20  C   UNL d   1      55.049  33.439  54.025  0.00  0.00     0.013 A 
ENDBRANCH  12  15
ENDBRANCH  11  12
ENDBRANCH   1  11
TORSDOF 3
ENDMDL
