MODEL 1
REMARK VINA RESULT:      33.7      0.000      0.000
REMARK  2 active torsions:
REMARK  status: ('A' for Active; 'I' for Inactive)
REMARK    1  A    between atoms: N_3  and  C_1 
REMARK    2  A    between atoms: C_13  and  N_6 
ROOT
ATOM      1  C   UNL d   1      14.258  12.973  -1.827  0.00  0.00     0.143 A 
ATOM      2  C   UNL d   1      13.939  12.586  -2.493  0.00  0.00     0.297 A 
ATOM      3  C   UNL d   1      14.267  13.769  -1.973  0.00  0.00     0.102 A 
ATOM      4  N   UNL d   1      13.956  13.896  -2.732  0.00  0.00    -0.238 N 
ATOM      5  N   UNL d   1      13.755  13.166  -3.050  0.00  0.00    -0.209 N 
ATOM      6  O   UNL d   1      13.827  11.780  -2.588  0.00  0.00    -0.264 OA
ATOM      7  C   UNL d   1      13.869  14.639  -3.095  0.00  0.00     0.120 C 
ATOM      8  C   UNL d   1      14.540  14.358  -1.455  0.00  0.00     0.022 C 
ENDROOT
BRANCH   1   9
ATOM      9  N   UNL d   1      14.517  12.590  -1.137  0.00  0.00    -0.254 N 
ATOM     10  C   UNL d   1      14.042  12.113  -0.651  0.00  0.00     0.153 A 
ATOM     11  S   UNL d   1      14.518  11.844  -0.029  0.00  0.00    -0.053 SA
ATOM     12  S   UNL d   1      13.250  11.945  -0.771  0.00  0.00    -0.052 SA
ATOM     13  C   UNL d   1      15.273  12.157  -0.140  0.00  0.00     0.099 A 
ATOM     14  C   UNL d   1      15.267  12.613  -0.820  0.00  0.00     0.273 A 
ATOM     15  O   UNL d   1      15.918  13.026  -1.129  0.00  0.00    -0.266 OA
ENDBRANCH   1   9
BRANCH   5  16
ATOM     16  C   UNL d   1      13.427  13.015  -3.790  0.00  0.00     0.085 A 
ATOM     17  C   UNL d   1      13.093  13.626  -4.233  0.00  0.00     0.019 A 
ATOM     18  C   UNL d   1      12.768  13.463  -4.970  0.00  0.00     0.002 A 
ATOM     19  C   UNL d   1      12.771  12.707  -5.271  0.00  0.00     0.000 A 
ATOM     20  C   UNL d   1      13.099  12.097  -4.838  0.00  0.00     0.002 A 
ATOM     21  C   UNL d   1      13.430  12.247  -4.093  0.00  0.00     0.019 A 
ENDBRANCH   5  16
TORSDOF 2
ENDMDL
MODEL 2
REMARK VINA RESULT:      33.8      1.135      1.573
REMARK  2 active torsions:
REMARK  status: ('A' for Active; 'I' for Inactive)
REMARK    1  A    between atoms: N_3  and  C_1 
REMARK    2  A    between atoms: C_13  and  N_6 
ROOT
ATOM      1  C   UNL d   1      14.386  12.946  -1.566  0.00  0.00     0.143 A 
ATOM      2  C   UNL d   1      14.279  13.345  -2.290  0.00  0.00     0.297 A 
ATOM      3  C   UNL d   1      13.861  12.329  -1.534  0.00  0.00     0.102 A 
ATOM      4  N   UNL d   1      13.417  12.331  -2.236  0.00  0.00    -0.238 N 
ATOM      5  N   UNL d   1      13.676  12.957  -2.699  0.00  0.00    -0.209 N 
ATOM      6  O   UNL d   1      14.691  14.002  -2.556  0.00  0.00    -0.264 OA
ATOM      7  C   UNL d   1      12.817  11.787  -2.423  0.00  0.00     0.120 C 
ATOM      8  C   UNL d   1      13.780  11.789  -0.909  0.00  0.00     0.022 C 
ENDROOT
BRANCH   1   9
ATOM      9  N   UNL d   1      14.941  13.158  -0.987  0.00  0.00    -0.254 N 
ATOM     10  C   UNL d   1      14.910  13.847  -0.527  0.00  0.00     0.153 A 
ATOM     11  S   UNL d   1      15.567  13.839  -0.024  0.00  0.00    -0.053 SA
ATOM     12  S   UNL d   1      14.331  14.426  -0.570  0.00  0.00    -0.052 SA
ATOM     13  C   UNL d   1      15.991  13.149  -0.179  0.00  0.00     0.099 A 
ATOM     14  C   UNL d   1      15.604  12.735  -0.770  0.00  0.00     0.273 A 
ATOM     15  O   UNL d   1      15.849  12.009  -1.090  0.00  0.00    -0.266 OA
ENDBRANCH   1   9
BRANCH   5  16
ATOM     16  C   UNL d   1      13.400  13.179  -3.442  0.00  0.00     0.085 A 
ATOM     17  C   UNL d   1      13.225  13.969  -3.606  0.00  0.00     0.019 A 
ATOM     18  C   UNL d   1      12.949  14.178  -4.351  0.00  0.00     0.002 A 
ATOM     19  C   UNL d   1      12.847  13.617  -4.932  0.00  0.00     0.000 A 
ATOM     20  C   UNL d   1      13.018  12.834  -4.778  0.00  0.00     0.002 A 
ATOM     21  C   UNL d   1      13.296  12.609  -4.030  0.00  0.00     0.019 A 
ENDBRANCH   5  16
TORSDOF 2
ENDMDL
