MODEL 1
REMARK VINA RESULT:      -2.9      0.000      0.000
REMARK  6 active torsions:
REMARK  status: ('A' for Active; 'I' for Inactive)
REMARK    1  A    between atoms: C_6  and  C_1 
REMARK    2  A    between atoms: C_8  and  C_4 
REMARK       I    between atoms: N_22  and  C_6 
REMARK    3  A    between atoms: N_9  and  C_23 
REMARK    4  A    between atoms: C_25  and  N_22 
REMARK    5  A    between atoms: C_23  and  C_24 
REMARK    6  A    between atoms: C_24  and  C_25 
ROOT
ATOM      1  C   UNL d   1      32.392  17.989 -23.453  0.00  0.00     0.168 A 
ATOM      2  N   UNL d   1      32.754  17.271 -23.321  0.00  0.00    -0.121 NA
ATOM      3  C   UNL d   1      31.650  17.838 -23.796  0.00  0.00     0.053 A 
ATOM      4  C   UNL d   1      31.571  17.028 -23.869  0.00  0.00     0.127 A 
ATOM      5  O   UNL d   1      32.256  16.681 -23.573  0.00  0.00    -0.211 OA
ENDROOT
BRANCH   1   6
ATOM      6  C   UNL d   1      32.949  19.473 -23.133  0.00  0.00     0.299 C 
ATOM      7  O   UNL d   1      33.234  19.977 -23.713  0.00  0.00    -0.263 OA
ATOM      8  N   UNL d   1      32.946  19.746 -22.320  0.00  0.00    -0.205 NA
BRANCH   8   9
ATOM      9  C   UNL d   1      33.241  20.541 -22.127  0.00  0.00     0.104 C 
BRANCH   9  10
ATOM     10  C   UNL d   1      32.926  20.954 -21.444  0.00  0.00     0.040 C 
BRANCH  10  11
ATOM     11  C   UNL d   1      33.204  21.740 -21.244  0.00  0.00     0.083 C 
BRANCH  11  12
ATOM     12  N   UNL d   1      32.824  22.192 -20.622  0.00  0.00    -0.285 N 
ATOM     13  C   UNL d   1      32.015  22.475 -20.622  0.00  0.00     0.183 A 
ATOM     14  N   UNL d   1      31.892  22.901 -19.873  0.00  0.00    -0.222 NA
ATOM     15  C   UNL d   1      32.601  22.879 -19.432  0.00  0.00     0.120 A 
ATOM     16  C   UNL d   1      33.194  22.440 -19.884  0.00  0.00     0.102 A 
ENDBRANCH  11  12
ENDBRANCH  10  11
ENDBRANCH   9  10
ENDBRANCH   8   9
ENDBRANCH   1   6
BRANCH   4  17
ATOM     17  C   UNL d   1      30.950  16.611 -24.170  0.00  0.00     0.027 A 
ATOM     18  C   UNL d   1      30.181  16.830 -23.991  0.00  0.00     0.028 A 
ATOM     19  C   UNL d   1      29.563  16.408 -24.296  0.00  0.00     0.119 A 
ATOM     20  O   UNL d   1      28.756  16.496 -24.216  0.00  0.00    -0.300 OA
ATOM     21  C   UNL d   1      29.685  15.765 -24.780  0.00  0.00     0.119 A 
ATOM     22  C   UNL d   1      28.389  15.914 -24.645  0.00  0.00     0.304 A 
ATOM     23  O   UNL d   1      28.963  15.459 -24.996  0.00  0.00    -0.300 OA
ATOM     24  C   UNL d   1      30.456  15.538 -24.964  0.00  0.00     0.026 A 
ATOM     25  C   UNL d   1      31.073  15.956 -24.663  0.00  0.00     0.004 A 
ENDBRANCH   4  17
TORSDOF 6
ENDMDL
MODEL 2
REMARK VINA RESULT:      -2.7      2.003      6.728
REMARK  6 active torsions:
REMARK  status: ('A' for Active; 'I' for Inactive)
REMARK    1  A    between atoms: C_6  and  C_1 
REMARK    2  A    between atoms: C_8  and  C_4 
REMARK       I    between atoms: N_22  and  C_6 
REMARK    3  A    between atoms: N_9  and  C_23 
REMARK    4  A    between atoms: C_25  and  N_22 
REMARK    5  A    between atoms: C_23  and  C_24 
REMARK    6  A    between atoms: C_24  and  C_25 
ROOT
ATOM      1  C   UNL d   1      33.001  19.746 -22.284  0.00  0.00     0.168 A 
ATOM      2  N   UNL d   1      33.213  19.483 -21.543  0.00  0.00    -0.121 NA
ATOM      3  C   UNL d   1      32.894  20.569 -22.240  0.00  0.00     0.053 A 
ATOM      4  C   UNL d   1      33.044  20.797 -21.468  0.00  0.00     0.127 A 
ATOM      5  O   UNL d   1      33.241  20.122 -21.041  0.00  0.00    -0.211 OA
ENDROOT
BRANCH   1   6
ATOM      6  C   UNL d   1      32.803  18.888 -23.641  0.00  0.00     0.299 C 
ATOM      7  O   UNL d   1      33.095  19.128 -24.367  0.00  0.00    -0.263 OA
ATOM      8  N   UNL d   1      32.372  18.147 -23.598  0.00  0.00    -0.205 NA
BRANCH   8   9
ATOM      9  C   UNL d   1      32.255  17.671 -24.316  0.00  0.00     0.104 C 
BRANCH   9  10
ATOM     10  C   UNL d   1      31.767  16.966 -24.280  0.00  0.00     0.040 C 
BRANCH  10  11
ATOM     11  C   UNL d   1      31.047  16.909 -24.743  0.00  0.00     0.083 C 
BRANCH  11  12
ATOM     12  N   UNL d   1      30.363  16.492 -24.437  0.00  0.00    -0.285 N 
ATOM     13  C   UNL d   1      30.358  15.704 -24.101  0.00  0.00     0.183 A 
ATOM     14  N   UNL d   1      29.536  15.528 -23.871  0.00  0.00    -0.222 NA
ATOM     15  C   UNL d   1      29.059  16.187 -24.061  0.00  0.00     0.120 A 
ATOM     16  C   UNL d   1      29.558  16.799 -24.414  0.00  0.00     0.102 A 
ENDBRANCH  11  12
ENDBRANCH  10  11
ENDBRANCH   9  10
ENDBRANCH   8   9
ENDBRANCH   1   6
BRANCH   4  17
ATOM     17  C   UNL d   1      33.013  21.537 -21.150  0.00  0.00     0.027 A 
ATOM     18  C   UNL d   1      32.863  21.636 -20.350  0.00  0.00     0.028 A 
ATOM     19  C   UNL d   1      32.834  22.380 -20.038  0.00  0.00     0.119 A 
ATOM     20  O   UNL d   1      32.699  22.643 -19.278  0.00  0.00    -0.300 OA
ATOM     21  C   UNL d   1      32.951  23.040 -20.499  0.00  0.00     0.119 A 
ATOM     22  C   UNL d   1      32.732  23.453 -19.274  0.00  0.00     0.304 A 
ATOM     23  O   UNL d   1      32.888  23.702 -20.031  0.00  0.00    -0.300 OA
ATOM     24  C   UNL d   1      33.102  22.949 -21.305  0.00  0.00     0.026 A 
ATOM     25  C   UNL d   1      33.132  22.210 -21.619  0.00  0.00     0.004 A 
ENDBRANCH   4  17
TORSDOF 6
ENDMDL
