MODEL 1
REMARK VINA RESULT:      10.6      0.000      0.000
REMARK  3 active torsions:
REMARK  status: ('A' for Active; 'I' for Inactive)
REMARK    1  A    between atoms: S_11  and  C_7 
REMARK    2  A    between atoms: C_12  and  S_11 
REMARK    3  A    between atoms: C_14  and  C_12 
ROOT
ATOM      1  N   UNL d   1      46.250 -18.248  43.499  0.00  0.00    -0.167 N 
ATOM      2  C   UNL d   1      46.219 -18.577  44.249  0.00  0.00     0.220 A 
ATOM      3  C   UNL d   1      46.393 -18.721  42.833  0.00  0.00     0.301 A 
ATOM      4  S   UNL d   1      46.068 -17.966  44.784  0.00  0.00    -0.019 SA
ATOM      5  N   UNL d   1      46.121 -17.442  43.560  0.00  0.00    -0.147 NA
ATOM      6  N   UNL d   1      46.330 -19.387  44.350  0.00  0.00    -0.121 NA
ATOM      7  C   UNL d   1      46.009 -17.267  44.356  0.00  0.00     0.163 A 
ATOM      8  N   UNL d   1      46.473 -19.867  43.699  0.00  0.00    -0.141 NA
ATOM      9  C   UNL d   1      46.504 -19.536  42.944  0.00  0.00     0.161 A 
ATOM     10  O   UNL d   1      46.423 -18.393  42.085  0.00  0.00    -0.263 OA
ATOM     11  C   UNL d   1      46.647 -20.013  42.289  0.00  0.00     0.028 C 
ENDROOT
BRANCH   7  12
ATOM     12  S   UNL d   1      45.862 -16.520  44.673  0.00  0.00    -0.059 SA
BRANCH  12  13
ATOM     13  C   UNL d   1      45.952 -15.848  44.211  0.00  0.00     0.037 C 
BRANCH  13  14
ATOM     14  C   UNL d   1      45.618 -15.132  44.459  0.00  0.00     0.006 A 
ATOM     15  C   UNL d   1      46.077 -14.447  44.470  0.00  0.00     0.001 A 
ATOM     16  C   UNL d   1      45.754 -13.734  44.714  0.00  0.00     0.000 A 
ATOM     17  C   UNL d   1      46.209 -13.056  44.725  0.00  0.00     0.000 C 
ATOM     18  C   UNL d   1      44.963 -13.699  44.951  0.00  0.00     0.000 A 
ATOM     19  C   UNL d   1      44.501 -14.382  44.942  0.00  0.00     0.000 A 
ATOM     20  C   UNL d   1      44.826 -15.098  44.696  0.00  0.00     0.001 A 
ENDBRANCH  13  14
ENDBRANCH  12  13
ENDBRANCH   7  12
TORSDOF 3
ENDMDL
MODEL 2
REMARK VINA RESULT:      12.9      2.134      4.796
REMARK  3 active torsions:
REMARK  status: ('A' for Active; 'I' for Inactive)
REMARK    1  A    between atoms: S_11  and  C_7 
REMARK    2  A    between atoms: C_12  and  S_11 
REMARK    3  A    between atoms: C_14  and  C_12 
ROOT
ATOM      1  N   UNL d   1      45.416 -14.489  44.142  0.00  0.00    -0.167 N 
ATOM      2  C   UNL d   1      45.992 -14.365  44.713  0.00  0.00     0.220 A 
ATOM      3  C   UNL d   1      45.026 -13.850  43.786  0.00  0.00     0.301 A 
ATOM      4  S   UNL d   1      46.269 -15.105  44.954  0.00  0.00    -0.019 SA
ATOM      5  N   UNL d   1      45.332 -15.295  44.024  0.00  0.00    -0.147 NA
ATOM      6  N   UNL d   1      46.189 -13.599  44.940  0.00  0.00    -0.121 NA
ATOM      7  C   UNL d   1      45.861 -15.676  44.528  0.00  0.00     0.163 A 
ATOM      8  N   UNL d   1      45.810 -12.956  44.596  0.00  0.00    -0.141 NA
ATOM      9  C   UNL d   1      45.232 -13.081  44.021  0.00  0.00     0.161 A 
ATOM     10  O   UNL d   1      44.453 -13.974  43.217  0.00  0.00    -0.263 OA
ATOM     11  C   UNL d   1      44.850 -12.441  43.673  0.00  0.00     0.028 C 
ENDROOT
BRANCH   7  12
ATOM     12  S   UNL d   1      45.964 -16.492  44.594  0.00  0.00    -0.059 SA
BRANCH  12  13
ATOM     13  C   UNL d   1      45.815 -16.984  43.954  0.00  0.00     0.037 C 
BRANCH  13  14
ATOM     14  C   UNL d   1      46.041 -17.779  43.987  0.00  0.00     0.006 A 
ATOM     15  C   UNL d   1      46.196 -18.191  43.289  0.00  0.00     0.001 A 
ATOM     16  C   UNL d   1      46.420 -18.979  43.312  0.00  0.00     0.000 A 
ATOM     17  C   UNL d   1      46.574 -19.387  42.621  0.00  0.00     0.000 C 
ATOM     18  C   UNL d   1      46.492 -19.366  44.040  0.00  0.00     0.000 A 
ATOM     19  C   UNL d   1      46.338 -18.958  44.740  0.00  0.00     0.000 A 
ATOM     20  C   UNL d   1      46.112 -18.166  44.715  0.00  0.00     0.001 A 
ENDBRANCH  13  14
ENDBRANCH  12  13
ENDBRANCH   7  12
TORSDOF 3
ENDMDL
