MODEL 1
REMARK VINA RESULT:      44.6      0.000      0.000
REMARK  7 active torsions:
REMARK  status: ('A' for Active; 'I' for Inactive)
REMARK    1  A    between atoms: N_10  and  C_1 
REMARK    2  A    between atoms: C_11  and  C_2 
REMARK    3  A    between atoms: C_7  and  S_14 
REMARK       I    between atoms: C_13  and  N_10 
REMARK    4  A    between atoms: O_18  and  C_11 
REMARK    5  A    between atoms: C_17  and  C_13 
REMARK    6  A    between atoms: S_14  and  C_17 
REMARK    7  A    between atoms: C_22  and  O_18 
ROOT
ATOM      1  C   UNL d   1      14.181  13.627  -2.735  0.00  0.00     0.119 A 
ATOM      2  C   UNL d   1      13.895  12.874  -2.550  0.00  0.00     0.088 A 
ATOM      3  S   UNL d   1      14.564  13.927  -2.088  0.00  0.00    -0.068 SA
ATOM      4  C   UNL d   1      14.113  12.712  -1.763  0.00  0.00     0.013 A 
ATOM      5  C   UNL d   1      14.529  13.364  -1.474  0.00  0.00     0.031 A 
ATOM      6  C   UNL d   1      13.924  12.001  -1.372  0.00  0.00     0.001 A 
ATOM      7  C   UNL d   1      14.861  13.473  -0.725  0.00  0.00     0.006 A 
ATOM      8  C   UNL d   1      14.109  11.781  -0.600  0.00  0.00     0.000 A 
ATOM      9  C   UNL d   1      14.854  12.949  -0.082  0.00  0.00     0.001 A 
ATOM     10  C   UNL d   1      14.522  12.204  -0.031  0.00  0.00     0.000 A 
ENDROOT
BRANCH   1  11
ATOM     11  N   UNL d   1      14.093  14.018  -3.463  0.00  0.00    -0.201 NA
ATOM     12  C   UNL d   1      14.339  14.808  -3.543  0.00  0.00     0.286 C 
ATOM     13  O   UNL d   1      14.247  15.187  -4.270  0.00  0.00    -0.265 OA
BRANCH  12  14
ATOM     14  C   UNL d   1      14.671  15.210  -2.906  0.00  0.00     0.100 C 
BRANCH  14  15
ATOM     15  S   UNL d   1      14.759  16.032  -2.934  0.00  0.00    -0.054 SA
BRANCH  15  16
ATOM     16  C   UNL d   1      14.939  16.456  -2.250  0.00  0.00     0.164 A 
ATOM     17  S   UNL d   1      15.448  16.293  -1.620  0.00  0.00    -0.039 SA
ATOM     18  C   UNL d   1      15.399  16.930  -1.085  0.00  0.00     0.134 A 
ATOM     19  C   UNL d   1      15.817  16.999  -0.374  0.00  0.00     0.030 C 
ATOM     20  N   UNL d   1      14.863  17.476  -1.391  0.00  0.00    -0.140 NA
ATOM     21  N   UNL d   1      14.576  17.190  -2.108  0.00  0.00    -0.134 NA
ENDBRANCH  15  16
ENDBRANCH  14  15
ENDBRANCH  12  14
ENDBRANCH   1  11
BRANCH   2  22
ATOM     22  C   UNL d   1      13.471  12.371  -3.048  0.00  0.00     0.302 C 
ATOM     23  O   UNL d   1      12.981  11.780  -2.730  0.00  0.00    -0.259 OA
BRANCH  22  24
ATOM     24  O   UNL d   1      13.533  12.456  -3.872  0.00  0.00    -0.271 OA
BRANCH  24  25
ATOM     25  C   UNL d   1      13.030  12.035  -4.370  0.00  0.00     0.126 C 
ATOM     26  C   UNL d   1      12.795  12.352  -5.094  0.00  0.00     0.029 C 
ENDBRANCH  24  25
ENDBRANCH  22  24
ENDBRANCH   2  22
TORSDOF 7
ENDMDL
MODEL 2
REMARK VINA RESULT:      45.9      1.522      2.932
REMARK  7 active torsions:
REMARK  status: ('A' for Active; 'I' for Inactive)
REMARK    1  A    between atoms: N_10  and  C_1 
REMARK    2  A    between atoms: C_11  and  C_2 
REMARK    3  A    between atoms: C_7  and  S_14 
REMARK       I    between atoms: C_13  and  N_10 
REMARK    4  A    between atoms: O_18  and  C_11 
REMARK    5  A    between atoms: C_17  and  C_13 
REMARK    6  A    between atoms: S_14  and  C_17 
REMARK    7  A    between atoms: C_22  and  O_18 
ROOT
ATOM      1  C   UNL d   1      14.161  13.817  -2.378  0.00  0.00     0.119 A 
ATOM      2  C   UNL d   1      14.028  13.002  -2.378  0.00  0.00     0.088 A 
ATOM      3  S   UNL d   1      13.888  14.127  -3.073  0.00  0.00    -0.068 SA
ATOM      4  C   UNL d   1      13.661  12.811  -3.100  0.00  0.00     0.013 A 
ATOM      5  C   UNL d   1      13.573  13.508  -3.533  0.00  0.00     0.031 A 
ATOM      6  C   UNL d   1      13.437  12.036  -3.309  0.00  0.00     0.001 A 
ATOM      7  C   UNL d   1      13.240  13.609  -4.284  0.00  0.00     0.006 A 
ATOM      8  C   UNL d   1      13.073  11.783  -4.003  0.00  0.00     0.000 A 
ATOM      9  C   UNL d   1      12.914  13.030  -4.781  0.00  0.00     0.001 A 
ATOM     10  C   UNL d   1      12.843  12.227  -4.653  0.00  0.00     0.000 A 
ENDROOT
BRANCH   1  11
ATOM     11  N   UNL d   1      14.517  14.254  -1.766  0.00  0.00    -0.201 NA
ATOM     12  C   UNL d   1      14.736  15.046  -1.894  0.00  0.00     0.286 C 
ATOM     13  O   UNL d   1      15.088  15.471  -1.281  0.00  0.00    -0.265 OA
BRANCH  12  14
ATOM     14  C   UNL d   1      14.603  15.405  -2.623  0.00  0.00     0.100 C 
BRANCH  14  15
ATOM     15  S   UNL d   1      14.682  16.224  -2.703  0.00  0.00    -0.054 SA
BRANCH  15  16
ATOM     16  C   UNL d   1      14.977  16.549  -3.401  0.00  0.00     0.164 A 
ATOM     17  S   UNL d   1      14.674  17.126  -3.910  0.00  0.00    -0.039 SA
ATOM     18  C   UNL d   1      15.221  17.227  -4.531  0.00  0.00     0.134 A 
ATOM     19  C   UNL d   1      15.142  17.750  -5.166  0.00  0.00     0.030 C 
ATOM     20  N   UNL d   1      15.852  16.713  -4.397  0.00  0.00    -0.140 NA
ATOM     21  N   UNL d   1      15.707  16.293  -3.703  0.00  0.00    -0.134 NA
ENDBRANCH  15  16
ENDBRANCH  14  15
ENDBRANCH  12  14
ENDBRANCH   1  11
BRANCH   2  22
ATOM     22  C   UNL d   1      14.221  12.470  -1.777  0.00  0.00     0.302 C 
ATOM     23  O   UNL d   1      15.007  12.219  -1.676  0.00  0.00    -0.259 OA
BRANCH  22  24
ATOM     24  O   UNL d   1      13.629  12.185  -1.270  0.00  0.00    -0.271 OA
BRANCH  24  25
ATOM     25  C   UNL d   1      13.832  11.781  -0.582  0.00  0.00     0.126 C 
ATOM     26  C   UNL d   1      14.324  12.130  -0.021  0.00  0.00     0.029 C 
ENDBRANCH  24  25
ENDBRANCH  22  24
ENDBRANCH   2  22
TORSDOF 7
ENDMDL
MODEL 3
REMARK VINA RESULT:      47.2      1.943      4.058
REMARK  7 active torsions:
REMARK  status: ('A' for Active; 'I' for Inactive)
REMARK    1  A    between atoms: N_10  and  C_1 
REMARK    2  A    between atoms: C_11  and  C_2 
REMARK    3  A    between atoms: C_7  and  S_14 
REMARK       I    between atoms: C_13  and  N_10 
REMARK    4  A    between atoms: O_18  and  C_11 
REMARK    5  A    between atoms: C_17  and  C_13 
REMARK    6  A    between atoms: S_14  and  C_17 
REMARK    7  A    between atoms: C_22  and  O_18 
ROOT
ATOM      1  C   UNL d   1      14.200  13.185  -1.691  0.00  0.00     0.119 A 
ATOM      2  C   UNL d   1      14.545  13.282  -0.947  0.00  0.00     0.088 A 
ATOM      3  S   UNL d   1      14.219  13.893  -2.083  0.00  0.00    -0.068 SA
ATOM      4  C   UNL d   1      14.781  14.079  -0.885  0.00  0.00     0.013 A 
ATOM      5  C   UNL d   1      14.579  14.459  -1.589  0.00  0.00     0.031 A 
ATOM      6  C   UNL d   1      15.153  14.395  -0.210  0.00  0.00     0.001 A 
ATOM      7  C   UNL d   1      14.697  15.250  -1.799  0.00  0.00     0.006 A 
ATOM      8  C   UNL d   1      15.409  15.168  -0.088  0.00  0.00     0.000 A 
ATOM      9  C   UNL d   1      15.049  15.851  -1.348  0.00  0.00     0.001 A 
ATOM     10  C   UNL d   1      15.361  15.811  -0.594  0.00  0.00     0.000 A 
ENDROOT
BRANCH   1  11
ATOM     11  N   UNL d   1      13.884  12.478  -1.995  0.00  0.00    -0.201 NA
ATOM     12  C   UNL d   1      13.461  12.486  -2.710  0.00  0.00     0.286 C 
ATOM     13  O   UNL d   1      13.152  11.779  -3.003  0.00  0.00    -0.265 OA
BRANCH  12  14
ATOM     14  C   UNL d   1      13.350  13.188  -3.124  0.00  0.00     0.100 C 
BRANCH  14  15
ATOM     15  S   UNL d   1      12.880  13.199  -3.805  0.00  0.00    -0.054 SA
BRANCH  15  16
ATOM     16  C   UNL d   1      13.122  12.802  -4.486  0.00  0.00     0.164 A 
ATOM     17  S   UNL d   1      13.609  13.032  -5.113  0.00  0.00    -0.039 SA
ATOM     18  C   UNL d   1      13.653  12.393  -5.646  0.00  0.00     0.134 A 
ATOM     19  C   UNL d   1      14.081  12.380  -6.353  0.00  0.00     0.030 C 
ATOM     20  N   UNL d   1      13.194  11.779  -5.342  0.00  0.00    -0.140 NA
ATOM     21  N   UNL d   1      12.864  12.025  -4.628  0.00  0.00    -0.134 NA
ENDBRANCH  15  16
ENDBRANCH  14  15
ENDBRANCH  12  14
ENDBRANCH   1  11
BRANCH   2  22
ATOM     22  C   UNL d   1      14.641  12.703  -0.368  0.00  0.00     0.302 C 
ATOM     23  O   UNL d   1      13.977  12.344  -0.020  0.00  0.00    -0.259 OA
BRANCH  22  24
ATOM     24  O   UNL d   1      15.403  12.476  -0.130  0.00  0.00    -0.271 OA
BRANCH  24  25
ATOM     25  C   UNL d   1      15.738  11.781  -0.420  0.00  0.00     0.126 C 
ATOM     26  C   UNL d   1      16.197  11.790  -1.105  0.00  0.00     0.029 C 
ENDBRANCH  24  25
ENDBRANCH  22  24
ENDBRANCH   2  22
TORSDOF 7
ENDMDL
MODEL 4
REMARK VINA RESULT:      47.3      1.883      3.506
REMARK  7 active torsions:
REMARK  status: ('A' for Active; 'I' for Inactive)
REMARK    1  A    between atoms: N_10  and  C_1 
REMARK    2  A    between atoms: C_11  and  C_2 
REMARK    3  A    between atoms: C_7  and  S_14 
REMARK       I    between atoms: C_13  and  N_10 
REMARK    4  A    between atoms: O_18  and  C_11 
REMARK    5  A    between atoms: C_17  and  C_13 
REMARK    6  A    between atoms: S_14  and  C_17 
REMARK    7  A    between atoms: C_22  and  O_18 
ROOT
ATOM      1  C   UNL d   1      13.618  14.416  -3.435  0.00  0.00     0.119 A 
ATOM      2  C   UNL d   1      13.533  14.325  -4.252  0.00  0.00     0.088 A 
ATOM      3  S   UNL d   1      13.441  13.714  -3.074  0.00  0.00    -0.068 SA
ATOM      4  C   UNL d   1      13.297  13.539  -4.391  0.00  0.00     0.013 A 
ATOM      5  C   UNL d   1      13.239  13.157  -3.662  0.00  0.00     0.031 A 
ATOM      6  C   UNL d   1      13.154  13.232  -5.153  0.00  0.00     0.001 A 
ATOM      7  C   UNL d   1      13.024  12.374  -3.505  0.00  0.00     0.006 A 
ATOM      8  C   UNL d   1      12.919  12.468  -5.355  0.00  0.00     0.000 A 
ATOM      9  C   UNL d   1      12.815  11.784  -4.049  0.00  0.00     0.001 A 
ATOM     10  C   UNL d   1      12.770  11.829  -4.863  0.00  0.00     0.000 A 
ENDROOT
BRANCH   1  11
ATOM     11  N   UNL d   1      13.846  15.112  -3.042  0.00  0.00    -0.201 NA
ATOM     12  C   UNL d   1      14.164  15.070  -2.275  0.00  0.00     0.286 C 
ATOM     13  O   UNL d   1      14.387  15.767  -1.894  0.00  0.00    -0.265 OA
BRANCH  12  14
ATOM     14  C   UNL d   1      14.256  14.345  -1.898  0.00  0.00     0.100 C 
BRANCH  14  15
ATOM     15  S   UNL d   1      14.357  14.313  -1.078  0.00  0.00    -0.054 SA
BRANCH  15  16
ATOM     16  C   UNL d   1      14.815  13.717  -0.737  0.00  0.00     0.164 A 
ATOM     17  S   UNL d   1      14.720  12.897  -0.712  0.00  0.00    -0.039 SA
ATOM     18  C   UNL d   1      15.363  12.581  -0.286  0.00  0.00     0.134 A 
ATOM     19  C   UNL d   1      15.492  11.780  -0.126  0.00  0.00     0.030 C 
ATOM     20  N   UNL d   1      15.845  13.209  -0.055  0.00  0.00    -0.140 NA
ATOM     21  N   UNL d   1      15.513  13.911  -0.329  0.00  0.00    -0.134 NA
ENDBRANCH  15  16
ENDBRANCH  14  15
ENDBRANCH  12  14
ENDBRANCH   1  11
BRANCH   2  22
ATOM     22  C   UNL d   1      13.659  14.902  -4.828  0.00  0.00     0.302 C 
ATOM     23  O   UNL d   1      13.044  15.417  -5.047  0.00  0.00    -0.259 OA
BRANCH  22  24
ATOM     24  O   UNL d   1      14.402  14.970  -5.192  0.00  0.00    -0.271 OA
BRANCH  24  25
ATOM     25  C   UNL d   1      14.484  15.399  -5.891  0.00  0.00     0.126 C 
ATOM     26  C   UNL d   1      15.048  15.996  -5.952  0.00  0.00     0.029 C 
ENDBRANCH  24  25
ENDBRANCH  22  24
ENDBRANCH   2  22
TORSDOF 7
ENDMDL
