MODEL 1
REMARK VINA RESULT:      -7.2      0.000      0.000
REMARK  3 active torsions:
REMARK  status: ('A' for Active; 'I' for Inactive)
REMARK    1  A    between atoms: S_2  and  C_5 
REMARK    2  A    between atoms: C_7  and  S_2 
REMARK    3  A    between atoms: C_3  and  C_7 
ROOT
ATOM      1  C   UNL d   1     -47.752  13.088  23.186  0.00  0.00     0.087 A 
ATOM      2  N   UNL d   1     -48.434  12.658  23.372  0.00  0.00    -0.244 NA
ATOM      3  C   UNL d   1     -47.807  13.875  22.952  0.00  0.00     0.043 A 
ATOM      4  C   UNL d   1     -47.017  12.717  23.237  0.00  0.00     0.018 A 
ATOM      5  C   UNL d   1     -46.394  13.936  22.816  0.00  0.00     0.001 A 
ATOM      6  C   UNL d   1     -48.372  11.867  23.606  0.00  0.00     0.099 A 
ATOM      7  C   UNL d   1     -47.126  14.305  22.766  0.00  0.00     0.008 A 
ATOM      8  C   UNL d   1     -46.336  13.146  23.050  0.00  0.00     0.002 A 
ATOM      9  C   UNL d   1     -46.950  11.937  23.467  0.00  0.00     0.003 A 
ATOM     10  C   UNL d   1     -47.628  11.506  23.654  0.00  0.00     0.021 A 
ENDROOT
BRANCH   3  11
ATOM     11  S   UNL d   1     -48.552  14.237  22.905  0.00  0.00    -0.101 SA
BRANCH  11  12
ATOM     12  C   UNL d   1     -48.822  15.017  22.785  0.00  0.00     0.160 C 
BRANCH  12  13
ATOM     13  C   UNL d   1     -49.554  15.400  22.852  0.00  0.00     0.197 C 
ATOM     14  O   UNL d   1     -50.094  15.374  22.226  0.00  0.00    -0.647 OA
ATOM     15  O   UNL d   1     -49.745  15.811  23.544  0.00  0.00    -0.647 OA
ENDBRANCH  12  13
ENDBRANCH  11  12
ENDBRANCH   3  11
TORSDOF 3
ENDMDL
MODEL 2
REMARK VINA RESULT:      -7.0      2.193      3.142
REMARK  3 active torsions:
REMARK  status: ('A' for Active; 'I' for Inactive)
REMARK    1  A    between atoms: S_2  and  C_5 
REMARK    2  A    between atoms: C_7  and  S_2 
REMARK    3  A    between atoms: C_3  and  C_7 
ROOT
ATOM      1  C   UNL d   1     -49.004  13.723  22.182  0.00  0.00     0.087 A 
ATOM      2  N   UNL d   1     -48.890  12.948  21.918  0.00  0.00    -0.244 NA
ATOM      3  C   UNL d   1     -48.382  14.143  22.522  0.00  0.00     0.043 A 
ATOM      4  C   UNL d   1     -49.748  14.071  22.101  0.00  0.00     0.018 A 
ATOM      5  C   UNL d   1     -49.236  15.264  22.705  0.00  0.00     0.001 A 
ATOM      6  C   UNL d   1     -49.519  12.532  21.578  0.00  0.00     0.099 A 
ATOM      7  C   UNL d   1     -48.496  14.918  22.786  0.00  0.00     0.008 A 
ATOM      8  C   UNL d   1     -49.861  14.846  22.365  0.00  0.00     0.002 A 
ATOM      9  C   UNL d   1     -50.371  13.666  21.766  0.00  0.00     0.003 A 
ATOM     10  C   UNL d   1     -50.262  12.892  21.501  0.00  0.00     0.021 A 
ENDROOT
BRANCH   3  11
ATOM     11  S   UNL d   1     -47.640  13.783  22.599  0.00  0.00    -0.101 SA
BRANCH  11  12
ATOM     12  C   UNL d   1     -46.896  14.022  22.892  0.00  0.00     0.160 C 
BRANCH  12  13
ATOM     13  C   UNL d   1     -46.169  13.645  23.024  0.00  0.00     0.197 C 
ATOM     14  O   UNL d   1     -46.065  13.168  23.692  0.00  0.00    -0.647 OA
ATOM     15  O   UNL d   1     -45.548  13.744  22.488  0.00  0.00    -0.647 OA
ENDBRANCH  12  13
ENDBRANCH  11  12
ENDBRANCH   3  11
TORSDOF 3
ENDMDL
MODEL 3
REMARK VINA RESULT:      -7.0      2.387      3.439
REMARK  3 active torsions:
REMARK  status: ('A' for Active; 'I' for Inactive)
REMARK    1  A    between atoms: S_2  and  C_5 
REMARK    2  A    between atoms: C_7  and  S_2 
REMARK    3  A    between atoms: C_3  and  C_7 
ROOT
ATOM      1  C   UNL d   1     -49.020  12.586  22.514  0.00  0.00     0.087 A 
ATOM      2  N   UNL d   1     -48.810  13.118  21.917  0.00  0.00    -0.244 NA
ATOM      3  C   UNL d   1     -48.455  12.316  23.049  0.00  0.00     0.043 A 
ATOM      4  C   UNL d   1     -49.802  12.328  22.566  0.00  0.00     0.018 A 
ATOM      5  C   UNL d   1     -49.443  11.528  23.698  0.00  0.00     0.001 A 
ATOM      6  C   UNL d   1     -49.382  13.385  21.382  0.00  0.00     0.099 A 
ATOM      7  C   UNL d   1     -48.665  11.784  23.646  0.00  0.00     0.008 A 
ATOM      8  C   UNL d   1     -50.011  11.796  23.163  0.00  0.00     0.002 A 
ATOM      9  C   UNL d   1     -50.371  12.588  22.042  0.00  0.00     0.003 A 
ATOM     10  C   UNL d   1     -50.165  13.119  21.445  0.00  0.00     0.021 A 
ENDROOT
BRANCH   3  11
ATOM     11  S   UNL d   1     -47.672  12.582  22.986  0.00  0.00    -0.101 SA
BRANCH  11  12
ATOM     12  C   UNL d   1     -46.976  12.479  23.434  0.00  0.00     0.160 C 
BRANCH  12  13
ATOM     13  C   UNL d   1     -46.190  12.730  23.362  0.00  0.00     0.197 C 
ATOM     14  O   UNL d   1     -46.015  13.538  23.330  0.00  0.00    -0.647 OA
ATOM     15  O   UNL d   1     -45.579  12.174  23.321  0.00  0.00    -0.647 OA
ENDBRANCH  12  13
ENDBRANCH  11  12
ENDBRANCH   3  11
TORSDOF 3
ENDMDL
MODEL 4
REMARK VINA RESULT:      -6.9      1.656      2.520
REMARK  3 active torsions:
REMARK  status: ('A' for Active; 'I' for Inactive)
REMARK    1  A    between atoms: S_2  and  C_5 
REMARK    2  A    between atoms: C_7  and  S_2 
REMARK    3  A    between atoms: C_3  and  C_7 
ROOT
ATOM      1  C   UNL d   1     -47.603  12.882  23.181  0.00  0.00     0.087 A 
ATOM      2  N   UNL d   1     -47.855  13.625  22.921  0.00  0.00    -0.244 NA
ATOM      3  C   UNL d   1     -48.150  12.283  23.322  0.00  0.00     0.043 A 
ATOM      4  C   UNL d   1     -46.797  12.749  23.297  0.00  0.00     0.018 A 
ATOM      5  C   UNL d   1     -47.096  11.407  23.698  0.00  0.00     0.001 A 
ATOM      6  C   UNL d   1     -47.301  14.223  22.780  0.00  0.00     0.099 A 
ATOM      7  C   UNL d   1     -47.898  11.539  23.582  0.00  0.00     0.008 A 
ATOM      8  C   UNL d   1     -46.545  12.005  23.557  0.00  0.00     0.002 A 
ATOM      9  C   UNL d   1     -46.246  13.334  23.160  0.00  0.00     0.003 A 
ATOM     10  C   UNL d   1     -46.494  14.077  22.900  0.00  0.00     0.021 A 
ENDROOT
BRANCH   3  11
ATOM     11  S   UNL d   1     -48.957  12.429  23.202  0.00  0.00    -0.101 SA
BRANCH  11  12
ATOM     12  C   UNL d   1     -49.643  11.956  23.166  0.00  0.00     0.160 C 
BRANCH  12  13
ATOM     13  C   UNL d   1     -50.448  12.100  23.027  0.00  0.00     0.197 C 
ATOM     14  O   UNL d   1     -50.983  12.101  23.658  0.00  0.00    -0.647 OA
ATOM     15  O   UNL d   1     -50.716  12.242  22.258  0.00  0.00    -0.647 OA
ENDBRANCH  12  13
ENDBRANCH  11  12
ENDBRANCH   3  11
TORSDOF 3
ENDMDL
MODEL 5
REMARK VINA RESULT:      -6.4      2.096      3.325
REMARK  3 active torsions:
REMARK  status: ('A' for Active; 'I' for Inactive)
REMARK    1  A    between atoms: S_2  and  C_5 
REMARK    2  A    between atoms: C_7  and  S_2 
REMARK    3  A    between atoms: C_3  and  C_7 
ROOT
ATOM      1  C   UNL d   1     -49.287  14.279  23.114  0.00  0.00     0.087 A 
ATOM      2  N   UNL d   1     -49.974  13.975  23.462  0.00  0.00    -0.244 NA
ATOM      3  C   UNL d   1     -48.672  13.776  22.898  0.00  0.00     0.043 A 
ATOM      4  C   UNL d   1     -49.227  15.092  22.987  0.00  0.00     0.018 A 
ATOM      5  C   UNL d   1     -47.926  14.889  22.424  0.00  0.00     0.001 A 
ATOM      6  C   UNL d   1     -50.588  14.486  23.677  0.00  0.00     0.099 A 
ATOM      7  C   UNL d   1     -47.986  14.079  22.550  0.00  0.00     0.008 A 
ATOM      8  C   UNL d   1     -48.540  15.395  22.640  0.00  0.00     0.002 A 
ATOM      9  C   UNL d   1     -49.829  15.600  23.197  0.00  0.00     0.003 A 
ATOM     10  C   UNL d   1     -50.515  15.301  23.544  0.00  0.00     0.021 A 
ENDROOT
BRANCH   3  11
ATOM     11  S   UNL d   1     -48.745  12.961  23.030  0.00  0.00    -0.101 SA
BRANCH  11  12
ATOM     12  C   UNL d   1     -48.252  12.298  22.914  0.00  0.00     0.160 C 
BRANCH  12  13
ATOM     13  C   UNL d   1     -48.344  11.478  22.991  0.00  0.00     0.197 C 
ATOM     14  O   UNL d   1     -48.118  11.100  23.691  0.00  0.00    -0.647 OA
ATOM     15  O   UNL d   1     -48.662  11.037  22.368  0.00  0.00    -0.647 OA
ENDBRANCH  12  13
ENDBRANCH  11  12
ENDBRANCH   3  11
TORSDOF 3
ENDMDL
MODEL 6
REMARK VINA RESULT:      -6.0      1.318      2.027
REMARK  3 active torsions:
REMARK  status: ('A' for Active; 'I' for Inactive)
REMARK    1  A    between atoms: S_2  and  C_5 
REMARK    2  A    between atoms: C_7  and  S_2 
REMARK    3  A    between atoms: C_3  and  C_7 
ROOT
ATOM      1  C   UNL d   1     -48.848  12.506  23.306  0.00  0.00     0.087 A 
ATOM      2  N   UNL d   1     -49.577  12.874  23.174  0.00  0.00    -0.244 NA
ATOM      3  C   UNL d   1     -48.145  12.915  23.178  0.00  0.00     0.043 A 
ATOM      4  C   UNL d   1     -48.835  11.723  23.566  0.00  0.00     0.018 A 
ATOM      5  C   UNL d   1     -47.404  11.767  23.568  0.00  0.00     0.001 A 
ATOM      6  C   UNL d   1     -50.279  12.458  23.305  0.00  0.00     0.099 A 
ATOM      7  C   UNL d   1     -47.416  12.546  23.309  0.00  0.00     0.008 A 
ATOM      8  C   UNL d   1     -48.106  11.354  23.697  0.00  0.00     0.002 A 
ATOM      9  C   UNL d   1     -49.524  11.307  23.697  0.00  0.00     0.003 A 
ATOM     10  C   UNL d   1     -50.253  11.672  23.567  0.00  0.00     0.021 A 
ENDROOT
BRANCH   3  11
ATOM     11  S   UNL d   1     -48.171  13.701  22.916  0.00  0.00    -0.101 SA
BRANCH  11  12
ATOM     12  C   UNL d   1     -47.607  14.250  22.641  0.00  0.00     0.160 C 
BRANCH  12  13
ATOM     13  C   UNL d   1     -47.618  15.057  22.450  0.00  0.00     0.197 C 
ATOM     14  O   UNL d   1     -48.297  15.394  22.120  0.00  0.00    -0.647 OA
ATOM     15  O   UNL d   1     -46.951  15.525  22.589  0.00  0.00    -0.647 OA
ENDBRANCH  12  13
ENDBRANCH  11  12
ENDBRANCH   3  11
TORSDOF 3
ENDMDL
MODEL 7
REMARK VINA RESULT:      -5.7      2.543      3.357
REMARK  3 active torsions:
REMARK  status: ('A' for Active; 'I' for Inactive)
REMARK    1  A    between atoms: S_2  and  C_5 
REMARK    2  A    between atoms: C_7  and  S_2 
REMARK    3  A    between atoms: C_3  and  C_7 
ROOT
ATOM      1  C   UNL d   1     -47.801  13.337  22.853  0.00  0.00     0.087 A 
ATOM      2  N   UNL d   1     -48.417  12.799  22.971  0.00  0.00    -0.244 NA
ATOM      3  C   UNL d   1     -47.018  13.099  22.942  0.00  0.00     0.043 A 
ATOM      4  C   UNL d   1     -47.980  14.114  22.644  0.00  0.00     0.018 A 
ATOM      5  C   UNL d   1     -46.580  14.411  22.616  0.00  0.00     0.001 A 
ATOM      6  C   UNL d   1     -49.202  13.044  22.880  0.00  0.00     0.099 A 
ATOM      7  C   UNL d   1     -46.401  13.637  22.823  0.00  0.00     0.008 A 
ATOM      8  C   UNL d   1     -47.363  14.652  22.526  0.00  0.00     0.002 A 
ATOM      9  C   UNL d   1     -48.752  14.362  22.553  0.00  0.00     0.003 A 
ATOM     10  C   UNL d   1     -49.370  13.828  22.670  0.00  0.00     0.021 A 
ENDROOT
BRANCH   3  11
ATOM     11  S   UNL d   1     -46.850  12.315  23.151  0.00  0.00    -0.101 SA
BRANCH  11  12
ATOM     12  C   UNL d   1     -46.268  11.940  23.617  0.00  0.00     0.160 C 
BRANCH  12  13
ATOM     13  C   UNL d   1     -45.965  11.170  23.671  0.00  0.00     0.197 C 
ATOM     14  O   UNL d   1     -46.481  10.524  23.697  0.00  0.00    -0.647 OA
ATOM     15  O   UNL d   1     -45.148  11.047  23.697  0.00  0.00    -0.647 OA
ENDBRANCH  12  13
ENDBRANCH  11  12
ENDBRANCH   3  11
TORSDOF 3
ENDMDL
MODEL 8
REMARK VINA RESULT:      -5.4      2.871      3.486
REMARK  3 active torsions:
REMARK  status: ('A' for Active; 'I' for Inactive)
REMARK    1  A    between atoms: S_2  and  C_5 
REMARK    2  A    between atoms: C_7  and  S_2 
REMARK    3  A    between atoms: C_3  and  C_7 
ROOT
ATOM      1  C   UNL d   1     -46.777  12.575  23.039  0.00  0.00     0.087 A 
ATOM      2  N   UNL d   1     -46.548  11.799  23.211  0.00  0.00    -0.244 NA
ATOM      3  C   UNL d   1     -46.239  13.105  22.712  0.00  0.00     0.043 A 
ATOM      4  C   UNL d   1     -47.551  12.811  23.201  0.00  0.00     0.018 A 
ATOM      5  C   UNL d   1     -47.239  14.116  22.702  0.00  0.00     0.001 A 
ATOM      6  C   UNL d   1     -47.094  11.271  23.540  0.00  0.00     0.099 A 
ATOM      7  C   UNL d   1     -46.468  13.881  22.540  0.00  0.00     0.008 A 
ATOM      8  C   UNL d   1     -47.780  13.587  23.030  0.00  0.00     0.002 A 
ATOM      9  C   UNL d   1     -48.093  12.295  23.526  0.00  0.00     0.003 A 
ATOM     10  C   UNL d   1     -47.868  11.520  23.698  0.00  0.00     0.021 A 
ENDROOT
BRANCH   3  11
ATOM     11  S   UNL d   1     -45.465  12.857  22.554  0.00  0.00    -0.101 SA
BRANCH  11  12
ATOM     12  C   UNL d   1     -44.894  13.036  21.972  0.00  0.00     0.160 C 
BRANCH  12  13
ATOM     13  C   UNL d   1     -44.085  12.886  21.878  0.00  0.00     0.197 C 
ATOM     14  O   UNL d   1     -43.787  12.126  22.010  0.00  0.00    -0.647 OA
ATOM     15  O   UNL d   1     -43.573  13.496  21.653  0.00  0.00    -0.647 OA
ENDBRANCH  12  13
ENDBRANCH  11  12
ENDBRANCH   3  11
TORSDOF 3
ENDMDL
MODEL 9
REMARK VINA RESULT:      -4.9      8.340      8.998
REMARK  3 active torsions:
REMARK  status: ('A' for Active; 'I' for Inactive)
REMARK    1  A    between atoms: S_2  and  C_5 
REMARK    2  A    between atoms: C_7  and  S_2 
REMARK    3  A    between atoms: C_3  and  C_7 
ROOT
ATOM      1  C   UNL d   1     -39.923  14.910  20.121  0.00  0.00     0.087 A 
ATOM      2  N   UNL d   1     -39.350  14.400  19.810  0.00  0.00    -0.244 NA
ATOM      3  C   UNL d   1     -40.407  15.347  19.619  0.00  0.00     0.043 A 
ATOM      4  C   UNL d   1     -40.001  14.975  20.939  0.00  0.00     0.018 A 
ATOM      5  C   UNL d   1     -41.058  15.922  20.744  0.00  0.00     0.001 A 
ATOM      6  C   UNL d   1     -38.866  13.964  20.320  0.00  0.00     0.099 A 
ATOM      7  C   UNL d   1     -40.980  15.857  19.929  0.00  0.00     0.008 A 
ATOM      8  C   UNL d   1     -40.574  15.485  21.250  0.00  0.00     0.002 A 
ATOM      9  C   UNL d   1     -39.527  14.548  21.447  0.00  0.00     0.003 A 
ATOM     10  C   UNL d   1     -38.955  14.038  21.141  0.00  0.00     0.021 A 
ENDROOT
BRANCH   3  11
ATOM     11  S   UNL d   1     -40.318  15.274  18.798  0.00  0.00    -0.101 SA
BRANCH  11  12
ATOM     12  C   UNL d   1     -40.704  15.595  18.131  0.00  0.00     0.160 C 
BRANCH  12  13
ATOM     13  C   UNL d   1     -40.667  15.465  17.313  0.00  0.00     0.197 C 
ATOM     14  O   UNL d   1     -41.228  14.982  16.945  0.00  0.00    -0.647 OA
ATOM     15  O   UNL d   1     -40.068  15.819  16.865  0.00  0.00    -0.647 OA
ENDBRANCH  12  13
ENDBRANCH  11  12
ENDBRANCH   3  11
TORSDOF 3
ENDMDL
