MODEL 1
REMARK VINA RESULT:      -8.7      0.000      0.000
REMARK  6 active torsions:
REMARK  status: ('A' for Active; 'I' for Inactive)
REMARK    1  A    between atoms: N_6  and  C_1 
REMARK    2  A    between atoms: C_18  and  N_4 
REMARK       I    between atoms: C_8  and  N_6 
REMARK    3  A    between atoms: C_7  and  C_8 
REMARK    4  A    between atoms: C_11  and  C_7 
REMARK    5  A    between atoms: C_19  and  C_9 
REMARK    6  A    between atoms: C_12  and  C_11 
ROOT
ATOM      1  C   UNL d   1      50.439  34.157  52.360  0.00  0.00     0.128 C 
ATOM      2  C   UNL d   1      50.331  34.309  51.575  0.00  0.00     0.106 C 
ATOM      3  N   UNL d   1      50.161  34.476  50.755  0.00  0.00    -0.191 NA
ENDROOT
BRANCH   1   4
ATOM      4  C   UNL d   1      51.214  33.998  52.643  0.00  0.00     0.289 C 
ATOM      5  N   UNL d   1      51.320  33.333  53.116  0.00  0.00    -0.201 NA
ATOM      6  O   UNL d   1      51.821  34.474  52.460  0.00  0.00    -0.264 OA
BRANCH   5   7
ATOM      7  C   UNL d   1      52.097  33.168  53.403  0.00  0.00     0.160 A 
ATOM      8  C   UNL d   1      52.578  33.615  53.905  0.00  0.00     0.298 A 
ATOM      9  N   UNL d   1      53.283  33.184  53.999  0.00  0.00    -0.209 N 
ATOM     10  O   UNL d   1      52.420  34.317  54.242  0.00  0.00    -0.263 OA
ATOM     11  N   UNL d   1      53.193  32.503  53.552  0.00  0.00    -0.238 N 
ATOM     12  C   UNL d   1      52.477  32.460  53.172  0.00  0.00     0.104 A 
ATOM     13  C   UNL d   1      53.803  31.894  53.493  0.00  0.00     0.120 C 
ATOM     14  C   UNL d   1      52.216  31.850  52.682  0.00  0.00     0.022 C 
BRANCH   9  15
ATOM     15  C   UNL d   1      53.961  33.357  54.437  0.00  0.00     0.085 A 
ATOM     16  C   UNL d   1      53.973  33.166  55.240  0.00  0.00     0.019 A 
ATOM     17  C   UNL d   1      54.657  33.339  55.690  0.00  0.00     0.002 A 
ATOM     18  C   UNL d   1      55.307  33.694  55.334  0.00  0.00     0.000 A 
ATOM     19  C   UNL d   1      55.288  33.885  54.519  0.00  0.00     0.002 A 
ATOM     20  C   UNL d   1      54.610  33.712  54.081  0.00  0.00     0.019 A 
ENDBRANCH   9  15
ENDBRANCH   5   7
ENDBRANCH   1   4
BRANCH   1  21
ATOM     21  C   UNL d   1      49.826  34.149  52.910  0.00  0.00     0.040 C 
BRANCH  21  22
ATOM     22  C   UNL d   1      49.267  34.813  52.951  0.00  0.00     0.101 A 
ATOM     23  O   UNL d   1      48.495  34.867  52.577  0.00  0.00    -0.307 OA
ATOM     24  C   UNL d   1      48.180  35.601  52.780  0.00  0.00     0.100 A 
ATOM     25  C   UNL d   1      48.726  35.980  53.254  0.00  0.00     0.027 A 
ATOM     26  C   UNL d   1      49.383  35.473  53.342  0.00  0.00     0.027 A 
BRANCH  24  27
ATOM     27  C   UNL d   1      47.427  35.881  52.529  0.00  0.00     0.023 A 
ATOM     28  C   UNL d   1      47.162  35.700  51.780  0.00  0.00     0.003 A 
ATOM     29  C   UNL d   1      46.409  35.981  51.529  0.00  0.00     0.011 A 
ATOM     30  C   UNL d   1      45.960  36.428  52.040  0.00  0.00     0.058 A 
ATOM     31  C   UNL d   1      46.224  36.609  52.788  0.00  0.00     0.011 A 
ATOM     32 CL   UNL d   1      45.206  36.709  51.789  0.00  0.00    -0.082 Cl
ATOM     33  C   UNL d   1      46.977  36.328  53.039  0.00  0.00     0.003 A 
ENDBRANCH  24  27
ENDBRANCH  21  22
ENDBRANCH   1  21
TORSDOF 6
ENDMDL
MODEL 2
REMARK VINA RESULT:      -7.9      2.551      6.499
REMARK  6 active torsions:
REMARK  status: ('A' for Active; 'I' for Inactive)
REMARK    1  A    between atoms: N_6  and  C_1 
REMARK    2  A    between atoms: C_18  and  N_4 
REMARK       I    between atoms: C_8  and  N_6 
REMARK    3  A    between atoms: C_7  and  C_8 
REMARK    4  A    between atoms: C_11  and  C_7 
REMARK    5  A    between atoms: C_19  and  C_9 
REMARK    6  A    between atoms: C_12  and  C_11 
ROOT
ATOM      1  C   UNL d   1      51.248  34.383  52.937  0.00  0.00     0.128 C 
ATOM      2  C   UNL d   1      51.682  34.765  53.500  0.00  0.00     0.106 C 
ATOM      3  N   UNL d   1      52.188  35.143  54.074  0.00  0.00    -0.191 NA
ENDROOT
BRANCH   1   4
ATOM      4  C   UNL d   1      50.418  34.510  52.905  0.00  0.00     0.289 C 
ATOM      5  N   UNL d   1      50.137  35.092  52.396  0.00  0.00    -0.201 NA
ATOM      6  O   UNL d   1      49.922  34.081  53.353  0.00  0.00    -0.264 OA
BRANCH   5   7
ATOM      7  C   UNL d   1      49.303  35.223  52.360  0.00  0.00     0.160 A 
ATOM      8  C   UNL d   1      48.811  35.619  52.892  0.00  0.00     0.298 A 
ATOM      9  N   UNL d   1      48.042  35.577  52.576  0.00  0.00    -0.209 N 
ATOM     10  O   UNL d   1      49.008  35.976  53.574  0.00  0.00    -0.263 OA
ATOM     11  N   UNL d   1      48.110  35.159  51.874  0.00  0.00    -0.238 N 
ATOM     12  C   UNL d   1      48.870  34.926  51.710  0.00  0.00     0.104 A 
ATOM     13  C   UNL d   1      47.436  34.986  51.362  0.00  0.00     0.120 C 
ATOM     14  C   UNL d   1      49.123  34.500  51.050  0.00  0.00     0.022 C 
BRANCH   9  15
ATOM     15  C   UNL d   1      47.329  35.872  52.865  0.00  0.00     0.085 A 
ATOM     16  C   UNL d   1      47.062  35.614  53.602  0.00  0.00     0.019 A 
ATOM     17  C   UNL d   1      46.338  35.910  53.901  0.00  0.00     0.002 A 
ATOM     18  C   UNL d   1      45.902  36.451  53.464  0.00  0.00     0.000 A 
ATOM     19  C   UNL d   1      46.178  36.709  52.717  0.00  0.00     0.002 A 
ATOM     20  C   UNL d   1      46.892  36.413  52.428  0.00  0.00     0.019 A 
ENDBRANCH   9  15
ENDBRANCH   5   7
ENDBRANCH   1   4
BRANCH   1  21
ATOM     21  C   UNL d   1      51.574  33.869  52.383  0.00  0.00     0.040 C 
BRANCH  21  22
ATOM     22  C   UNL d   1      52.180  33.295  52.623  0.00  0.00     0.101 A 
ATOM     23  O   UNL d   1      52.057  32.479  52.864  0.00  0.00    -0.307 OA
ATOM     24  C   UNL d   1      52.800  32.165  53.037  0.00  0.00     0.100 A 
ATOM     25  C   UNL d   1      53.351  32.754  52.910  0.00  0.00     0.027 A 
ATOM     26  C   UNL d   1      52.942  33.436  52.656  0.00  0.00     0.027 A 
BRANCH  24  27
ATOM     27  C   UNL d   1      52.934  31.375  53.296  0.00  0.00     0.023 A 
ATOM     28  C   UNL d   1      53.469  31.237  53.894  0.00  0.00     0.003 A 
ATOM     29  C   UNL d   1      53.603  30.447  54.153  0.00  0.00     0.011 A 
ATOM     30  C   UNL d   1      53.196  29.837  53.800  0.00  0.00     0.058 A 
ATOM     31  C   UNL d   1      52.661  29.975  53.203  0.00  0.00     0.011 A 
ATOM     32 CL   UNL d   1      53.330  29.046  54.059  0.00  0.00    -0.082 Cl
ATOM     33  C   UNL d   1      52.527  30.765  52.944  0.00  0.00     0.003 A 
ENDBRANCH  24  27
ENDBRANCH  21  22
ENDBRANCH   1  21
TORSDOF 6
ENDMDL
MODEL 3
REMARK VINA RESULT:      -7.7      1.372      2.150
REMARK  6 active torsions:
REMARK  status: ('A' for Active; 'I' for Inactive)
REMARK    1  A    between atoms: N_6  and  C_1 
REMARK    2  A    between atoms: C_18  and  N_4 
REMARK       I    between atoms: C_8  and  N_6 
REMARK    3  A    between atoms: C_7  and  C_8 
REMARK    4  A    between atoms: C_11  and  C_7 
REMARK    5  A    between atoms: C_19  and  C_9 
REMARK    6  A    between atoms: C_12  and  C_11 
ROOT
ATOM      1  C   UNL d   1      49.773  34.734  52.506  0.00  0.00     0.128 C 
ATOM      2  C   UNL d   1      49.402  34.492  51.831  0.00  0.00     0.106 C 
ATOM      3  N   UNL d   1      48.979  34.284  51.119  0.00  0.00    -0.191 NA
ENDROOT
BRANCH   1   4
ATOM      4  C   UNL d   1      50.374  34.251  52.838  0.00  0.00     0.289 C 
ATOM      5  N   UNL d   1      51.157  34.465  52.701  0.00  0.00    -0.201 NA
ATOM      6  O   UNL d   1      50.192  33.611  53.269  0.00  0.00    -0.264 OA
BRANCH   5   7
ATOM      7  C   UNL d   1      51.766  33.982  53.033  0.00  0.00     0.160 A 
ATOM      8  C   UNL d   1      52.026  33.233  52.804  0.00  0.00     0.298 A 
ATOM      9  N   UNL d   1      52.638  33.025  53.328  0.00  0.00    -0.209 N 
ATOM     10  O   UNL d   1      51.761  32.781  52.206  0.00  0.00    -0.263 OA
ATOM     11  N   UNL d   1      52.715  33.657  53.844  0.00  0.00    -0.238 N 
ATOM     12  C   UNL d   1      52.196  34.262  53.693  0.00  0.00     0.104 A 
ATOM     13  C   UNL d   1      53.295  33.673  54.486  0.00  0.00     0.120 C 
ATOM     14  C   UNL d   1      52.132  34.972  54.110  0.00  0.00     0.022 C 
BRANCH   9  15
ATOM     15  C   UNL d   1      53.102  32.345  53.366  0.00  0.00     0.085 A 
ATOM     16  C   UNL d   1      52.738  31.628  53.555  0.00  0.00     0.019 A 
ATOM     17  C   UNL d   1      53.203  30.933  53.596  0.00  0.00     0.002 A 
ATOM     18  C   UNL d   1      54.010  30.966  53.449  0.00  0.00     0.000 A 
ATOM     19  C   UNL d   1      54.373  31.697  53.258  0.00  0.00     0.002 A 
ATOM     20  C   UNL d   1      53.909  32.378  53.219  0.00  0.00     0.019 A 
ENDBRANCH   9  15
ENDBRANCH   5   7
ENDBRANCH   1   4
BRANCH   1  21
ATOM     21  C   UNL d   1      49.594  35.437  52.895  0.00  0.00     0.040 C 
BRANCH  21  22
ATOM     22  C   UNL d   1      48.767  35.691  52.983  0.00  0.00     0.101 A 
ATOM     23  O   UNL d   1      48.304  35.711  53.706  0.00  0.00    -0.307 OA
ATOM     24  C   UNL d   1      47.555  35.991  53.504  0.00  0.00     0.100 A 
ATOM     25  C   UNL d   1      47.555  36.136  52.700  0.00  0.00     0.027 A 
ATOM     26  C   UNL d   1      48.312  35.942  52.407  0.00  0.00     0.027 A 
BRANCH  24  27
ATOM     27  C   UNL d   1      46.923  36.099  54.050  0.00  0.00     0.023 A 
ATOM     28  C   UNL d   1      47.024  36.602  54.682  0.00  0.00     0.003 A 
ATOM     29  C   UNL d   1      46.392  36.709  55.229  0.00  0.00     0.011 A 
ATOM     30  C   UNL d   1      45.693  36.308  55.114  0.00  0.00     0.058 A 
ATOM     31  C   UNL d   1      45.593  35.805  54.483  0.00  0.00     0.011 A 
ATOM     32 CL   UNL d   1      45.061  36.415  55.661  0.00  0.00    -0.082 Cl
ATOM     33  C   UNL d   1      46.225  35.698  53.936  0.00  0.00     0.003 A 
ENDBRANCH  24  27
ENDBRANCH  21  22
ENDBRANCH   1  21
TORSDOF 6
ENDMDL
MODEL 4
REMARK VINA RESULT:      -7.6      2.480      6.766
REMARK  6 active torsions:
REMARK  status: ('A' for Active; 'I' for Inactive)
REMARK    1  A    between atoms: N_6  and  C_1 
REMARK    2  A    between atoms: C_18  and  N_4 
REMARK       I    between atoms: C_8  and  N_6 
REMARK    3  A    between atoms: C_7  and  C_8 
REMARK    4  A    between atoms: C_11  and  C_7 
REMARK    5  A    between atoms: C_19  and  C_9 
REMARK    6  A    between atoms: C_12  and  C_11 
ROOT
ATOM      1  C   UNL d   1      50.296  34.523  52.482  0.00  0.00     0.128 C 
ATOM      2  C   UNL d   1      50.616  34.422  51.748  0.00  0.00     0.106 C 
ATOM      3  N   UNL d   1      51.005  34.306  50.998  0.00  0.00    -0.191 NA
ENDROOT
BRANCH   1   4
ATOM      4  C   UNL d   1      49.474  34.683  52.551  0.00  0.00     0.289 C 
ATOM      5  N   UNL d   1      49.240  35.469  52.616  0.00  0.00    -0.201 NA
ATOM      6  O   UNL d   1      48.943  34.094  52.553  0.00  0.00    -0.264 OA
BRANCH   5   7
ATOM      7  C   UNL d   1      48.414  35.634  52.686  0.00  0.00     0.160 A 
ATOM      8  C   UNL d   1      47.811  35.542  52.130  0.00  0.00     0.298 A 
ATOM      9  N   UNL d   1      47.109  35.792  52.499  0.00  0.00    -0.209 N 
ATOM     10  O   UNL d   1      47.866  35.270  51.385  0.00  0.00    -0.263 OA
ATOM     11  N   UNL d   1      47.324  36.022  53.257  0.00  0.00    -0.238 N 
ATOM     12  C   UNL d   1      48.118  35.939  53.406  0.00  0.00     0.104 A 
ATOM     13  C   UNL d   1      46.758  36.323  53.836  0.00  0.00     0.120 C 
ATOM     14  C   UNL d   1      48.508  36.120  54.110  0.00  0.00     0.022 C 
BRANCH   9  15
ATOM     15  C   UNL d   1      46.336  35.824  52.214  0.00  0.00     0.085 A 
ATOM     16  C   UNL d   1      46.121  36.452  51.724  0.00  0.00     0.019 A 
ATOM     17  C   UNL d   1      45.338  36.491  51.430  0.00  0.00     0.002 A 
ATOM     18  C   UNL d   1      44.793  35.910  51.630  0.00  0.00     0.000 A 
ATOM     19  C   UNL d   1      45.018  35.275  52.129  0.00  0.00     0.002 A 
ATOM     20  C   UNL d   1      45.792  35.243  52.414  0.00  0.00     0.019 A 
ENDBRANCH   9  15
ENDBRANCH   5   7
ENDBRANCH   1   4
BRANCH   1  21
ATOM     21  C   UNL d   1      50.733  34.479  53.179  0.00  0.00     0.040 C 
BRANCH  21  22
ATOM     22  C   UNL d   1      51.476  34.029  53.201  0.00  0.00     0.101 A 
ATOM     23  O   UNL d   1      51.566  33.176  53.263  0.00  0.00    -0.307 OA
ATOM     24  C   UNL d   1      52.376  33.020  53.263  0.00  0.00     0.100 A 
ATOM     25  C   UNL d   1      52.765  33.735  53.203  0.00  0.00     0.027 A 
ATOM     26  C   UNL d   1      52.187  34.337  53.167  0.00  0.00     0.027 A 
BRANCH  24  27
ATOM     27  C   UNL d   1      52.711  32.250  53.315  0.00  0.00     0.023 A 
ATOM     28  C   UNL d   1      53.417  32.148  53.710  0.00  0.00     0.003 A 
ATOM     29  C   UNL d   1      53.752  31.377  53.763  0.00  0.00     0.011 A 
ATOM     30  C   UNL d   1      53.366  30.749  53.418  0.00  0.00     0.058 A 
ATOM     31  C   UNL d   1      52.661  30.851  53.024  0.00  0.00     0.011 A 
ATOM     32 CL   UNL d   1      53.702  29.978  53.470  0.00  0.00    -0.082 Cl
ATOM     33  C   UNL d   1      52.325  31.622  52.971  0.00  0.00     0.003 A 
ENDBRANCH  24  27
ENDBRANCH  21  22
ENDBRANCH   1  21
TORSDOF 6
ENDMDL
MODEL 5
REMARK VINA RESULT:      -7.3      1.546      2.540
REMARK  6 active torsions:
REMARK  status: ('A' for Active; 'I' for Inactive)
REMARK    1  A    between atoms: N_6  and  C_1 
REMARK    2  A    between atoms: C_18  and  N_4 
REMARK       I    between atoms: C_8  and  N_6 
REMARK    3  A    between atoms: C_7  and  C_8 
REMARK    4  A    between atoms: C_11  and  C_7 
REMARK    5  A    between atoms: C_19  and  C_9 
REMARK    6  A    between atoms: C_12  and  C_11 
ROOT
ATOM      1  C   UNL d   1      51.854  34.286  53.079  0.00  0.00     0.128 C 
ATOM      2  C   UNL d   1      52.130  34.978  53.390  0.00  0.00     0.106 C 
ATOM      3  N   UNL d   1      52.385  35.737  53.685  0.00  0.00    -0.191 NA
ENDROOT
BRANCH   1   4
ATOM      4  C   UNL d   1      52.175  33.558  53.352  0.00  0.00     0.289 C 
ATOM      5  N   UNL d   1      52.640  33.125  52.830  0.00  0.00    -0.201 NA
ATOM      6  O   UNL d   1      52.033  33.300  54.088  0.00  0.00    -0.264 OA
BRANCH   5   7
ATOM      7  C   UNL d   1      52.965  32.393  53.099  0.00  0.00     0.160 A 
ATOM      8  C   UNL d   1      52.596  31.662  53.204  0.00  0.00     0.298 A 
ATOM      9  N   UNL d   1      53.183  31.140  53.480  0.00  0.00    -0.209 N 
ATOM     10  O   UNL d   1      51.836  31.470  53.075  0.00  0.00    -0.263 OA
ATOM     11  N   UNL d   1      53.872  31.581  53.527  0.00  0.00    -0.238 N 
ATOM     12  C   UNL d   1      53.776  32.354  53.301  0.00  0.00     0.104 A 
ATOM     13  C   UNL d   1      54.626  31.251  53.792  0.00  0.00     0.120 C 
ATOM     14  C   UNL d   1      54.358  32.939  53.284  0.00  0.00     0.022 C 
BRANCH   9  15
ATOM     15  C   UNL d   1      53.137  30.341  53.679  0.00  0.00     0.085 A 
ATOM     16  C   UNL d   1      53.028  29.788  53.076  0.00  0.00     0.019 A 
ATOM     17  C   UNL d   1      52.980  28.975  53.271  0.00  0.00     0.002 A 
ATOM     18  C   UNL d   1      53.042  28.734  54.054  0.00  0.00     0.000 A 
ATOM     19  C   UNL d   1      53.153  29.300  54.661  0.00  0.00     0.002 A 
ATOM     20  C   UNL d   1      53.199  30.100  54.462  0.00  0.00     0.019 A 
ENDBRANCH   9  15
ENDBRANCH   5   7
ENDBRANCH   1   4
BRANCH   1  21
ATOM     21  C   UNL d   1      51.269  34.248  52.502  0.00  0.00     0.040 C 
BRANCH  21  22
ATOM     22  C   UNL d   1      50.467  34.535  52.673  0.00  0.00     0.101 A 
ATOM     23  O   UNL d   1      49.858  34.747  52.104  0.00  0.00    -0.307 OA
ATOM     24  C   UNL d   1      49.198  34.986  52.537  0.00  0.00     0.100 A 
ATOM     25  C   UNL d   1      49.388  34.926  53.329  0.00  0.00     0.027 A 
ATOM     26  C   UNL d   1      50.173  34.647  53.382  0.00  0.00     0.027 A 
BRANCH  24  27
ATOM     27  C   UNL d   1      48.472  35.241  52.195  0.00  0.00     0.023 A 
ATOM     28  C   UNL d   1      48.250  34.951  51.467  0.00  0.00     0.003 A 
ATOM     29  C   UNL d   1      47.524  35.206  51.126  0.00  0.00     0.011 A 
ATOM     30  C   UNL d   1      47.058  35.737  51.530  0.00  0.00     0.058 A 
ATOM     31  C   UNL d   1      47.280  36.027  52.257  0.00  0.00     0.011 A 
ATOM     32 CL   UNL d   1      46.331  35.993  51.188  0.00  0.00    -0.082 Cl
ATOM     33  C   UNL d   1      48.006  35.772  52.599  0.00  0.00     0.003 A 
ENDBRANCH  24  27
ENDBRANCH  21  22
ENDBRANCH   1  21
TORSDOF 6
ENDMDL
MODEL 6
REMARK VINA RESULT:      -6.9      2.554      6.654
REMARK  6 active torsions:
REMARK  status: ('A' for Active; 'I' for Inactive)
REMARK    1  A    between atoms: N_6  and  C_1 
REMARK    2  A    between atoms: C_18  and  N_4 
REMARK       I    between atoms: C_8  and  N_6 
REMARK    3  A    between atoms: C_7  and  C_8 
REMARK    4  A    between atoms: C_11  and  C_7 
REMARK    5  A    between atoms: C_19  and  C_9 
REMARK    6  A    between atoms: C_12  and  C_11 
ROOT
ATOM      1  C   UNL d   1      49.677  34.793  52.385  0.00  0.00     0.128 C 
ATOM      2  C   UNL d   1      49.804  34.513  51.639  0.00  0.00     0.106 C 
ATOM      3  N   UNL d   1      49.995  34.217  50.861  0.00  0.00    -0.191 NA
ENDROOT
BRANCH   1   4
ATOM      4  C   UNL d   1      48.890  34.949  52.634  0.00  0.00     0.289 C 
ATOM      5  N   UNL d   1      48.669  35.735  52.738  0.00  0.00    -0.201 NA
ATOM      6  O   UNL d   1      48.378  34.358  52.764  0.00  0.00    -0.264 OA
BRANCH   5   7
ATOM      7  C   UNL d   1      47.879  35.898  52.989  0.00  0.00     0.160 A 
ATOM      8  C   UNL d   1      47.536  35.813  53.735  0.00  0.00     0.298 A 
ATOM      9  N   UNL d   1      46.744  36.055  53.660  0.00  0.00    -0.209 N 
ATOM     10  O   UNL d   1      47.875  35.554  54.406  0.00  0.00    -0.263 OA
ATOM     11  N   UNL d   1      46.650  36.273  52.875  0.00  0.00    -0.238 N 
ATOM     12  C   UNL d   1      47.326  36.189  52.434  0.00  0.00     0.104 A 
ATOM     13  C   UNL d   1      45.902  36.563  52.553  0.00  0.00     0.120 C 
ATOM     14  C   UNL d   1      47.415  36.359  51.631  0.00  0.00     0.022 C 
BRANCH   9  15
ATOM     15  C   UNL d   1      46.140  36.090  54.219  0.00  0.00     0.085 A 
ATOM     16  C   UNL d   1      45.539  35.524  54.189  0.00  0.00     0.019 A 
ATOM     17  C   UNL d   1      44.922  35.553  54.754  0.00  0.00     0.002 A 
ATOM     18  C   UNL d   1      44.917  36.138  55.330  0.00  0.00     0.000 A 
ATOM     19  C   UNL d   1      45.529  36.709  55.355  0.00  0.00     0.002 A 
ATOM     20  C   UNL d   1      46.135  36.675  54.795  0.00  0.00     0.019 A 
ENDBRANCH   9  15
ENDBRANCH   5   7
ENDBRANCH   1   4
BRANCH   1  21
ATOM     21  C   UNL d   1      50.280  34.937  52.926  0.00  0.00     0.040 C 
BRANCH  21  22
ATOM     22  C   UNL d   1      50.837  34.304  53.138  0.00  0.00     0.101 A 
ATOM     23  O   UNL d   1      51.665  34.390  53.351  0.00  0.00    -0.307 OA
ATOM     24  C   UNL d   1      51.954  33.633  53.505  0.00  0.00     0.100 A 
ATOM     25  C   UNL d   1      51.338  33.108  53.394  0.00  0.00     0.027 A 
ATOM     26  C   UNL d   1      50.665  33.548  53.170  0.00  0.00     0.027 A 
BRANCH  24  27
ATOM     27  C   UNL d   1      52.746  33.463  53.733  0.00  0.00     0.023 A 
ATOM     28  C   UNL d   1      53.242  33.090  53.206  0.00  0.00     0.003 A 
ATOM     29  C   UNL d   1      54.034  32.920  53.434  0.00  0.00     0.011 A 
ATOM     30  C   UNL d   1      54.289  33.131  54.179  0.00  0.00     0.058 A 
ATOM     31  C   UNL d   1      53.793  33.503  54.705  0.00  0.00     0.011 A 
ATOM     32 CL   UNL d   1      55.082  32.961  54.407  0.00  0.00    -0.082 Cl
ATOM     33  C   UNL d   1      53.001  33.673  54.477  0.00  0.00     0.003 A 
ENDBRANCH  24  27
ENDBRANCH  21  22
ENDBRANCH   1  21
TORSDOF 6
ENDMDL
