MODEL 1
REMARK VINA RESULT:      -6.3      0.000      0.000
REMARK  5 active torsions:
REMARK  status: ('A' for Active; 'I' for Inactive)
REMARK    1  A    between atoms: C_2  and  C_1 
REMARK    2  A    between atoms: C_7  and  C_2 
REMARK    3  A    between atoms: C_9  and  N_3 
REMARK    4  A    between atoms: N_5  and  C_7 
REMARK    5  A    between atoms: O_24  and  C_20 
ROOT
ATOM      1  N   UNL d   1     -41.589-123.053 -50.205  0.00  0.00    -0.301 N 
ATOM      2  N   UNL d   1     -41.280-122.879 -51.824  0.00  0.00    -0.297 N 
ATOM      3  C   UNL d   1     -41.516-122.301 -50.533  0.00  0.00     0.100 A 
ATOM      4  C   UNL d   1     -41.508-123.718 -50.685  0.00  0.00     0.100 A 
ATOM      5  C   UNL d   1     -41.360-122.211 -51.348  0.00  0.00     0.100 A 
ATOM      6  C   UNL d   1     -41.354-123.625 -51.492  0.00  0.00     0.100 A 
ENDROOT
BRANCH   2   7
ATOM      7  C   UNL d   1     -41.127-122.788 -52.627  0.00  0.00     0.123 C 
BRANCH   7   8
ATOM      8  C   UNL d   1     -41.638-123.108 -53.189  0.00  0.00     0.216 C 
ATOM      9  O   UNL d   1     -42.030-123.817 -53.034  0.00  0.00    -0.285 OA
BRANCH   8  10
ATOM     10  C   UNL d   1     -41.761-122.717 -53.912  0.00  0.00     0.080 A 
ATOM     11  C   UNL d   1     -41.506-123.052 -54.606  0.00  0.00     0.202 A 
ATOM     12  C   UNL d   1     -41.626-122.669 -55.320  0.00  0.00     0.084 A 
ATOM     13  O   UNL d   1     -41.125-123.783 -54.591  0.00  0.00    -0.286 OA
ATOM     14  C   UNL d   1     -42.011-121.930 -55.341  0.00  0.00     0.199 A 
ATOM     15  C   UNL d   1     -42.271-121.590 -54.629  0.00  0.00     0.042 A 
ATOM     16  O   UNL d   1     -42.131-121.548 -56.055  0.00  0.00    -0.286 OA
ATOM     17  C   UNL d   1     -42.148-121.979 -53.914  0.00  0.00     0.010 A 
ENDBRANCH   8  10
ENDBRANCH   7   8
ENDBRANCH   2   7
BRANCH   1  18
ATOM     18  C   UNL d   1     -41.742-123.139 -49.403  0.00  0.00     0.064 A 
ATOM     19  C   UNL d   1     -42.503-123.044 -49.122  0.00  0.00     0.020 A 
ATOM     20  C   UNL d   1     -42.656-123.131 -48.311  0.00  0.00     0.026 A 
ATOM     21  C   UNL d   1     -42.041-123.314 -47.793  0.00  0.00     0.094 A 
ATOM     22  C   UNL d   1     -41.267-123.410 -48.087  0.00  0.00     0.026 A 
ATOM     23  C   UNL d   1     -41.123-123.322 -48.889  0.00  0.00     0.020 A 
BRANCH  21  24
ATOM     24  O   UNL d   1     -42.196-123.401 -46.985  0.00  0.00    -0.328 OA
ATOM     25  C   UNL d   1     -42.978-123.399 -46.721  0.00  0.00     0.181 C 
ENDBRANCH  21  24
ENDBRANCH   1  18
TORSDOF 5
ENDMDL
MODEL 2
REMARK VINA RESULT:      -6.0      0.940      5.765
REMARK  5 active torsions:
REMARK  status: ('A' for Active; 'I' for Inactive)
REMARK    1  A    between atoms: C_2  and  C_1 
REMARK    2  A    between atoms: C_7  and  C_2 
REMARK    3  A    between atoms: C_9  and  N_3 
REMARK    4  A    between atoms: N_5  and  C_7 
REMARK    5  A    between atoms: O_24  and  C_20 
ROOT
ATOM      1  N   UNL d   1     -41.487-122.721 -52.811  0.00  0.00    -0.301 N 
ATOM      2  N   UNL d   1     -41.303-123.139 -51.217  0.00  0.00    -0.297 N 
ATOM      3  C   UNL d   1     -41.421-123.514 -52.596  0.00  0.00     0.100 A 
ATOM      4  C   UNL d   1     -41.462-122.137 -52.229  0.00  0.00     0.100 A 
ATOM      5  C   UNL d   1     -41.328-123.727 -51.795  0.00  0.00     0.100 A 
ATOM      6  C   UNL d   1     -41.370-122.352 -51.437  0.00  0.00     0.100 A 
ENDROOT
BRANCH   2   7
ATOM      7  C   UNL d   1     -41.212-123.351 -50.428  0.00  0.00     0.123 C 
BRANCH   7   8
ATOM      8  C   UNL d   1     -41.866-123.559 -49.973  0.00  0.00     0.216 C 
ATOM      9  O   UNL d   1     -42.560-123.814 -50.339  0.00  0.00    -0.285 OA
BRANCH   8  10
ATOM     10  C   UNL d   1     -41.830-123.513 -49.144  0.00  0.00     0.080 A 
ATOM     11  C   UNL d   1     -42.440-123.178 -48.725  0.00  0.00     0.202 A 
ATOM     12  C   UNL d   1     -42.406-123.131 -47.908  0.00  0.00     0.084 A 
ATOM     13  O   UNL d   1     -43.097-122.882 -49.127  0.00  0.00    -0.286 OA
ATOM     14  C   UNL d   1     -41.745-123.428 -47.498  0.00  0.00     0.199 A 
ATOM     15  C   UNL d   1     -41.123-123.771 -47.928  0.00  0.00     0.042 A 
ATOM     16  O   UNL d   1     -41.712-123.382 -46.681  0.00  0.00    -0.286 OA
ATOM     17  C   UNL d   1     -41.162-123.815 -48.749  0.00  0.00     0.010 A 
ENDBRANCH   8  10
ENDBRANCH   7   8
ENDBRANCH   2   7
BRANCH   1  18
ATOM     18  C   UNL d   1     -41.579-122.515 -53.600  0.00  0.00     0.064 A 
ATOM     19  C   UNL d   1     -41.125-122.882 -54.171  0.00  0.00     0.020 A 
ATOM     20  C   UNL d   1     -41.218-122.672 -54.969  0.00  0.00     0.026 A 
ATOM     21  C   UNL d   1     -41.767-122.094 -55.181  0.00  0.00     0.094 A 
ATOM     22  C   UNL d   1     -42.226-121.724 -54.593  0.00  0.00     0.026 A 
ATOM     23  C   UNL d   1     -42.129-121.936 -53.807  0.00  0.00     0.020 A 
BRANCH  21  24
ATOM     24  O   UNL d   1     -41.858-121.887 -55.977  0.00  0.00    -0.328 OA
ATOM     25  C   UNL d   1     -42.604-121.933 -56.324  0.00  0.00     0.181 C 
ENDBRANCH  21  24
ENDBRANCH   1  18
TORSDOF 5
ENDMDL
