MODEL 1
REMARK VINA RESULT:      78.3      0.000      0.000
REMARK  4 active torsions:
REMARK  status: ('A' for Active; 'I' for Inactive)
REMARK    1  A    between atoms: N_3  and  S_1 
REMARK    2  A    between atoms: C_6  and  S_1 
REMARK       I    between atoms: C_2  and  N_4 
REMARK       I    between atoms: N_5  and  C_2 
REMARK    3  A    between atoms: C_14  and  N_5 
REMARK    4  A    between atoms: C_15  and  N_5 
ROOT
ATOM      1  C   UNL d   1      46.119 -18.995  42.167  0.00  0.00     0.339 C 
ATOM      2  N   UNL d   1      45.606 -17.712  40.114  0.00  0.00    -0.226 N 
ATOM      3  N   UNL d   1      45.945 -18.561  41.472  0.00  0.00    -0.254 N 
ATOM      4  N   UNL d   1      46.135 -18.633  42.901  0.00  0.00    -0.260 N 
ATOM      5  C   UNL d   1      45.765 -18.529  40.060  0.00  0.00     0.111 A 
ATOM      6  C   UNL d   1      45.619 -17.333  40.844  0.00  0.00     0.111 A 
ATOM      7  O   UNL d   1      46.275 -19.806  42.103  0.00  0.00    -0.245 OA
ATOM      8  C   UNL d   1      45.788 -17.757  41.522  0.00  0.00     0.104 A 
ATOM      9  C   UNL d   1      45.934 -18.952  40.738  0.00  0.00     0.104 A 
ENDROOT
BRANCH   4  10
ATOM     10  C   UNL d   1      45.975 -17.809  42.959  0.00  0.00     0.068 A 
ATOM     11  C   UNL d   1      46.616 -17.274  43.010  0.00  0.00     0.018 A 
ATOM     12  C   UNL d   1      46.467 -16.457  43.067  0.00  0.00     0.002 A 
ATOM     13  C   UNL d   1      45.676 -16.181  43.072  0.00  0.00     0.000 A 
ATOM     14  C   UNL d   1      45.039 -16.721  43.020  0.00  0.00     0.002 A 
ATOM     15  C   UNL d   1      45.194 -17.544  42.963  0.00  0.00     0.018 A 
ENDBRANCH   4  10
BRANCH   4  16
ATOM     16  C   UNL d   1      46.305 -19.065  43.568  0.00  0.00     0.068 A 
ATOM     17  C   UNL d   1      46.324 -19.892  43.529  0.00  0.00     0.018 A 
ATOM     18  C   UNL d   1      46.494 -20.330  44.197  0.00  0.00     0.002 A 
ATOM     19  C   UNL d   1      46.647 -19.947  44.910  0.00  0.00     0.000 A 
ATOM     20  C   UNL d   1      46.627 -19.125  44.947  0.00  0.00     0.002 A 
ATOM     21  C   UNL d   1      46.457 -18.690  44.276  0.00  0.00     0.018 A 
ENDBRANCH   4  16
BRANCH   2  22
ATOM     22  S   UNL d   1      45.435 -17.284  39.429  0.00  0.00     0.271 S 
ATOM     23  O   UNL d   1      44.672 -17.000  39.299  0.00  0.00    -0.200 OA
ATOM     24  O   UNL d   1      46.025 -17.140  38.874  0.00  0.00    -0.200 OA
BRANCH  22  25
ATOM     25  C   UNL d   1      45.264 -16.856  38.745  0.00  0.00     0.104 A 
ATOM     26  C   UNL d   1      45.764 -16.235  38.510  0.00  0.00     0.013 A 
ATOM     27  C   UNL d   1      45.593 -15.808  37.826  0.00  0.00     0.001 A 
ATOM     28  C   UNL d   1      44.922 -16.001  37.376  0.00  0.00     0.000 A 
ATOM     29  C   UNL d   1      44.429 -16.619  37.615  0.00  0.00     0.001 A 
ATOM     30  C   UNL d   1      44.751 -15.573  36.692  0.00  0.00     0.000 C 
ATOM     31  C   UNL d   1      44.599 -17.044  38.296  0.00  0.00     0.013 A 
ENDBRANCH  22  25
ENDBRANCH   2  22
TORSDOF 4
ENDMDL
