MODEL 1
REMARK VINA RESULT:       1.2      0.000      0.000
REMARK  4 active torsions:
REMARK  status: ('A' for Active; 'I' for Inactive)
REMARK    1  A    between atoms: N_6  and  C_1 
REMARK    2  A    between atoms: C_10  and  C_2 
REMARK       I    between atoms: C_9  and  N_6 
REMARK    3  A    between atoms: C_11  and  C_9 
REMARK    4  A    between atoms: O_20  and  C_10 
ROOT
ATOM      1  C   UNL d   1      58.077  -0.202  30.964  0.00  0.00     0.119 A 
ATOM      2  C   UNL d   1      57.533  -0.821  30.975  0.00  0.00     0.087 A 
ATOM      3  C   UNL d   1      57.090  -0.749  31.662  0.00  0.00     0.008 A 
ATOM      4  C   UNL d   1      57.351  -0.098  32.074  0.00  0.00     0.028 A 
ATOM      5  S   UNL d   1      57.966   0.250  31.646  0.00  0.00    -0.070 SA
ATOM      6  C   UNL d   1      57.001   0.113  32.796  0.00  0.00     0.104 A 
ATOM      7  N   UNL d   1      56.385  -0.343  33.097  0.00  0.00    -0.294 NA
ATOM      8  C   UNL d   1      56.120  -1.005  32.679  0.00  0.00     0.099 A 
ATOM      9  C   UNL d   1      56.471  -1.211  31.958  0.00  0.00    -0.004 A 
ATOM     10  C   UNL d   1      56.787   0.472  33.509  0.00  0.00     0.029 C 
ATOM     11  C   UNL d   1      57.584   0.682  32.673  0.00  0.00     0.029 C 
ATOM     12  C   UNL d   1      55.855  -1.667  32.260  0.00  0.00     0.029 C 
ATOM     13  C   UNL d   1      55.767  -0.805  33.394  0.00  0.00     0.029 C 
ENDROOT
BRANCH   1  14
ATOM     14  N   UNL d   1      58.639  -0.054  30.375  0.00  0.00    -0.200 NA
ATOM     15  C   UNL d   1      59.392   0.213  30.580  0.00  0.00     0.302 C 
ATOM     16  O   UNL d   1      59.584   0.332  31.373  0.00  0.00    -0.263 OA
BRANCH  15  17
ATOM     17  C   UNL d   1      59.950   0.360  29.994  0.00  0.00     0.158 A 
ATOM     18  O   UNL d   1      59.799   0.603  29.225  0.00  0.00    -0.300 OA
ATOM     19  C   UNL d   1      60.537   0.681  28.833  0.00  0.00     0.123 A 
ATOM     20  C   UNL d   1      61.124   0.487  29.363  0.00  0.00     0.029 A 
ATOM     21  C   UNL d   1      60.781   0.284  30.093  0.00  0.00     0.032 A 
ENDBRANCH  15  17
ENDBRANCH   1  14
BRANCH   2  22
ATOM     22  C   UNL d   1      57.460  -1.396  30.397  0.00  0.00     0.298 C 
ATOM     23  O   UNL d   1      57.016  -1.230  29.720  0.00  0.00    -0.259 OA
BRANCH  22  24
ATOM     24  O   UNL d   1      57.827  -2.138  30.490  0.00  0.00    -0.296 OA
ATOM     25  C   UNL d   1      57.932  -2.628  29.838  0.00  0.00     0.185 C 
ENDBRANCH  22  24
ENDBRANCH   2  22
TORSDOF 4
ENDMDL
MODEL 2
REMARK VINA RESULT:       1.4      9.220      9.899
REMARK  4 active torsions:
REMARK  status: ('A' for Active; 'I' for Inactive)
REMARK    1  A    between atoms: N_6  and  C_1 
REMARK    2  A    between atoms: C_10  and  C_2 
REMARK       I    between atoms: C_9  and  N_6 
REMARK    3  A    between atoms: C_11  and  C_9 
REMARK    4  A    between atoms: O_20  and  C_10 
ROOT
ATOM      1  C   UNL d   1      59.686  -9.469  32.249  0.00  0.00     0.119 A 
ATOM      2  C   UNL d   1      59.028  -9.478  31.753  0.00  0.00     0.087 A 
ATOM      3  C   UNL d   1      59.299  -9.573  30.984  0.00  0.00     0.008 A 
ATOM      4  C   UNL d   1      60.111  -9.623  30.998  0.00  0.00     0.028 A 
ATOM      5  S   UNL d   1      60.362  -9.559  31.783  0.00  0.00    -0.070 SA
ATOM      6  C   UNL d   1      60.539  -9.722  30.294  0.00  0.00     0.104 A 
ATOM      7  N   UNL d   1      60.138  -9.770  29.577  0.00  0.00    -0.294 NA
ATOM      8  C   UNL d   1      59.313  -9.719  29.564  0.00  0.00     0.099 A 
ATOM      9  C   UNL d   1      58.889  -9.621  30.267  0.00  0.00    -0.004 A 
ATOM     10  C   UNL d   1      61.124  -9.818  29.718  0.00  0.00     0.029 C 
ATOM     11  C   UNL d   1      61.112  -9.698  30.886  0.00  0.00     0.029 C 
ATOM     12  C   UNL d   1      58.487  -9.668  29.550  0.00  0.00     0.029 C 
ATOM     13  C   UNL d   1      59.728  -9.817  28.860  0.00  0.00     0.029 C 
ENDROOT
BRANCH   1  14
ATOM     14  N   UNL d   1      59.678  -9.385  33.072  0.00  0.00    -0.200 NA
ATOM     15  C   UNL d   1      60.336  -9.076  33.462  0.00  0.00     0.302 C 
ATOM     16  O   UNL d   1      61.002  -8.851  33.030  0.00  0.00    -0.263 OA
BRANCH  15  17
ATOM     17  C   UNL d   1      60.327  -8.992  34.281  0.00  0.00     0.158 A 
ATOM     18  O   UNL d   1      59.815  -8.525  34.718  0.00  0.00    -0.300 OA
ATOM     19  C   UNL d   1      60.016  -8.615  35.528  0.00  0.00     0.123 A 
ATOM     20  C   UNL d   1      60.643  -9.132  35.574  0.00  0.00     0.029 A 
ATOM     21  C   UNL d   1      60.854  -9.379  34.808  0.00  0.00     0.032 A 
ENDBRANCH  15  17
ENDBRANCH   1  14
BRANCH   2  22
ATOM     22  C   UNL d   1      58.250  -9.404  31.998  0.00  0.00     0.298 C 
ATOM     23  O   UNL d   1      57.741  -8.911  31.571  0.00  0.00    -0.259 OA
BRANCH  22  24
ATOM     24  O   UNL d   1      57.976  -9.818  32.666  0.00  0.00    -0.296 OA
ATOM     25  C   UNL d   1      57.180  -9.787  32.869  0.00  0.00     0.185 C 
ENDBRANCH  22  24
ENDBRANCH   2  22
TORSDOF 4
ENDMDL
MODEL 3
REMARK VINA RESULT:       1.6      1.013      1.373
REMARK  4 active torsions:
REMARK  status: ('A' for Active; 'I' for Inactive)
REMARK    1  A    between atoms: N_6  and  C_1 
REMARK    2  A    between atoms: C_10  and  C_2 
REMARK       I    between atoms: C_9  and  N_6 
REMARK    3  A    between atoms: C_11  and  C_9 
REMARK    4  A    between atoms: O_20  and  C_10 
ROOT
ATOM      1  C   UNL d   1      57.921   0.156  32.191  0.00  0.00     0.119 A 
ATOM      2  C   UNL d   1      57.178  -0.182  32.078  0.00  0.00     0.087 A 
ATOM      3  C   UNL d   1      56.769  -0.125  32.787  0.00  0.00     0.008 A 
ATOM      4  C   UNL d   1      57.247   0.241  33.335  0.00  0.00     0.028 A 
ATOM      5  S   UNL d   1      57.968   0.420  32.972  0.00  0.00    -0.070 SA
ATOM      6  C   UNL d   1      56.977   0.374  34.108  0.00  0.00     0.104 A 
ATOM      7  N   UNL d   1      56.220   0.133  34.322  0.00  0.00    -0.294 NA
ATOM      8  C   UNL d   1      55.735  -0.239  33.765  0.00  0.00     0.099 A 
ATOM      9  C   UNL d   1      56.007  -0.370  32.995  0.00  0.00    -0.004 A 
ATOM     10  C   UNL d   1      56.891   0.588  34.902  0.00  0.00     0.029 C 
ATOM     11  C   UNL d   1      57.742   0.682  34.098  0.00  0.00     0.029 C 
ATOM     12  C   UNL d   1      55.249  -0.611  33.209  0.00  0.00     0.029 C 
ATOM     13  C   UNL d   1      55.457  -0.111  34.529  0.00  0.00     0.029 C 
ENDROOT
BRANCH   1  14
ATOM     14  N   UNL d   1      58.520   0.222  31.625  0.00  0.00    -0.200 NA
ATOM     15  C   UNL d   1      59.275   0.468  31.849  0.00  0.00     0.302 C 
ATOM     16  O   UNL d   1      59.431   0.649  32.638  0.00  0.00    -0.263 OA
BRANCH  15  17
ATOM     17  C   UNL d   1      59.871   0.534  31.285  0.00  0.00     0.158 A 
ATOM     18  O   UNL d   1      59.770   0.647  30.479  0.00  0.00    -0.300 OA
ATOM     19  C   UNL d   1      60.532   0.680  30.130  0.00  0.00     0.123 A 
ATOM     20  C   UNL d   1      61.084   0.586  30.721  0.00  0.00     0.029 A 
ATOM     21  C   UNL d   1      60.693   0.494  31.450  0.00  0.00     0.032 A 
ENDBRANCH  15  17
ENDBRANCH   1  14
BRANCH   2  22
ATOM     22  C   UNL d   1      56.909  -0.511  31.378  0.00  0.00     0.298 C 
ATOM     23  O   UNL d   1      56.437  -0.053  30.875  0.00  0.00    -0.259 OA
BRANCH  22  24
ATOM     24  O   UNL d   1      57.108  -1.293  31.174  0.00  0.00    -0.296 OA
ATOM     25  C   UNL d   1      57.184  -1.505  30.384  0.00  0.00     0.185 C 
ENDBRANCH  22  24
ENDBRANCH   2  22
TORSDOF 4
ENDMDL
MODEL 4
REMARK VINA RESULT:       1.9      1.717      2.896
REMARK  4 active torsions:
REMARK  status: ('A' for Active; 'I' for Inactive)
REMARK    1  A    between atoms: N_6  and  C_1 
REMARK    2  A    between atoms: C_10  and  C_2 
REMARK       I    between atoms: C_9  and  N_6 
REMARK    3  A    between atoms: C_11  and  C_9 
REMARK    4  A    between atoms: O_20  and  C_10 
ROOT
ATOM      1  C   UNL d   1      57.051   0.533  32.439  0.00  0.00     0.119 A 
ATOM      2  C   UNL d   1      57.363   0.596  33.199  0.00  0.00     0.087 A 
ATOM      3  C   UNL d   1      56.736   0.589  33.727  0.00  0.00     0.008 A 
ATOM      4  C   UNL d   1      56.042   0.524  33.307  0.00  0.00     0.028 A 
ATOM      5  S   UNL d   1      56.228   0.488  32.502  0.00  0.00    -0.070 SA
ATOM      6  C   UNL d   1      55.311   0.503  33.699  0.00  0.00     0.104 A 
ATOM      7  N   UNL d   1      55.289   0.549  34.520  0.00  0.00    -0.294 NA
ATOM      8  C   UNL d   1      55.994   0.616  34.947  0.00  0.00     0.099 A 
ATOM      9  C   UNL d   1      56.722   0.636  34.553  0.00  0.00    -0.004 A 
ATOM     10  C   UNL d   1      54.511   0.468  33.903  0.00  0.00     0.029 C 
ATOM     11  C   UNL d   1      55.120   0.446  32.900  0.00  0.00     0.029 C 
ATOM     12  C   UNL d   1      56.700   0.682  35.374  0.00  0.00     0.029 C 
ATOM     13  C   UNL d   1      55.275   0.596  35.346  0.00  0.00     0.029 C 
ENDROOT
BRANCH   1  14
ATOM     14  N   UNL d   1      57.480   0.518  31.732  0.00  0.00    -0.200 NA
ATOM     15  C   UNL d   1      57.243   0.024  31.116  0.00  0.00     0.302 C 
ATOM     16  O   UNL d   1      56.577  -0.454  31.205  0.00  0.00    -0.263 OA
BRANCH  15  17
ATOM     17  C   UNL d   1      57.670   0.009  30.412  0.00  0.00     0.158 A 
ATOM     18  O   UNL d   1      57.725   0.614  29.861  0.00  0.00    -0.300 OA
ATOM     19  C   UNL d   1      58.219   0.346  29.238  0.00  0.00     0.123 A 
ATOM     20  C   UNL d   1      58.457  -0.412  29.415  0.00  0.00     0.029 A 
ATOM     21  C   UNL d   1      58.127  -0.642  30.142  0.00  0.00     0.032 A 
ENDBRANCH  15  17
ENDBRANCH   1  14
BRANCH   2  22
ATOM     22  C   UNL d   1      58.160   0.653  33.379  0.00  0.00     0.298 C 
ATOM     23  O   UNL d   1      58.391   0.682  34.173  0.00  0.00    -0.259 OA
BRANCH  22  24
ATOM     24  O   UNL d   1      58.730   0.682  32.772  0.00  0.00    -0.296 OA
ATOM     25  C   UNL d   1      59.530   0.679  32.961  0.00  0.00     0.185 C 
ENDBRANCH  22  24
ENDBRANCH   2  22
TORSDOF 4
ENDMDL
MODEL 5
REMARK VINA RESULT:       2.9      9.480      9.909
REMARK  4 active torsions:
REMARK  status: ('A' for Active; 'I' for Inactive)
REMARK    1  A    between atoms: N_6  and  C_1 
REMARK    2  A    between atoms: C_10  and  C_2 
REMARK       I    between atoms: C_9  and  N_6 
REMARK    3  A    between atoms: C_11  and  C_9 
REMARK    4  A    between atoms: O_20  and  C_10 
ROOT
ATOM      1  C   UNL d   1      59.135  -9.753  31.325  0.00  0.00     0.119 A 
ATOM      2  C   UNL d   1      59.333  -9.753  30.525  0.00  0.00     0.087 A 
ATOM      3  C   UNL d   1      58.635  -9.771  30.096  0.00  0.00     0.008 A 
ATOM      4  C   UNL d   1      58.009  -9.781  30.616  0.00  0.00     0.028 A 
ATOM      5  S   UNL d   1      58.311  -9.770  31.385  0.00  0.00    -0.070 SA
ATOM      6  C   UNL d   1      57.228  -9.800  30.337  0.00  0.00     0.104 A 
ATOM      7  N   UNL d   1      57.086  -9.808  29.526  0.00  0.00    -0.294 NA
ATOM      8  C   UNL d   1      57.722  -9.797  28.998  0.00  0.00     0.099 A 
ATOM      9  C   UNL d   1      58.500  -9.779  29.280  0.00  0.00    -0.004 A 
ATOM     10  C   UNL d   1      56.406  -9.818  30.255  0.00  0.00     0.029 C 
ATOM     11  C   UNL d   1      57.156  -9.796  31.158  0.00  0.00     0.029 C 
ATOM     12  C   UNL d   1      58.358  -9.787  28.469  0.00  0.00     0.029 C 
ATOM     13  C   UNL d   1      56.951  -9.816  28.710  0.00  0.00     0.029 C 
ENDROOT
BRANCH   1  14
ATOM     14  N   UNL d   1      59.663  -9.737  31.961  0.00  0.00    -0.200 NA
ATOM     15  C   UNL d   1      59.387  -9.591  32.724  0.00  0.00     0.302 C 
ATOM     16  O   UNL d   1      58.583  -9.460  32.852  0.00  0.00    -0.263 OA
BRANCH  15  17
ATOM     17  C   UNL d   1      59.913  -9.576  33.357  0.00  0.00     0.158 A 
ATOM     18  O   UNL d   1      60.705  -9.785  33.338  0.00  0.00    -0.300 OA
ATOM     19  C   UNL d   1      61.015  -9.681  34.111  0.00  0.00     0.123 A 
ATOM     20  C   UNL d   1      60.413  -9.411  34.588  0.00  0.00     0.029 A 
ATOM     21  C   UNL d   1      59.717  -9.338  34.138  0.00  0.00     0.032 A 
ENDBRANCH  15  17
ENDBRANCH   1  14
BRANCH   2  22
ATOM     22  C   UNL d   1      60.096  -9.739  30.228  0.00  0.00     0.298 C 
ATOM     23  O   UNL d   1      60.729  -9.644  30.752  0.00  0.00    -0.259 OA
BRANCH  22  24
ATOM     24  O   UNL d   1      60.233  -9.818  29.410  0.00  0.00    -0.296 OA
ATOM     25  C   UNL d   1      60.961  -9.602  29.093  0.00  0.00     0.185 C 
ENDBRANCH  22  24
ENDBRANCH   2  22
TORSDOF 4
ENDMDL
MODEL 6
REMARK VINA RESULT:       2.9      1.312      4.426
REMARK  4 active torsions:
REMARK  status: ('A' for Active; 'I' for Inactive)
REMARK    1  A    between atoms: N_6  and  C_1 
REMARK    2  A    between atoms: C_10  and  C_2 
REMARK       I    between atoms: C_9  and  N_6 
REMARK    3  A    between atoms: C_11  and  C_9 
REMARK    4  A    between atoms: O_20  and  C_10 
ROOT
ATOM      1  C   UNL d   1      57.899   0.067  31.293  0.00  0.00     0.119 A 
ATOM      2  C   UNL d   1      58.689   0.288  31.372  0.00  0.00     0.087 A 
ATOM      3  C   UNL d   1      59.046   0.195  30.640  0.00  0.00     0.008 A 
ATOM      4  C   UNL d   1      58.491  -0.078  30.111  0.00  0.00     0.028 A 
ATOM      5  S   UNL d   1      57.772  -0.161  30.510  0.00  0.00    -0.070 SA
ATOM      6  C   UNL d   1      58.697  -0.224  29.320  0.00  0.00     0.104 A 
ATOM      7  N   UNL d   1      59.469  -0.090  29.070  0.00  0.00    -0.294 NA
ATOM      8  C   UNL d   1      60.033   0.187  29.608  0.00  0.00     0.099 A 
ATOM      9  C   UNL d   1      59.825   0.331  30.395  0.00  0.00    -0.004 A 
ATOM     10  C   UNL d   1      58.709  -0.422  28.518  0.00  0.00     0.029 C 
ATOM     11  C   UNL d   1      57.897  -0.415  29.366  0.00  0.00     0.029 C 
ATOM     12  C   UNL d   1      60.598   0.465  30.145  0.00  0.00     0.029 C 
ATOM     13  C   UNL d   1      60.248   0.046  28.826  0.00  0.00     0.029 C 
ENDROOT
BRANCH   1  14
ATOM     14  N   UNL d   1      57.327   0.072  31.891  0.00  0.00    -0.200 NA
ATOM     15  C   UNL d   1      56.712  -0.478  31.878  0.00  0.00     0.302 C 
ATOM     16  O   UNL d   1      56.668  -1.032  31.269  0.00  0.00    -0.263 OA
BRANCH  15  17
ATOM     17  C   UNL d   1      56.143  -0.473  32.473  0.00  0.00     0.158 A 
ATOM     18  O   UNL d   1      55.835  -1.128  32.858  0.00  0.00    -0.300 OA
ATOM     19  C   UNL d   1      55.274  -0.853  33.419  0.00  0.00     0.123 A 
ATOM     20  C   UNL d   1      55.248  -0.041  33.369  0.00  0.00     0.029 A 
ATOM     21  C   UNL d   1      55.782   0.217  32.786  0.00  0.00     0.032 A 
ENDBRANCH  15  17
ENDBRANCH   1  14
BRANCH   2  22
ATOM     22  C   UNL d   1      59.040   0.550  32.064  0.00  0.00     0.298 C 
ATOM     23  O   UNL d   1      59.856   0.682  32.074  0.00  0.00    -0.259 OA
BRANCH  22  24
ATOM     24  O   UNL d   1      58.582   0.682  32.747  0.00  0.00    -0.296 OA
ATOM     25  C   UNL d   1      58.939   0.676  33.488  0.00  0.00     0.185 C 
ENDBRANCH  22  24
ENDBRANCH   2  22
TORSDOF 4
ENDMDL
