MODEL 1
REMARK VINA RESULT:      -3.8      0.000      0.000
REMARK  3 active torsions:
REMARK  status: ('A' for Active; 'I' for Inactive)
REMARK    1  A    between atoms: S_10  and  C_3 
REMARK    2  A    between atoms: C_14  and  S_10 
REMARK    3  A    between atoms: C_16  and  C_14 
ROOT
ATOM      1  C   UNL d   1      58.582  -0.078  30.194  0.00  0.00     0.155 A 
ATOM      2  C   UNL d   1      58.137  -0.770  30.271  0.00  0.00     0.107 A 
ATOM      3  C   UNL d   1      58.817  -1.324  29.149  0.00  0.00     0.182 A 
ATOM      4  N   UNL d   1      59.259  -0.640  29.071  0.00  0.00    -0.250 N 
ATOM      5  N   UNL d   1      58.256  -1.398  29.744  0.00  0.00    -0.220 NA
ATOM      6  C   UNL d   1      59.141  -0.011  29.599  0.00  0.00     0.285 A 
ATOM      7  N   UNL d   1      58.349   0.445  30.786  0.00  0.00    -0.239 NA
ATOM      8  C   UNL d   1      57.627  -0.681  30.908  0.00  0.00     0.037 A 
ATOM      9  C   UNL d   1      57.756   0.075  31.232  0.00  0.00     0.083 A 
ATOM     10  O   UNL d   1      59.592   0.680  29.515  0.00  0.00    -0.265 OA
ATOM     11  C   UNL d   1      59.824  -0.575  28.468  0.00  0.00     0.104 C 
ATOM     12  C   UNL d   1      57.064  -1.177  31.241  0.00  0.00     0.003 A 
ATOM     13  C   UNL d   1      57.319   0.326  31.887  0.00  0.00     0.019 A 
ATOM     14  C   UNL d   1      56.627  -0.926  31.897  0.00  0.00     0.000 A 
ATOM     15  C   UNL d   1      56.755  -0.179  32.215  0.00  0.00     0.002 A 
ENDROOT
BRANCH   3  16
ATOM     16  S   UNL d   1      58.938  -1.948  28.623  0.00  0.00    -0.050 SA
BRANCH  16  17
ATOM     17  C   UNL d   1      59.035  -2.716  28.905  0.00  0.00     0.032 C 
ATOM     18  C   UNL d   1      59.697  -2.910  29.352  0.00  0.00     0.007 C 
BRANCH  17  19
ATOM     19  C   UNL d   1      58.465  -3.285  28.734  0.00  0.00     0.007 C 
ATOM     20  C   UNL d   1      58.692  -4.031  28.455  0.00  0.00     0.001 C 
ENDBRANCH  17  19
ENDBRANCH  16  17
ENDBRANCH   3  16
TORSDOF 3
ENDMDL
MODEL 2
REMARK VINA RESULT:      -2.3      2.684      4.123
REMARK  3 active torsions:
REMARK  status: ('A' for Active; 'I' for Inactive)
REMARK    1  A    between atoms: S_10  and  C_3 
REMARK    2  A    between atoms: C_14  and  S_10 
REMARK    3  A    between atoms: C_16  and  C_14 
ROOT
ATOM      1  C   UNL d   1      56.933   0.680  34.035  0.00  0.00     0.155 A 
ATOM      2  C   UNL d   1      56.413   0.679  33.392  0.00  0.00     0.107 A 
ATOM      3  C   UNL d   1      57.524   0.680  32.501  0.00  0.00     0.182 A 
ATOM      4  N   UNL d   1      58.041   0.681  33.135  0.00  0.00    -0.250 N 
ATOM      5  N   UNL d   1      56.712   0.679  32.619  0.00  0.00    -0.220 NA
ATOM      6  C   UNL d   1      57.742   0.681  33.909  0.00  0.00     0.285 A 
ATOM      7  N   UNL d   1      56.486   0.680  34.726  0.00  0.00    -0.239 NA
ATOM      8  C   UNL d   1      55.644   0.679  33.680  0.00  0.00     0.037 A 
ATOM      9  C   UNL d   1      55.686   0.679  34.512  0.00  0.00     0.083 A 
ATOM     10  O   UNL d   1      58.271   0.682  34.548  0.00  0.00    -0.265 OA
ATOM     11  C   UNL d   1      58.860   0.682  33.006  0.00  0.00     0.104 C 
ATOM     12  C   UNL d   1      54.912   0.677  33.308  0.00  0.00     0.003 A 
ATOM     13  C   UNL d   1      54.993   0.679  34.962  0.00  0.00     0.019 A 
ATOM     14  C   UNL d   1      54.219   0.677  33.759  0.00  0.00     0.000 A 
ATOM     15  C   UNL d   1      54.262   0.677  34.580  0.00  0.00     0.002 A 
ENDROOT
BRANCH   3  16
ATOM     16  S   UNL d   1      57.825   0.680  31.733  0.00  0.00    -0.050 SA
BRANCH  16  17
ATOM     17  C   UNL d   1      57.431   0.274  31.133  0.00  0.00     0.032 C 
ATOM     18  C   UNL d   1      56.929   0.679  30.622  0.00  0.00     0.007 C 
BRANCH  17  19
ATOM     19  C   UNL d   1      57.545  -0.538  31.051  0.00  0.00     0.007 C 
ATOM     20  C   UNL d   1      57.771  -0.853  30.320  0.00  0.00     0.001 C 
ENDBRANCH  17  19
ENDBRANCH  16  17
ENDBRANCH   3  16
TORSDOF 3
ENDMDL
MODEL 3
REMARK VINA RESULT:      -2.2      2.629      4.147
REMARK  3 active torsions:
REMARK  status: ('A' for Active; 'I' for Inactive)
REMARK    1  A    between atoms: S_10  and  C_3 
REMARK    2  A    between atoms: C_14  and  S_10 
REMARK    3  A    between atoms: C_16  and  C_14 
ROOT
ATOM      1  C   UNL d   1      58.700   0.667  31.649  0.00  0.00     0.155 A 
ATOM      2  C   UNL d   1      57.939   0.661  31.326  0.00  0.00     0.107 A 
ATOM      3  C   UNL d   1      57.390   0.669  32.640  0.00  0.00     0.182 A 
ATOM      4  N   UNL d   1      58.142   0.675  32.962  0.00  0.00    -0.250 N 
ATOM      5  N   UNL d   1      57.279   0.662  31.827  0.00  0.00    -0.220 NA
ATOM      6  C   UNL d   1      58.803   0.674  32.461  0.00  0.00     0.285 A 
ATOM      7  N   UNL d   1      59.242   0.664  31.028  0.00  0.00    -0.239 NA
ATOM      8  C   UNL d   1      58.004   0.654  30.508  0.00  0.00     0.037 A 
ATOM      9  C   UNL d   1      58.815   0.657  30.319  0.00  0.00     0.083 A 
ATOM     10  O   UNL d   1      59.563   0.680  32.793  0.00  0.00    -0.265 OA
ATOM     11  C   UNL d   1      58.244   0.682  33.785  0.00  0.00     0.104 C 
ATOM     12  C   UNL d   1      57.444   0.647  29.907  0.00  0.00     0.003 A 
ATOM     13  C   UNL d   1      59.055   0.651  29.528  0.00  0.00     0.019 A 
ATOM     14  C   UNL d   1      57.686   0.642  29.117  0.00  0.00     0.000 A 
ATOM     15  C   UNL d   1      58.487   0.644  28.931  0.00  0.00     0.002 A 
ENDROOT
BRANCH   3  16
ATOM     16  S   UNL d   1      56.734   0.670  33.142  0.00  0.00    -0.050 SA
BRANCH  16  17
ATOM     17  C   UNL d   1      56.100   0.163  32.997  0.00  0.00     0.032 C 
ATOM     18  C   UNL d   1      56.226  -0.647  32.934  0.00  0.00     0.007 C 
BRANCH  17  19
ATOM     19  C   UNL d   1      55.342   0.476  32.915  0.00  0.00     0.007 C 
ATOM     20  C   UNL d   1      54.731   0.216  33.409  0.00  0.00     0.001 C 
ENDBRANCH  17  19
ENDBRANCH  16  17
ENDBRANCH   3  16
TORSDOF 3
ENDMDL
MODEL 4
REMARK VINA RESULT:      -1.4      8.855      9.501
REMARK  3 active torsions:
REMARK  status: ('A' for Active; 'I' for Inactive)
REMARK    1  A    between atoms: S_10  and  C_3 
REMARK    2  A    between atoms: C_14  and  S_10 
REMARK    3  A    between atoms: C_16  and  C_14 
ROOT
ATOM      1  C   UNL d   1      58.400  -9.815  31.099  0.00  0.00     0.155 A 
ATOM      2  C   UNL d   1      59.225  -9.814  31.059  0.00  0.00     0.107 A 
ATOM      3  C   UNL d   1      59.289  -9.813  32.482  0.00  0.00     0.182 A 
ATOM      4  N   UNL d   1      58.472  -9.814  32.525  0.00  0.00    -0.250 N 
ATOM      5  N   UNL d   1      59.673  -9.813  31.756  0.00  0.00    -0.220 NA
ATOM      6  C   UNL d   1      58.024  -9.815  31.827  0.00  0.00     0.285 A 
ATOM      7  N   UNL d   1      58.105  -9.816  30.330  0.00  0.00    -0.239 NA
ATOM      8  C   UNL d   1      59.447  -9.815  30.268  0.00  0.00     0.037 A 
ATOM      9  C   UNL d   1      58.750  -9.816  29.811  0.00  0.00     0.083 A 
ATOM     10  O   UNL d   1      57.196  -9.816  31.876  0.00  0.00    -0.265 OA
ATOM     11  C   UNL d   1      58.093  -9.813  33.262  0.00  0.00     0.104 C 
ATOM     12  C   UNL d   1      60.179  -9.815  29.897  0.00  0.00     0.003 A 
ATOM     13  C   UNL d   1      58.797  -9.817  28.986  0.00  0.00     0.019 A 
ATOM     14  C   UNL d   1      60.225  -9.815  29.071  0.00  0.00     0.000 A 
ATOM     15  C   UNL d   1      59.537  -9.817  28.621  0.00  0.00     0.002 A 
ENDROOT
BRANCH   3  16
ATOM     16  S   UNL d   1      59.732  -9.812  33.178  0.00  0.00    -0.050 SA
BRANCH  16  17
ATOM     17  C   UNL d   1      60.465  -9.435  33.203  0.00  0.00     0.032 C 
ATOM     18  C   UNL d   1      61.125  -9.797  32.873  0.00  0.00     0.007 C 
BRANCH  17  19
ATOM     19  C   UNL d   1      60.528  -8.696  33.561  0.00  0.00     0.007 C 
ATOM     20  C   UNL d   1      60.982  -8.605  34.247  0.00  0.00     0.001 C 
ENDBRANCH  17  19
ENDBRANCH  16  17
ENDBRANCH   3  16
TORSDOF 3
ENDMDL
MODEL 5
REMARK VINA RESULT:      -1.4      8.276      9.081
REMARK  3 active torsions:
REMARK  status: ('A' for Active; 'I' for Inactive)
REMARK    1  A    between atoms: S_10  and  C_3 
REMARK    2  A    between atoms: C_14  and  S_10 
REMARK    3  A    between atoms: C_16  and  C_14 
ROOT
ATOM      1  C   UNL d   1      58.372  -9.713  32.220  0.00  0.00     0.155 A 
ATOM      2  C   UNL d   1      59.131  -9.722  31.893  0.00  0.00     0.107 A 
ATOM      3  C   UNL d   1      58.562  -9.780  30.589  0.00  0.00     0.182 A 
ATOM      4  N   UNL d   1      57.809  -9.771  30.909  0.00  0.00    -0.250 N 
ATOM      5  N   UNL d   1      59.226  -9.756  31.071  0.00  0.00    -0.220 NA
ATOM      6  C   UNL d   1      57.714  -9.737  31.732  0.00  0.00     0.285 A 
ATOM      7  N   UNL d   1      58.445  -9.678  33.039  0.00  0.00    -0.239 NA
ATOM      8  C   UNL d   1      59.678  -9.693  32.505  0.00  0.00     0.037 A 
ATOM      9  C   UNL d   1      59.253  -9.666  33.221  0.00  0.00     0.083 A 
ATOM     10  O   UNL d   1      56.948  -9.728  32.052  0.00  0.00    -0.265 OA
ATOM     11  C   UNL d   1      57.145  -9.795  30.414  0.00  0.00     0.104 C 
ATOM     12  C   UNL d   1      60.498  -9.688  32.516  0.00  0.00     0.003 A 
ATOM     13  C   UNL d   1      59.657  -9.633  33.941  0.00  0.00     0.019 A 
ATOM     14  C   UNL d   1      60.902  -9.655  33.237  0.00  0.00     0.000 A 
ATOM     15  C   UNL d   1      60.482  -9.628  33.943  0.00  0.00     0.002 A 
ENDROOT
BRANCH   3  16
ATOM     16  S   UNL d   1      58.653  -9.813  29.770  0.00  0.00    -0.050 SA
BRANCH  16  17
ATOM     17  C   UNL d   1      59.281  -9.421  29.405  0.00  0.00     0.032 C 
ATOM     18  C   UNL d   1      59.190  -8.643  29.155  0.00  0.00     0.007 C 
BRANCH  17  19
ATOM     19  C   UNL d   1      59.995  -9.816  29.295  0.00  0.00     0.007 C 
ATOM     20  C   UNL d   1      60.524  -9.562  28.710  0.00  0.00     0.001 C 
ENDBRANCH  17  19
ENDBRANCH  16  17
ENDBRANCH   3  16
TORSDOF 3
ENDMDL
MODEL 6
REMARK VINA RESULT:      -1.3      2.000      2.400
REMARK  3 active torsions:
REMARK  status: ('A' for Active; 'I' for Inactive)
REMARK    1  A    between atoms: S_10  and  C_3 
REMARK    2  A    between atoms: C_14  and  S_10 
REMARK    3  A    between atoms: C_16  and  C_14 
ROOT
ATOM      1  C   UNL d   1      57.318   0.680  30.665  0.00  0.00     0.155 A 
ATOM      2  C   UNL d   1      57.976   0.681  31.166  0.00  0.00     0.107 A 
ATOM      3  C   UNL d   1      58.832   0.681  30.028  0.00  0.00     0.182 A 
ATOM      4  N   UNL d   1      58.183   0.681  29.530  0.00  0.00    -0.250 N 
ATOM      5  N   UNL d   1      58.739   0.681  30.843  0.00  0.00    -0.220 NA
ATOM      6  C   UNL d   1      57.418   0.680  29.852  0.00  0.00     0.285 A 
ATOM      7  N   UNL d   1      56.640   0.680  31.133  0.00  0.00    -0.239 NA
ATOM      8  C   UNL d   1      57.711   0.681  31.943  0.00  0.00     0.037 A 
ATOM      9  C   UNL d   1      56.879   0.680  31.926  0.00  0.00     0.083 A 
ATOM     10  O   UNL d   1      56.763   0.680  29.344  0.00  0.00    -0.265 OA
ATOM     11  C   UNL d   1      58.287   0.680  28.708  0.00  0.00     0.104 C 
ATOM     12  C   UNL d   1      58.106   0.681  32.663  0.00  0.00     0.003 A 
ATOM     13  C   UNL d   1      56.450   0.680  32.633  0.00  0.00     0.019 A 
ATOM     14  C   UNL d   1      57.677   0.681  33.370  0.00  0.00     0.000 A 
ATOM     15  C   UNL d   1      56.855   0.681  33.352  0.00  0.00     0.002 A 
ENDROOT
BRANCH   3  16
ATOM     16  S   UNL d   1      59.591   0.682  29.703  0.00  0.00    -0.050 SA
BRANCH  16  17
ATOM     17  C   UNL d   1      60.133   0.098  29.916  0.00  0.00     0.032 C 
ATOM     18  C   UNL d   1      60.593   0.189  30.591  0.00  0.00     0.007 C 
BRANCH  17  19
ATOM     19  C   UNL d   1      60.209  -0.574  29.446  0.00  0.00     0.007 C 
ATOM     20  C   UNL d   1      60.956  -0.907  29.316  0.00  0.00     0.001 C 
ENDBRANCH  17  19
ENDBRANCH  16  17
ENDBRANCH   3  16
TORSDOF 3
ENDMDL
MODEL 7
REMARK VINA RESULT:      -1.2      8.135      8.907
REMARK  3 active torsions:
REMARK  status: ('A' for Active; 'I' for Inactive)
REMARK    1  A    between atoms: S_10  and  C_3 
REMARK    2  A    between atoms: C_14  and  S_10 
REMARK    3  A    between atoms: C_16  and  C_14 
ROOT
ATOM      1  C   UNL d   1      59.788  -9.723  30.610  0.00  0.00     0.155 A 
ATOM      2  C   UNL d   1      59.014  -9.768  30.896  0.00  0.00     0.107 A 
ATOM      3  C   UNL d   1      58.528  -9.784  29.557  0.00  0.00     0.182 A 
ATOM      4  N   UNL d   1      59.293  -9.739  29.272  0.00  0.00    -0.250 N 
ATOM      5  N   UNL d   1      58.379  -9.799  30.364  0.00  0.00    -0.220 NA
ATOM      6  C   UNL d   1      59.929  -9.708  29.804  0.00  0.00     0.285 A 
ATOM      7  N   UNL d   1      60.299  -9.700  31.256  0.00  0.00    -0.239 NA
ATOM      8  C   UNL d   1      59.039  -9.774  31.716  0.00  0.00     0.037 A 
ATOM      9  C   UNL d   1      59.839  -9.731  31.944  0.00  0.00     0.083 A 
ATOM     10  O   UNL d   1      60.703  -9.663  29.509  0.00  0.00    -0.265 OA
ATOM     11  C   UNL d   1      59.434  -9.725  28.455  0.00  0.00     0.104 C 
ATOM     12  C   UNL d   1      58.452  -9.811  32.290  0.00  0.00     0.003 A 
ATOM     13  C   UNL d   1      60.042  -9.727  32.745  0.00  0.00     0.019 A 
ATOM     14  C   UNL d   1      58.656  -9.807  33.091  0.00  0.00     0.000 A 
ATOM     15  C   UNL d   1      59.446  -9.764  33.315  0.00  0.00     0.002 A 
ENDROOT
BRANCH   3  16
ATOM     16  S   UNL d   1      57.898  -9.815  29.025  0.00  0.00    -0.050 SA
BRANCH  16  17
ATOM     17  C   UNL d   1      57.232  -9.343  29.143  0.00  0.00     0.032 C 
ATOM     18  C   UNL d   1      57.311  -8.527  29.205  0.00  0.00     0.007 C 
BRANCH  17  19
ATOM     19  C   UNL d   1      56.490  -9.697  29.197  0.00  0.00     0.007 C 
ATOM     20  C   UNL d   1      56.001  -9.739  28.530  0.00  0.00     0.001 C 
ENDBRANCH  17  19
ENDBRANCH  16  17
ENDBRANCH   3  16
TORSDOF 3
ENDMDL
