MODEL 1
REMARK VINA RESULT:      -2.6      0.000      0.000
REMARK  4 active torsions:
REMARK  status: ('A' for Active; 'I' for Inactive)
REMARK    1  A    between atoms: C_3  and  C_1 
REMARK    2  A    between atoms: C_2  and  C_3 
REMARK    3  A    between atoms: C_6  and  C_2 
REMARK    4  A    between atoms: C_4  and  C_6 
ROOT
ATOM      1  C   UNL d   1      31.188  16.709 -23.733  0.00  0.00     0.043 C 
ENDROOT
BRANCH   1   2
ATOM      2  C   UNL d   1      31.982  16.808 -23.912  0.00  0.00     0.202 C 
ATOM      3  O   UNL d   1      32.460  16.196 -24.173  0.00  0.00    -0.286 OA
BRANCH   2   4
ATOM      4  C   UNL d   1      32.356  17.559 -23.836  0.00  0.00     0.068 A 
ATOM      5  S   UNL d   1      32.501  18.111 -24.428  0.00  0.00    -0.083 SA
ATOM      6  C   UNL d   1      32.876  18.763 -24.117  0.00  0.00     0.035 A 
ATOM      7  C   UNL d   1      32.965  18.607 -23.303  0.00  0.00     0.008 A 
ATOM      8  C   UNL d   1      32.657  17.886 -23.116  0.00  0.00     0.010 A 
ENDBRANCH   2   4
ENDBRANCH   1   2
BRANCH   1   9
ATOM      9  C   UNL d   1      30.862  15.952 -23.793  0.00  0.00     0.010 C 
BRANCH   9  10
ATOM     10  C   UNL d   1      30.064  15.849 -23.593  0.00  0.00     0.030 A 
ATOM     11  S   UNL d   1      29.368  16.069 -23.961  0.00  0.00    -0.086 SA
ATOM     12  C   UNL d   1      28.740  15.807 -23.487  0.00  0.00     0.035 A 
ATOM     13  C   UNL d   1      29.052  15.453 -22.874  0.00  0.00     0.007 A 
ATOM     14  C   UNL d   1      29.842  15.457 -22.901  0.00  0.00     0.007 A 
ENDBRANCH   9  10
ENDBRANCH   1   9
TORSDOF 4
ENDMDL
MODEL 2
REMARK VINA RESULT:      -2.5      0.466      3.601
REMARK  4 active torsions:
REMARK  status: ('A' for Active; 'I' for Inactive)
REMARK    1  A    between atoms: C_3  and  C_1 
REMARK    2  A    between atoms: C_2  and  C_3 
REMARK    3  A    between atoms: C_6  and  C_2 
REMARK    4  A    between atoms: C_4  and  C_6 
ROOT
ATOM      1  C   UNL d   1      31.286  16.794 -23.600  0.00  0.00     0.043 C 
ENDROOT
BRANCH   1   2
ATOM      2  C   UNL d   1      30.913  16.103 -23.834  0.00  0.00     0.202 C 
ATOM      3  O   UNL d   1      31.266  15.549 -24.324  0.00  0.00    -0.286 OA
BRANCH   2   4
ATOM      4  C   UNL d   1      30.130  15.921 -23.579  0.00  0.00     0.068 A 
ATOM      5  S   UNL d   1      29.423  16.110 -23.953  0.00  0.00    -0.083 SA
ATOM      6  C   UNL d   1      28.794  15.829 -23.519  0.00  0.00     0.035 A 
ATOM      7  C   UNL d   1      29.126  15.453 -22.854  0.00  0.00     0.008 A 
ATOM      8  C   UNL d   1      29.931  15.498 -22.873  0.00  0.00     0.010 A 
ENDBRANCH   2   4
ENDBRANCH   1   2
BRANCH   1   9
ATOM      9  C   UNL d   1      32.081  16.901 -23.800  0.00  0.00     0.010 C 
BRANCH   9  10
ATOM     10  C   UNL d   1      32.449  17.613 -23.588  0.00  0.00     0.030 A 
ATOM     11  S   UNL d   1      32.474  18.349 -23.940  0.00  0.00    -0.086 SA
ATOM     12  C   UNL d   1      32.936  18.842 -23.459  0.00  0.00     0.035 A 
ATOM     13  C   UNL d   1      33.169  18.416 -22.857  0.00  0.00     0.007 A 
ATOM     14  C   UNL d   1      32.898  17.675 -22.898  0.00  0.00     0.007 A 
ENDBRANCH   9  10
ENDBRANCH   1   9
TORSDOF 4
ENDMDL
MODEL 3
REMARK VINA RESULT:      -2.5      3.355      4.880
REMARK  4 active torsions:
REMARK  status: ('A' for Active; 'I' for Inactive)
REMARK    1  A    between atoms: C_3  and  C_1 
REMARK    2  A    between atoms: C_2  and  C_3 
REMARK    3  A    between atoms: C_6  and  C_2 
REMARK    4  A    between atoms: C_4  and  C_6 
ROOT
ATOM      1  C   UNL d   1      33.025  20.384 -21.980  0.00  0.00     0.043 C 
ENDROOT
BRANCH   1   2
ATOM      2  C   UNL d   1      32.991  20.736 -21.241  0.00  0.00     0.202 C 
ATOM      3  O   UNL d   1      33.152  20.333 -20.546  0.00  0.00    -0.286 OA
BRANCH   2   4
ATOM      4  C   UNL d   1      32.786  21.550 -21.153  0.00  0.00     0.068 A 
ATOM      5  S   UNL d   1      33.197  22.205 -21.432  0.00  0.00    -0.083 SA
ATOM      6  C   UNL d   1      32.805  22.888 -21.226  0.00  0.00     0.035 A 
ATOM      7  C   UNL d   1      32.128  22.645 -20.805  0.00  0.00     0.008 A 
ATOM      8  C   UNL d   1      32.100  21.841 -20.751  0.00  0.00     0.010 A 
ENDBRANCH   2   4
ENDBRANCH   1   2
BRANCH   1   9
ATOM      9  C   UNL d   1      33.185  19.574 -22.023  0.00  0.00     0.010 C 
BRANCH   9  10
ATOM     10  C   UNL d   1      33.128  19.200 -22.761  0.00  0.00     0.030 A 
ATOM     11  S   UNL d   1      33.240  19.465 -23.526  0.00  0.00    -0.086 SA
ATOM     12  C   UNL d   1      33.102  18.825 -24.035  0.00  0.00     0.035 A 
ATOM     13  C   UNL d   1      32.919  18.219 -23.592  0.00  0.00     0.007 A 
ATOM     14  C   UNL d   1      32.924  18.403 -22.824  0.00  0.00     0.007 A 
ENDBRANCH   9  10
ENDBRANCH   1   9
TORSDOF 4
ENDMDL
MODEL 4
REMARK VINA RESULT:      -2.5      0.885      1.112
REMARK  4 active torsions:
REMARK  status: ('A' for Active; 'I' for Inactive)
REMARK    1  A    between atoms: C_3  and  C_1 
REMARK    2  A    between atoms: C_2  and  C_3 
REMARK    3  A    between atoms: C_6  and  C_2 
REMARK    4  A    between atoms: C_4  and  C_6 
ROOT
ATOM      1  C   UNL d   1      30.765  16.677 -23.890  0.00  0.00     0.043 C 
ENDROOT
BRANCH   1   2
ATOM      2  C   UNL d   1      31.441  16.938 -24.273  0.00  0.00     0.202 C 
ATOM      3  O   UNL d   1      31.537  16.901 -25.086  0.00  0.00    -0.286 OA
BRANCH   2   4
ATOM      4  C   UNL d   1      32.087  17.267 -23.842  0.00  0.00     0.068 A 
ATOM      5  S   UNL d   1      32.752  16.876 -23.558  0.00  0.00    -0.083 SA
ATOM      6  C   UNL d   1      33.241  17.400 -23.172  0.00  0.00     0.035 A 
ATOM      7  C   UNL d   1      32.862  18.142 -23.219  0.00  0.00     0.008 A 
ATOM      8  C   UNL d   1      32.165  18.080 -23.619  0.00  0.00     0.010 A 
ENDBRANCH   2   4
ENDBRANCH   1   2
BRANCH   1   9
ATOM      9  C   UNL d   1      30.112  16.459 -24.349  0.00  0.00     0.010 C 
BRANCH   9  10
ATOM     10  C   UNL d   1      29.420  16.220 -23.960  0.00  0.00     0.030 A 
ATOM     11  S   UNL d   1      29.237  15.568 -23.504  0.00  0.00    -0.086 SA
ATOM     12  C   UNL d   1      28.446  15.640 -23.267  0.00  0.00     0.035 A 
ATOM     13  C   UNL d   1      28.179  16.300 -23.569  0.00  0.00     0.007 A 
ATOM     14  C   UNL d   1      28.732  16.676 -23.990  0.00  0.00     0.007 A 
ENDBRANCH   9  10
ENDBRANCH   1   9
TORSDOF 4
ENDMDL
MODEL 5
REMARK VINA RESULT:      -1.6      6.251      7.187
REMARK  4 active torsions:
REMARK  status: ('A' for Active; 'I' for Inactive)
REMARK    1  A    between atoms: C_3  and  C_1 
REMARK    2  A    between atoms: C_2  and  C_3 
REMARK    3  A    between atoms: C_6  and  C_2 
REMARK    4  A    between atoms: C_4  and  C_6 
ROOT
ATOM      1  C   UNL d   1      32.680  22.808 -21.551  0.00  0.00     0.043 C 
ENDROOT
BRANCH   1   2
ATOM      2  C   UNL d   1      32.431  22.465 -20.850  0.00  0.00     0.202 C 
ATOM      3  O   UNL d   1      32.018  21.758 -20.821  0.00  0.00    -0.286 OA
BRANCH   2   4
ATOM      4  C   UNL d   1      32.591  22.826 -20.105  0.00  0.00     0.068 A 
ATOM      5  S   UNL d   1      32.260  23.514 -19.799  0.00  0.00    -0.083 SA
ATOM      6  C   UNL d   1      32.569  23.668 -19.061  0.00  0.00     0.035 A 
ATOM      7  C   UNL d   1      33.110  23.052 -18.908  0.00  0.00     0.008 A 
ATOM      8  C   UNL d   1      33.137  22.536 -19.526  0.00  0.00     0.010 A 
ENDBRANCH   2   4
ENDBRANCH   1   2
BRANCH   1   9
ATOM      9  C   UNL d   1      32.728  22.335 -22.226  0.00  0.00     0.010 C 
BRANCH   9  10
ATOM     10  C   UNL d   1      32.905  22.698 -22.951  0.00  0.00     0.030 A 
ATOM     11  S   UNL d   1      32.931  23.480 -23.186  0.00  0.00    -0.086 SA
ATOM     12  C   UNL d   1      33.146  23.493 -23.987  0.00  0.00     0.035 A 
ATOM     13  C   UNL d   1      33.241  22.758 -24.208  0.00  0.00     0.007 A 
ATOM     14  C   UNL d   1      33.106  22.253 -23.616  0.00  0.00     0.007 A 
ENDBRANCH   9  10
ENDBRANCH   1   9
TORSDOF 4
ENDMDL
MODEL 6
REMARK VINA RESULT:      -1.2      3.979      5.989
REMARK  4 active torsions:
REMARK  status: ('A' for Active; 'I' for Inactive)
REMARK    1  A    between atoms: C_3  and  C_1 
REMARK    2  A    between atoms: C_2  and  C_3 
REMARK    3  A    between atoms: C_6  and  C_2 
REMARK    4  A    between atoms: C_4  and  C_6 
ROOT
ATOM      1  C   UNL d   1      33.003  21.379 -21.736  0.00  0.00     0.043 C 
ENDROOT
BRANCH   1   2
ATOM      2  C   UNL d   1      32.984  20.924 -22.417  0.00  0.00     0.202 C 
ATOM      3  O   UNL d   1      32.871  21.242 -23.164  0.00  0.00    -0.286 OA
BRANCH   2   4
ATOM      4  C   UNL d   1      33.082  20.087 -22.387  0.00  0.00     0.068 A 
ATOM      5  S   UNL d   1      33.155  19.566 -23.018  0.00  0.00    -0.083 SA
ATOM      6  C   UNL d   1      33.240  18.804 -22.744  0.00  0.00     0.035 A 
ATOM      7  C   UNL d   1      33.217  18.858 -21.912  0.00  0.00     0.008 A 
ATOM      8  C   UNL d   1      33.123  19.624 -21.679  0.00  0.00     0.010 A 
ENDBRANCH   2   4
ENDBRANCH   1   2
BRANCH   1   9
ATOM      9  C   UNL d   1      32.692  22.144 -21.765  0.00  0.00     0.010 C 
BRANCH   9  10
ATOM     10  C   UNL d   1      32.662  22.584 -21.063  0.00  0.00     0.030 A 
ATOM     11  S   UNL d   1      33.241  22.864 -20.559  0.00  0.00    -0.086 SA
ATOM     12  C   UNL d   1      32.862  23.271 -19.943  0.00  0.00     0.035 A 
ATOM     13  C   UNL d   1      32.102  23.231 -20.079  0.00  0.00     0.007 A 
ATOM     14  C   UNL d   1      31.942  22.828 -20.740  0.00  0.00     0.007 A 
ENDBRANCH   9  10
ENDBRANCH   1   9
TORSDOF 4
ENDMDL
MODEL 7
REMARK VINA RESULT:      -0.7      6.423      8.044
REMARK  4 active torsions:
REMARK  status: ('A' for Active; 'I' for Inactive)
REMARK    1  A    between atoms: C_3  and  C_1 
REMARK    2  A    between atoms: C_2  and  C_3 
REMARK    3  A    between atoms: C_6  and  C_2 
REMARK    4  A    between atoms: C_4  and  C_6 
ROOT
ATOM      1  C   UNL d   1      32.609  22.986 -19.448  0.00  0.00     0.043 C 
ENDROOT
BRANCH   1   2
ATOM      2  C   UNL d   1      32.382  22.999 -20.235  0.00  0.00     0.202 C 
ATOM      3  O   UNL d   1      31.976  23.626 -20.572  0.00  0.00    -0.286 OA
BRANCH   2   4
ATOM      4  C   UNL d   1      32.557  22.356 -20.752  0.00  0.00     0.068 A 
ATOM      5  S   UNL d   1      33.074  22.351 -21.391  0.00  0.00    -0.083 SA
ATOM      6  C   UNL d   1      33.078  21.616 -21.741  0.00  0.00     0.035 A 
ATOM      7  C   UNL d   1      32.544  21.151 -21.300  0.00  0.00     0.008 A 
ATOM      8  C   UNL d   1      32.221  21.581 -20.701  0.00  0.00     0.010 A 
ENDBRANCH   2   4
ENDBRANCH   1   2
BRANCH   1   9
ATOM      9  C   UNL d   1      32.375  23.610 -18.959  0.00  0.00     0.010 C 
BRANCH   9  10
ATOM     10  C   UNL d   1      32.553  23.565 -18.150  0.00  0.00     0.030 A 
ATOM     11  S   UNL d   1      33.241  23.399 -17.743  0.00  0.00    -0.086 SA
ATOM     12  C   UNL d   1      33.068  23.439 -16.933  0.00  0.00     0.035 A 
ATOM     13  C   UNL d   1      32.319  23.618 -16.869  0.00  0.00     0.007 A 
ATOM     14  C   UNL d   1      31.976  23.702 -17.576  0.00  0.00     0.007 A 
ENDBRANCH   9  10
ENDBRANCH   1   9
TORSDOF 4
ENDMDL
