MODEL 1
REMARK VINA RESULT:      -7.3      0.000      0.000
REMARK  6 active torsions:
REMARK  status: ('A' for Active; 'I' for Inactive)
REMARK    1  A    between atoms: C_6  and  C_1 
REMARK    2  A    between atoms: C_8  and  N_2 
REMARK    3  A    between atoms: C_12  and  C_5 
REMARK    4  A    between atoms: C_7  and  C_6 
REMARK    5  A    between atoms: C_18  and  C_8 
REMARK    6  A    between atoms: N_10  and  C_18 
ROOT
ATOM      1  C   UNL d   1     -46.476  13.272  22.995  0.00  0.00     0.099 A 
ATOM      2  N   UNL d   1     -47.636  13.941  22.943  0.00  0.00    -0.269 N 
ATOM      3  C   UNL d   1     -46.285  14.074  22.979  0.00  0.00     0.256 A 
ATOM      4  C   UNL d   1     -46.995  14.481  22.948  0.00  0.00     0.304 A 
ATOM      5  C   UNL d   1     -47.287  13.192  22.973  0.00  0.00     0.073 A 
ATOM      6  O   UNL d   1     -47.075  15.296  22.924  0.00  0.00    -0.263 OA
ATOM      7  O   UNL d   1     -45.523  14.397  22.993  0.00  0.00    -0.281 OA
ENDROOT
BRANCH   2   8
ATOM      8  C   UNL d   1     -48.451  14.108  22.915  0.00  0.00     0.102 C 
BRANCH   8   9
ATOM      9  C   UNL d   1     -48.700  14.861  22.710  0.00  0.00     0.100 C 
BRANCH   9  10
ATOM     10  N   UNL d   1     -49.480  15.089  22.825  0.00  0.00    -0.298 N 
ATOM     11  C   UNL d   1     -50.051  14.874  22.238  0.00  0.00     0.107 A 
ATOM     12  C   UNL d   1     -50.852  15.101  22.344  0.00  0.00     0.142 A 
ATOM     13  O   UNL d   1     -51.064  15.533  23.025  0.00  0.00    -0.300 OA
ATOM     14  C   UNL d   1     -50.509  15.741  23.593  0.00  0.00     0.142 A 
ATOM     15  C   UNL d   1     -49.703  15.511  23.486  0.00  0.00     0.107 A 
ENDBRANCH   9  10
ENDBRANCH   8   9
ENDBRANCH   2   8
BRANCH   5  16
ATOM     16  C   UNL d   1     -47.715  12.484  22.979  0.00  0.00     0.016 A 
ATOM     17  C   UNL d   1     -47.953  12.139  22.269  0.00  0.00     0.001 A 
ATOM     18  C   UNL d   1     -48.376  11.439  22.273  0.00  0.00     0.000 A 
ATOM     19  C   UNL d   1     -48.568  11.074  22.994  0.00  0.00     0.000 A 
ATOM     20  C   UNL d   1     -48.326  11.425  23.698  0.00  0.00     0.000 A 
ATOM     21  C   UNL d   1     -47.897  12.135  23.687  0.00  0.00     0.001 A 
ENDBRANCH   5  16
BRANCH   1  22
ATOM     22  C   UNL d   1     -45.923  12.661  23.027  0.00  0.00     0.206 C 
ATOM     23  O   UNL d   1     -45.980  12.100  23.608  0.00  0.00    -0.286 OA
BRANCH  22  24
ATOM     24  C   UNL d   1     -45.300  12.618  22.458  0.00  0.00     0.069 A 
ATOM     25  S   UNL d   1     -44.529  12.348  22.596  0.00  0.00    -0.083 SA
ATOM     26  C   UNL d   1     -44.111  12.404  21.887  0.00  0.00     0.035 A 
ATOM     27  C   UNL d   1     -44.609  12.705  21.309  0.00  0.00     0.008 A 
ATOM     28  C   UNL d   1     -45.348  12.839  21.664  0.00  0.00     0.010 A 
ENDBRANCH  22  24
ENDBRANCH   1  22
TORSDOF 6
ENDMDL
MODEL 2
REMARK VINA RESULT:      -6.7      2.189      4.820
REMARK  6 active torsions:
REMARK  status: ('A' for Active; 'I' for Inactive)
REMARK    1  A    between atoms: C_6  and  C_1 
REMARK    2  A    between atoms: C_8  and  N_2 
REMARK    3  A    between atoms: C_12  and  C_5 
REMARK    4  A    between atoms: C_7  and  C_6 
REMARK    5  A    between atoms: C_18  and  C_8 
REMARK    6  A    between atoms: N_10  and  C_18 
ROOT
ATOM      1  C   UNL d   1     -49.066  12.620  23.149  0.00  0.00     0.099 A 
ATOM      2  N   UNL d   1     -47.839  12.087  23.224  0.00  0.00    -0.269 N 
ATOM      3  C   UNL d   1     -49.163  11.840  23.397  0.00  0.00     0.256 A 
ATOM      4  C   UNL d   1     -48.412  11.516  23.442  0.00  0.00     0.304 A 
ATOM      5  C   UNL d   1     -48.270  12.768  23.045  0.00  0.00     0.073 A 
ATOM      6  O   UNL d   1     -48.239  10.746  23.667  0.00  0.00    -0.263 OA
ATOM      7  O   UNL d   1     -49.881  11.465  23.565  0.00  0.00    -0.281 OA
ENDROOT
BRANCH   2   8
ATOM      8  C   UNL d   1     -47.011  11.999  23.190  0.00  0.00     0.102 C 
BRANCH   8   9
ATOM      9  C   UNL d   1     -46.673  11.286  23.407  0.00  0.00     0.100 C 
BRANCH   9  10
ATOM     10  N   UNL d   1     -45.859  11.181  23.372  0.00  0.00    -0.298 N 
ATOM     11  C   UNL d   1     -45.533  10.471  23.698  0.00  0.00     0.107 A 
ATOM     12  C   UNL d   1     -44.703  10.352  23.668  0.00  0.00     0.142 A 
ATOM     13  O   UNL d   1     -44.222  10.936  23.318  0.00  0.00    -0.300 OA
ATOM     14  C   UNL d   1     -44.540  11.624  23.002  0.00  0.00     0.142 A 
ATOM     15  C   UNL d   1     -45.376  11.743  23.033  0.00  0.00     0.107 A 
ENDBRANCH   9  10
ENDBRANCH   8   9
ENDBRANCH   2   8
BRANCH   5  16
ATOM     16  C   UNL d   1     -47.927  13.480  22.800  0.00  0.00     0.016 A 
ATOM     17  C   UNL d   1     -47.673  13.569  22.020  0.00  0.00     0.001 A 
ATOM     18  C   UNL d   1     -47.333  14.272  21.776  0.00  0.00     0.000 A 
ATOM     19  C   UNL d   1     -47.244  14.898  22.314  0.00  0.00     0.000 A 
ATOM     20  C   UNL d   1     -47.500  14.801  23.089  0.00  0.00     0.000 A 
ATOM     21  C   UNL d   1     -47.843  14.085  23.331  0.00  0.00     0.001 A 
ENDBRANCH   5  16
BRANCH   1  22
ATOM     22  C   UNL d   1     -49.684  13.153  23.029  0.00  0.00     0.206 C 
ATOM     23  O   UNL d   1     -49.821  13.736  23.575  0.00  0.00    -0.286 OA
BRANCH  22  24
ATOM     24  C   UNL d   1     -50.172  13.093  22.342  0.00  0.00     0.069 A 
ATOM     25  S   UNL d   1     -50.712  13.661  22.075  0.00  0.00    -0.083 SA
ATOM     26  C   UNL d   1     -51.064  13.372  21.389  0.00  0.00     0.035 A 
ATOM     27  C   UNL d   1     -50.754  12.631  21.223  0.00  0.00     0.008 A 
ATOM     28  C   UNL d   1     -50.198  12.458  21.817  0.00  0.00     0.010 A 
ENDBRANCH  22  24
ENDBRANCH   1  22
TORSDOF 6
ENDMDL
MODEL 3
REMARK VINA RESULT:      -5.8      6.827      8.766
REMARK  6 active torsions:
REMARK  status: ('A' for Active; 'I' for Inactive)
REMARK    1  A    between atoms: C_6  and  C_1 
REMARK    2  A    between atoms: C_8  and  N_2 
REMARK    3  A    between atoms: C_12  and  C_5 
REMARK    4  A    between atoms: C_7  and  C_6 
REMARK    5  A    between atoms: C_18  and  C_8 
REMARK    6  A    between atoms: N_10  and  C_18 
ROOT
ATOM      1  C   UNL d   1     -39.334  15.441  21.157  0.00  0.00     0.099 A 
ATOM      2  N   UNL d   1     -39.614  15.443  19.847  0.00  0.00    -0.269 N 
ATOM      3  C   UNL d   1     -38.654  15.702  20.771  0.00  0.00     0.256 A 
ATOM      4  C   UNL d   1     -38.827  15.702  19.970  0.00  0.00     0.304 A 
ATOM      5  C   UNL d   1     -39.911  15.286  20.602  0.00  0.00     0.073 A 
ATOM      6  O   UNL d   1     -38.311  15.922  19.372  0.00  0.00    -0.263 OA
ATOM      7  O   UNL d   1     -37.940  15.918  21.129  0.00  0.00    -0.281 OA
ENDROOT
BRANCH   2   8
ATOM      8  C   UNL d   1     -40.021  15.358  19.126  0.00  0.00     0.102 C 
BRANCH   8   9
ATOM      9  C   UNL d   1     -39.681  15.638  18.436  0.00  0.00     0.100 C 
BRANCH   9  10
ATOM     10  N   UNL d   1     -40.048  15.521  17.711  0.00  0.00    -0.298 N 
ATOM     11  C   UNL d   1     -40.818  15.853  17.593  0.00  0.00     0.107 A 
ATOM     12  C   UNL d   1     -41.203  15.740  16.856  0.00  0.00     0.142 A 
ATOM     13  O   UNL d   1     -40.817  15.304  16.259  0.00  0.00    -0.300 OA
ATOM     14  C   UNL d   1     -40.070  14.983  16.375  0.00  0.00     0.142 A 
ATOM     15  C   UNL d   1     -39.683  15.098  17.118  0.00  0.00     0.107 A 
ENDBRANCH   9  10
ENDBRANCH   8   9
ENDBRANCH   2   8
BRANCH   5  16
ATOM     16  C   UNL d   1     -40.678  15.014  20.748  0.00  0.00     0.016 A 
ATOM     17  C   UNL d   1     -41.268  15.543  20.975  0.00  0.00     0.001 A 
ATOM     18  C   UNL d   1     -42.027  15.276  21.121  0.00  0.00     0.000 A 
ATOM     19  C   UNL d   1     -42.206  14.469  21.039  0.00  0.00     0.000 A 
ATOM     20  C   UNL d   1     -41.612  13.947  20.812  0.00  0.00     0.000 A 
ATOM     21  C   UNL d   1     -40.844  14.225  20.666  0.00  0.00     0.001 A 
ENDBRANCH   5  16
BRANCH   1  22
ATOM     22  C   UNL d   1     -39.404  15.357  21.975  0.00  0.00     0.206 C 
ATOM     23  O   UNL d   1     -39.893  15.854  22.388  0.00  0.00    -0.286 OA
BRANCH  22  24
ATOM     24  C   UNL d   1     -38.969  14.757  22.381  0.00  0.00     0.069 A 
ATOM     25  S   UNL d   1     -38.685  14.800  23.157  0.00  0.00    -0.083 SA
ATOM     26  C   UNL d   1     -38.295  14.093  23.323  0.00  0.00     0.035 A 
ATOM     27  C   UNL d   1     -38.331  13.609  22.662  0.00  0.00     0.008 A 
ATOM     28  C   UNL d   1     -38.750  14.023  22.076  0.00  0.00     0.010 A 
ENDBRANCH  22  24
ENDBRANCH   1  22
TORSDOF 6
ENDMDL
MODEL 4
REMARK VINA RESULT:      -4.5      1.695      4.370
REMARK  6 active torsions:
REMARK  status: ('A' for Active; 'I' for Inactive)
REMARK    1  A    between atoms: C_6  and  C_1 
REMARK    2  A    between atoms: C_8  and  N_2 
REMARK    3  A    between atoms: C_12  and  C_5 
REMARK    4  A    between atoms: C_7  and  C_6 
REMARK    5  A    between atoms: C_18  and  C_8 
REMARK    6  A    between atoms: N_10  and  C_18 
ROOT
ATOM      1  C   UNL d   1     -48.554  14.282  22.525  0.00  0.00     0.099 A 
ATOM      2  N   UNL d   1     -47.548  13.456  22.841  0.00  0.00    -0.269 N 
ATOM      3  C   UNL d   1     -47.906  14.759  22.700  0.00  0.00     0.256 A 
ATOM      4  C   UNL d   1     -47.291  14.252  22.893  0.00  0.00     0.304 A 
ATOM      5  C   UNL d   1     -48.339  13.500  22.609  0.00  0.00     0.073 A 
ATOM      6  O   UNL d   1     -46.534  14.483  23.107  0.00  0.00    -0.263 OA
ATOM      7  O   UNL d   1     -47.886  15.586  22.683  0.00  0.00    -0.281 OA
ENDROOT
BRANCH   2   8
ATOM      8  C   UNL d   1     -47.110  12.764  22.987  0.00  0.00     0.102 C 
BRANCH   8   9
ATOM      9  C   UNL d   1     -46.314  12.821  23.171  0.00  0.00     0.100 C 
BRANCH   9  10
ATOM     10  N   UNL d   1     -45.848  12.148  23.231  0.00  0.00    -0.298 N 
ATOM     11  C   UNL d   1     -45.091  12.150  22.853  0.00  0.00     0.107 A 
ATOM     12  C   UNL d   1     -44.605  11.468  22.907  0.00  0.00     0.142 A 
ATOM     13  O   UNL d   1     -44.882  10.806  23.332  0.00  0.00    -0.300 OA
ATOM     14  C   UNL d   1     -45.618  10.806  23.698  0.00  0.00     0.142 A 
ATOM     15  C   UNL d   1     -46.105  11.493  23.643  0.00  0.00     0.107 A 
ENDBRANCH   9  10
ENDBRANCH   8   9
ENDBRANCH   2   8
BRANCH   5  16
ATOM     16  C   UNL d   1     -48.821  12.838  22.487  0.00  0.00     0.016 A 
ATOM     17  C   UNL d   1     -49.140  12.435  23.132  0.00  0.00     0.001 A 
ATOM     18  C   UNL d   1     -49.616  11.780  23.014  0.00  0.00     0.000 A 
ATOM     19  C   UNL d   1     -49.780  11.520  22.242  0.00  0.00     0.000 A 
ATOM     20  C   UNL d   1     -49.458  11.928  21.605  0.00  0.00     0.000 A 
ATOM     21  C   UNL d   1     -48.975  12.591  21.731  0.00  0.00     0.001 A 
ENDBRANCH   5  16
BRANCH   1  22
ATOM     22  C   UNL d   1     -49.296  14.566  22.301  0.00  0.00     0.206 C 
ATOM     23  O   UNL d   1     -49.558  14.447  21.544  0.00  0.00    -0.286 OA
BRANCH  22  24
ATOM     24  C   UNL d   1     -49.781  14.979  22.857  0.00  0.00     0.069 A 
ATOM     25  S   UNL d   1     -50.489  14.704  23.187  0.00  0.00    -0.083 SA
ATOM     26  C   UNL d   1     -50.772  15.285  23.698  0.00  0.00     0.035 A 
ATOM     27  C   UNL d   1     -50.251  15.919  23.693  0.00  0.00     0.008 A 
ATOM     28  C   UNL d   1     -49.634  15.728  23.169  0.00  0.00     0.010 A 
ENDBRANCH  22  24
ENDBRANCH   1  22
TORSDOF 6
ENDMDL
