MODEL 1
REMARK VINA RESULT:      75.7      0.000      0.000
REMARK  4 active torsions:
REMARK  status: ('A' for Active; 'I' for Inactive)
REMARK    1  A    between atoms: S_3  and  N_1 
REMARK    2  A    between atoms: C_9  and  S_3 
REMARK    3  A    between atoms: C_10  and  N_5 
REMARK    4  A    between atoms: C_15  and  C_10 
ROOT
ATOM      1  N   UNL d   1     -57.603 -99.295 -44.201  0.00  0.00    -0.195 N 
ATOM      2  C   UNL d   1     -58.181 -99.161 -44.760  0.00  0.00     0.193 A 
ATOM      3  C   UNL d   1     -58.943 -98.954 -44.523  0.00  0.00     0.185 A 
ATOM      4  N   UNL d   1     -58.920 -98.936 -43.706  0.00  0.00    -0.269 N 
ATOM      5  C   UNL d   1     -58.152 -99.130 -43.517  0.00  0.00     0.179 A 
ATOM      6  N   UNL d   1     -57.999 -99.233 -45.559  0.00  0.00    -0.223 NA
ATOM      7  N   UNL d   1     -59.525 -98.820 -45.089  0.00  0.00    -0.224 NA
ATOM      8  C   UNL d   1     -58.583 -99.097 -46.122  0.00  0.00     0.101 A 
ATOM      9  C   UNL d   1     -59.344 -98.892 -45.888  0.00  0.00     0.101 A 
ATOM     10  C   UNL d   1     -59.923 -98.758 -46.459  0.00  0.00     0.021 A 
ATOM     11  C   UNL d   1     -58.399 -99.170 -46.918  0.00  0.00     0.021 A 
ATOM     12  C   UNL d   1     -58.983 -99.034 -47.482  0.00  0.00     0.002 A 
ATOM     13  C   UNL d   1     -59.740 -98.829 -47.245  0.00  0.00     0.002 A 
ENDROOT
BRANCH   1  14
ATOM     14  S   UNL d   1     -56.786 -99.517 -44.493  0.00  0.00     0.274 S 
ATOM     15  O   UNL d   1     -56.375 -98.930 -45.021  0.00  0.00    -0.200 OA
ATOM     16  O   UNL d   1     -56.947 -98.762 -44.823  0.00  0.00    -0.200 OA
BRANCH  14  17
ATOM     17  C   UNL d   1     -56.306-100.173 -44.377  0.00  0.00     0.104 A 
ATOM     18  C   UNL d   1     -55.523-100.072 -44.113  0.00  0.00     0.013 A 
ATOM     19  C   UNL d   1     -55.042-100.741 -43.998  0.00  0.00     0.001 A 
ATOM     20  C   UNL d   1     -55.338-101.497 -44.145  0.00  0.00     0.000 A 
ATOM     21  C   UNL d   1     -56.124-101.590 -44.409  0.00  0.00     0.001 A 
ATOM     22  C   UNL d   1     -54.860-102.157 -44.030  0.00  0.00     0.000 C 
ATOM     23  C   UNL d   1     -56.601-100.930 -44.523  0.00  0.00     0.013 A 
ENDBRANCH  14  17
ENDBRANCH   1  14
BRANCH   4  24
ATOM     24  C   UNL d   1     -59.541 -98.758 -43.191  0.00  0.00     0.108 C 
BRANCH  24  25
ATOM     25  C   UNL d   1     -59.586 -99.125 -42.448  0.00  0.00     0.118 A 
ATOM     26  O   UNL d   1     -59.380 -98.782 -41.723  0.00  0.00    -0.304 OA
ATOM     27  C   UNL d   1     -59.512 -99.347 -41.116  0.00  0.00     0.123 A 
ATOM     28  C   UNL d   1     -59.800-100.038 -41.476  0.00  0.00     0.029 A 
ATOM     29  C   UNL d   1     -59.845 -99.897 -42.298  0.00  0.00     0.028 A 
ENDBRANCH  24  25
ENDBRANCH   4  24
TORSDOF 4
ENDMDL
