MODEL 1
REMARK VINA RESULT:      49.2      0.000      0.000
REMARK  6 active torsions:
REMARK  status: ('A' for Active; 'I' for Inactive)
REMARK    1  A    between atoms: C_2  and  N_1 
REMARK    2  A    between atoms: C_4  and  C_2 
REMARK    3  A    between atoms: C_6  and  C_2 
REMARK    4  A    between atoms: C_8  and  N_3 
REMARK       I    between atoms: C_5  and  N_7 
REMARK    5  A    between atoms: O_20  and  C_5 
REMARK    6  A    between atoms: N_7  and  C_6 
ROOT
ATOM      1  N   UNL d   1      14.382  13.930  -1.555  0.00  0.00    -0.298 N 
ATOM      2  N   UNL d   1      14.818  15.521  -1.491  0.00  0.00    -0.301 N 
ATOM      3  C   UNL d   1      14.594  14.321  -2.241  0.00  0.00     0.100 A 
ATOM      4  C   UNL d   1      14.385  14.328  -0.833  0.00  0.00     0.100 A 
ATOM      5  C   UNL d   1      14.600  15.114  -0.800  0.00  0.00     0.100 A 
ATOM      6  C   UNL d   1      14.815  15.124  -2.214  0.00  0.00     0.100 A 
ENDROOT
BRANCH   1   7
ATOM      7  C   UNL d   1      14.161  13.127  -1.583  0.00  0.00     0.107 C 
BRANCH   7   8
ATOM      8  C   UNL d   1      14.501  12.593  -1.032  0.00  0.00     0.118 A 
ATOM      9  O   UNL d   1      15.256  12.284  -1.157  0.00  0.00    -0.304 OA
ATOM     10  C   UNL d   1      15.429  11.780  -0.520  0.00  0.00     0.123 A 
ATOM     11  C   UNL d   1      14.789  11.779  -0.014  0.00  0.00     0.029 A 
ATOM     12  C   UNL d   1      14.210  12.282  -0.326  0.00  0.00     0.028 A 
ENDBRANCH   7   8
BRANCH   7  13
ATOM     13  C   UNL d   1      13.620  12.850  -2.137  0.00  0.00     0.124 C 
BRANCH  13  14
ATOM     14  N   UNL d   1      13.837  12.816  -2.947  0.00  0.00    -0.183 NA
ATOM     15  C   UNL d   1      13.475  12.288  -3.448  0.00  0.00     0.388 C 
ATOM     16  O   UNL d   1      12.889  11.779  -3.159  0.00  0.00    -0.236 OA
BRANCH  15  17
ATOM     17  O   UNL d   1      13.694  12.261  -4.242  0.00  0.00    -0.281 OA
ATOM     18  C   UNL d   1      13.151  12.014  -4.812  0.00  0.00     0.186 C 
ENDBRANCH  15  17
ENDBRANCH  13  14
ENDBRANCH   7  13
ENDBRANCH   1   7
BRANCH   2  19
ATOM     19  C   UNL d   1      15.030  16.300  -1.455  0.00  0.00     0.064 A 
ATOM     20  C   UNL d   1      14.901  16.791  -2.102  0.00  0.00     0.020 A 
ATOM     21  C   UNL d   1      15.115  17.586  -2.074  0.00  0.00     0.031 A 
ATOM     22  C   UNL d   1      15.461  17.892  -1.390  0.00  0.00     0.140 A 
ATOM     23  C   UNL d   1      15.592  17.402  -0.738  0.00  0.00     0.031 A 
ATOM     24  F   UNL d   1      15.681  18.700  -1.354  0.00  0.00    -0.204 F 
ATOM     25  C   UNL d   1      15.376  16.606  -0.771  0.00  0.00     0.020 A 
ENDBRANCH   2  19
TORSDOF 6
ENDMDL
