MODEL 1
REMARK VINA RESULT:      73.6      0.000      0.000
REMARK  8 active torsions:
REMARK  status: ('A' for Active; 'I' for Inactive)
REMARK    1  A    between atoms: N_3  and  C_1 
REMARK    2  A    between atoms: C_20  and  N_2 
REMARK       I    between atoms: C_7  and  N_3 
REMARK    3  A    between atoms: C_10  and  C_7 
REMARK    4  A    between atoms: C_9  and  C_10 
REMARK    5  A    between atoms: C_15  and  C_9 
REMARK       I    between atoms: C_12  and  N_13 
REMARK    6  A    between atoms: N_13  and  C_14 
REMARK    7  A    between atoms: C_26  and  C_20 
REMARK    8  A    between atoms: O_22  and  C_26 
ROOT
ATOM      1  C   UNL d   1     -57.157 -98.793 -43.098  0.00  0.00     0.182 A 
ATOM      2  N   UNL d   1     -57.885 -98.804 -43.478  0.00  0.00    -0.283 N 
ATOM      3  S   UNL d   1     -57.295 -98.789 -42.285  0.00  0.00    -0.048 SA
ATOM      4  C   UNL d   1     -58.115 -98.798 -42.165  0.00  0.00     0.050 A 
ATOM      5  C   UNL d   1     -58.480 -98.807 -42.905  0.00  0.00     0.072 A 
ATOM      6  C   UNL d   1     -58.572 -98.798 -41.478  0.00  0.00     0.027 A 
ATOM      7  C   UNL d   1     -59.303 -98.817 -42.959  0.00  0.00     0.020 A 
ATOM      8  C   UNL d   1     -59.394 -98.808 -41.533  0.00  0.00     0.085 A 
ATOM      9  C   UNL d   1     -59.760 -98.817 -42.273  0.00  0.00     0.021 A 
ENDROOT
BRANCH   1  10
ATOM     10  N   UNL d   1     -56.420 -98.788 -43.471  0.00  0.00    -0.184 NA
ATOM     11  C   UNL d   1     -56.063 -99.502 -43.677  0.00  0.00     0.281 C 
ATOM     12  O   UNL d   1     -56.444-100.214 -43.509  0.00  0.00    -0.265 OA
BRANCH  11  13
ATOM     13  C   UNL d   1     -55.327 -99.504 -44.050  0.00  0.00     0.063 C 
BRANCH  13  14
ATOM     14  C   UNL d   1     -54.996-100.210 -44.307  0.00  0.00     0.006 C 
BRANCH  14  15
ATOM     15  C   UNL d   1     -54.932-100.853 -43.805  0.00  0.00     0.011 A 
ATOM     16  C   UNL d   1     -55.002-101.623 -44.106  0.00  0.00     0.058 A 
ATOM     17 CL   UNL d   1     -55.138-101.736 -44.923  0.00  0.00    -0.082 Cl
ATOM     18  C   UNL d   1     -54.936-102.283 -43.592  0.00  0.00     0.011 A 
ATOM     19  C   UNL d   1     -54.803-102.180 -42.794  0.00  0.00     0.001 A 
ATOM     20  C   UNL d   1     -54.732-101.412 -42.489  0.00  0.00     0.000 A 
ATOM     21  C   UNL d   1     -54.797-100.757 -42.997  0.00  0.00     0.001 A 
ENDBRANCH  14  15
ENDBRANCH  13  14
ENDBRANCH  11  13
ENDBRANCH   1  10
BRANCH   2  22
ATOM     22  C   UNL d   1     -58.010 -98.812 -44.296  0.00  0.00     0.108 C 
BRANCH  22  23
ATOM     23  C   UNL d   1     -58.696 -99.142 -44.612  0.00  0.00     0.135 C 
BRANCH  23  24
ATOM     24  O   UNL d   1     -58.949 -98.928 -45.364  0.00  0.00    -0.325 OA
ATOM     25  C   UNL d   1     -59.492 -99.400 -45.777  0.00  0.00     0.182 C 
ENDBRANCH  23  24
ENDBRANCH  22  23
ENDBRANCH   2  22
BRANCH   8  26
ATOM     26  N   UNL d   1     -59.860 -98.808 -40.836  0.00  0.00    -0.208 NA
ATOM     27  C   UNL d   1     -59.498 -98.885 -40.107  0.00  0.00     0.279 C 
ATOM     28  O   UNL d   1     -59.958 -98.885 -39.423  0.00  0.00    -0.265 OA
ATOM     29  C   UNL d   1     -58.678 -98.962 -40.045  0.00  0.00     0.068 C 
ENDBRANCH   8  26
TORSDOF 8
ENDMDL
