MODEL 1
REMARK VINA RESULT:      16.0      0.000      0.000
REMARK  3 active torsions:
REMARK  status: ('A' for Active; 'I' for Inactive)
REMARK    1  A    between atoms: N_3  and  C_1 
REMARK       I    between atoms: C_5  and  N_3 
REMARK    2  A    between atoms: C_6  and  C_5 
REMARK    3  A    between atoms: O_19  and  C_17 
ROOT
ATOM      1  N   UNL d   1      45.939 -16.148  43.542  0.00  0.00    -0.181 NA
ATOM      2  C   UNL d   1      46.010 -15.730  44.248  0.00  0.00     0.306 C 
ATOM      3  O   UNL d   1      46.213 -16.141  44.955  0.00  0.00    -0.263 OA
ENDROOT
BRANCH   1   4
ATOM      4  C   UNL d   1      46.062 -16.962  43.517  0.00  0.00     0.197 A 
ATOM      5  N   UNL d   1      46.075 -17.458  44.181  0.00  0.00    -0.221 NA
ATOM      6  C   UNL d   1      46.216 -18.227  43.903  0.00  0.00     0.090 A 
ATOM      7  C   UNL d   1      46.286 -18.944  44.303  0.00  0.00     0.022 A 
ATOM      8  C   UNL d   1      46.286 -18.191  43.083  0.00  0.00     0.052 A 
ATOM      9  C   UNL d   1      46.429 -19.632  43.863  0.00  0.00     0.026 A 
ATOM     10  C   UNL d   1      46.498 -19.597  43.053  0.00  0.00     0.095 A 
ATOM     11  C   UNL d   1      46.428 -18.880  42.644  0.00  0.00     0.032 A 
ATOM     12  S   UNL d   1      46.190 -17.413  42.859  0.00  0.00    -0.047 SA
BRANCH  10  13
ATOM     13  O   UNL d   1      46.645 -20.303  42.593  0.00  0.00    -0.328 OA
ATOM     14  C   UNL d   1      46.628 -20.252  41.755  0.00  0.00     0.181 C 
ENDBRANCH  10  13
ENDBRANCH   1   4
BRANCH   2  15
ATOM     15  C   UNL d   1      45.887 -14.917  44.273  0.00  0.00     0.182 A 
ATOM     16  O   UNL d   1      45.532 -14.549  43.630  0.00  0.00    -0.298 OA
ATOM     17  C   UNL d   1      45.405 -13.724  43.652  0.00  0.00     0.123 A 
ATOM     18  C   UNL d   1      45.048 -13.345  43.007  0.00  0.00     0.027 A 
ATOM     19  C   UNL d   1      45.635 -13.297  44.310  0.00  0.00     0.123 A 
ATOM     20  C   UNL d   1      44.926 -12.530  43.037  0.00  0.00     0.002 A 
ATOM     21  C   UNL d   1      45.150 -12.097  43.684  0.00  0.00     0.002 A 
ATOM     22  C   UNL d   1      45.507 -12.476  44.329  0.00  0.00     0.027 A 
ATOM     23  O   UNL d   1      45.992 -13.676  44.955  0.00  0.00    -0.301 OA
ATOM     24  C   UNL d   1      46.112 -14.486  44.923  0.00  0.00     0.152 A 
ENDBRANCH   2  15
TORSDOF 3
ENDMDL
