MODEL 1
REMARK VINA RESULT:      -0.3      0.000      0.000
REMARK  5 active torsions:
REMARK  status: ('A' for Active; 'I' for Inactive)
REMARK    1  A    between atoms: N_6  and  C_1 
REMARK    2  A    between atoms: C_8  and  C_2 
REMARK    3  A    between atoms: C_11  and  C_3 
REMARK       I    between atoms: C_7  and  N_6 
REMARK    4  A    between atoms: C_9  and  C_7 
REMARK    5  A    between atoms: C_20  and  C_11 
ROOT
ATOM      1  C   UNL d   1     -41.426-122.461 -51.604  0.00  0.00     0.119 A 
ATOM      2  C   UNL d   1     -41.437-121.861 -51.045  0.00  0.00     0.084 A 
ATOM      3  C   UNL d   1     -41.323-123.028 -50.399  0.00  0.00     0.031 A 
ATOM      4  S   UNL d   1     -41.356-123.188 -51.212  0.00  0.00    -0.068 SA
ATOM      5  C   UNL d   1     -41.373-122.213 -50.298  0.00  0.00     0.013 A 
ATOM      6  C   UNL d   1     -41.360-121.820 -49.570  0.00  0.00     0.001 C 
ENDROOT
BRANCH   1   7
ATOM      7  N   UNL d   1     -41.478-122.358 -52.435  0.00  0.00    -0.201 NA
ATOM      8  C   UNL d   1     -41.596-123.017 -52.931  0.00  0.00     0.280 C 
ATOM      9  O   UNL d   1     -41.662-123.774 -52.611  0.00  0.00    -0.265 OA
BRANCH   8  10
ATOM     10  C   UNL d   1     -41.646-122.908 -53.751  0.00  0.00     0.058 A 
ATOM     11  C   UNL d   1     -42.222-122.403 -54.068  0.00  0.00     0.005 A 
ATOM     12  C   UNL d   1     -42.267-122.301 -54.863  0.00  0.00     0.000 A 
ATOM     13  C   UNL d   1     -42.858-121.785 -55.150  0.00  0.00     0.000 A 
ATOM     14  C   UNL d   1     -41.766-122.675 -55.382  0.00  0.00     0.000 A 
ATOM     15  C   UNL d   1     -42.927-121.663 -55.952  0.00  0.00     0.000 A 
ATOM     16  C   UNL d   1     -42.421-122.040 -56.482  0.00  0.00     0.000 A 
ATOM     17  C   UNL d   1     -41.837-122.550 -56.187  0.00  0.00     0.000 A 
ATOM     18  C   UNL d   1     -41.171-123.195 -55.069  0.00  0.00     0.000 A 
ATOM     19  C   UNL d   1     -41.123-123.303 -54.251  0.00  0.00     0.005 A 
ENDBRANCH   8  10
ENDBRANCH   1   7
BRANCH   2  20
ATOM     20  C   UNL d   1     -41.500-121.051 -51.188  0.00  0.00     0.299 C 
ATOM     21  O   UNL d   1     -42.013-120.769 -51.853  0.00  0.00    -0.264 OA
ATOM     22  N   UNL d   1     -41.123-120.543 -50.755  0.00  0.00    -0.102 N 
ENDBRANCH   2  20
BRANCH   3  23
ATOM     23  C   UNL d   1     -41.253-123.530 -49.736  0.00  0.00     0.007 C 
BRANCH  23  24
ATOM     24  C   UNL d   1     -41.891-123.603 -49.206  0.00  0.00     0.003 A 
ATOM     25  C   UNL d   1     -41.755-123.531 -48.391  0.00  0.00     0.026 A 
ATOM     26  C   UNL d   1     -42.380-123.602 -47.860  0.00  0.00     0.119 A 
ATOM     27  O   UNL d   1     -42.411-123.558 -47.044  0.00  0.00    -0.300 OA
ATOM     28  C   UNL d   1     -43.143-123.746 -48.137  0.00  0.00     0.119 A 
ATOM     29  C   UNL d   1     -43.188-123.673 -46.812  0.00  0.00     0.304 A 
ATOM     30  O   UNL d   1     -43.640-123.789 -47.490  0.00  0.00    -0.300 OA
ATOM     31  C   UNL d   1     -43.281-123.817 -48.945  0.00  0.00     0.026 A 
ATOM     32  C   UNL d   1     -42.654-123.746 -49.483  0.00  0.00     0.002 A 
ENDBRANCH  23  24
ENDBRANCH   3  23
TORSDOF 5
ENDMDL
MODEL 2
REMARK VINA RESULT:       0.7      1.372      5.713
REMARK  5 active torsions:
REMARK  status: ('A' for Active; 'I' for Inactive)
REMARK    1  A    between atoms: N_6  and  C_1 
REMARK    2  A    between atoms: C_8  and  C_2 
REMARK    3  A    between atoms: C_11  and  C_3 
REMARK       I    between atoms: C_7  and  N_6 
REMARK    4  A    between atoms: C_9  and  C_7 
REMARK    5  A    between atoms: C_20  and  C_11 
ROOT
ATOM      1  C   UNL d   1     -41.913-121.910 -51.645  0.00  0.00     0.119 A 
ATOM      2  C   UNL d   1     -41.698-121.139 -51.823  0.00  0.00     0.084 A 
ATOM      3  C   UNL d   1     -41.447-121.899 -52.897  0.00  0.00     0.031 A 
ATOM      4  S   UNL d   1     -41.761-122.388 -52.305  0.00  0.00    -0.068 SA
ATOM      5  C   UNL d   1     -41.409-121.132 -52.600  0.00  0.00     0.013 A 
ATOM      6  C   UNL d   1     -41.128-120.473 -53.014  0.00  0.00     0.001 C 
ENDROOT
BRANCH   1   7
ATOM      7  N   UNL d   1     -42.234-122.173 -50.916  0.00  0.00    -0.201 NA
ATOM      8  C   UNL d   1     -41.860-122.785 -50.492  0.00  0.00     0.280 C 
ATOM      9  O   UNL d   1     -41.174-123.136 -50.783  0.00  0.00    -0.265 OA
BRANCH   8  10
ATOM     10  C   UNL d   1     -42.182-123.040 -49.772  0.00  0.00     0.058 A 
ATOM     11  C   UNL d   1     -41.709-123.066 -49.091  0.00  0.00     0.005 A 
ATOM     12  C   UNL d   1     -42.027-123.313 -48.396  0.00  0.00     0.000 A 
ATOM     13  C   UNL d   1     -41.523-123.327 -47.730  0.00  0.00     0.000 A 
ATOM     14  C   UNL d   1     -42.802-123.544 -48.326  0.00  0.00     0.000 A 
ATOM     15  C   UNL d   1     -41.818-123.574 -47.011  0.00  0.00     0.000 A 
ATOM     16  C   UNL d   1     -42.605-123.809 -46.936  0.00  0.00     0.000 A 
ATOM     17  C   UNL d   1     -43.096-123.792 -47.604  0.00  0.00     0.000 A 
ATOM     18  C   UNL d   1     -43.297-123.522 -49.017  0.00  0.00     0.000 A 
ATOM     19  C   UNL d   1     -42.974-123.268 -49.734  0.00  0.00     0.005 A 
ENDBRANCH   8  10
ENDBRANCH   1   7
BRANCH   2  20
ATOM     20  C   UNL d   1     -41.753-120.481 -51.330  0.00  0.00     0.299 C 
ATOM     21  O   UNL d   1     -42.533-120.067 -51.250  0.00  0.00    -0.264 OA
ATOM     22  N   UNL d   1     -41.144-120.224 -50.942  0.00  0.00    -0.102 N 
ENDBRANCH   2  20
BRANCH   3  23
ATOM     23  C   UNL d   1     -41.190-122.062 -53.674  0.00  0.00     0.007 C 
BRANCH  23  24
ATOM     24  C   UNL d   1     -41.671-122.516 -54.180  0.00  0.00     0.003 A 
ATOM     25  C   UNL d   1     -42.182-122.135 -54.710  0.00  0.00     0.026 A 
ATOM     26  C   UNL d   1     -42.660-122.576 -55.213  0.00  0.00     0.119 A 
ATOM     27  O   UNL d   1     -43.206-122.355 -55.781  0.00  0.00    -0.300 OA
ATOM     28  C   UNL d   1     -42.633-123.399 -55.191  0.00  0.00     0.119 A 
ATOM     29  C   UNL d   1     -43.518-123.036 -56.113  0.00  0.00     0.304 A 
ATOM     30  O   UNL d   1     -43.163-123.682 -55.746  0.00  0.00    -0.300 OA
ATOM     31  C   UNL d   1     -42.128-123.781 -54.667  0.00  0.00     0.026 A 
ATOM     32  C   UNL d   1     -41.644-123.339 -54.158  0.00  0.00     0.002 A 
ENDBRANCH  23  24
ENDBRANCH   3  23
TORSDOF 5
ENDMDL
