MODEL 1
REMARK VINA RESULT:      -2.3      0.000      0.000
REMARK  5 active torsions:
REMARK  status: ('A' for Active; 'I' for Inactive)
REMARK    1  A    between atoms: C_13  and  C_5 
REMARK    2  A    between atoms: C_16  and  C_13 
REMARK    3  A    between atoms: C_19  and  C_16 
REMARK    4  A    between atoms: C_17  and  C_18 
REMARK    5  A    between atoms: C_18  and  C_19 
ROOT
ATOM      1  C   UNL d   1      32.852  22.444 -22.706  0.00  0.00     0.111 A 
ATOM      2  C   UNL d   1      32.763  22.346 -21.270  0.00  0.00     0.062 A 
ATOM      3  C   UNL d   1      32.564  23.202 -22.672  0.00  0.00     0.213 A 
ATOM      4  C   UNL d   1      32.461  23.146 -21.250  0.00  0.00     0.105 A 
ATOM      5  C   UNL d   1      32.955  22.002 -21.994  0.00  0.00     0.018 A 
ATOM      6  O   UNL d   1      32.360  23.570 -21.914  0.00  0.00    -0.287 OA
ATOM      7  C   UNL d   1      33.044  22.100 -23.431  0.00  0.00     0.105 C 
ATOM      8  C   UNL d   1      32.856  21.934 -20.568  0.00  0.00     0.198 A 
ATOM      9  N   UNL d   1      33.241  21.747 -24.172  0.00  0.00    -0.191 NA
ATOM     10  N   UNL d   1      32.451  23.670 -23.393  0.00  0.00    -0.120 N 
ATOM     11  O   UNL d   1      33.154  21.151 -20.614  0.00  0.00    -0.286 OA
ATOM     12  C   UNL d   1      32.266  23.494 -20.509  0.00  0.00     0.025 A 
ATOM     13  C   UNL d   1      32.662  22.284 -19.843  0.00  0.00     0.042 A 
ATOM     14  C   UNL d   1      32.367  23.062 -19.808  0.00  0.00     0.005 A 
ENDROOT
BRANCH   5  15
ATOM     15  C   UNL d   1      33.241  21.248 -22.028  0.00  0.00     0.001 C 
BRANCH  15  16
ATOM     16  C   UNL d   1      32.818  20.654 -22.383  0.00  0.00     0.000 C 
BRANCH  16  17
ATOM     17  C   UNL d   1      33.106  19.849 -22.424  0.00  0.00     0.000 C 
BRANCH  17  18
ATOM     18  C   UNL d   1      32.588  19.247 -22.622  0.00  0.00     0.000 C 
BRANCH  18  19
ATOM     19  C   UNL d   1      32.901  18.535 -22.890  0.00  0.00     0.000 C 
ATOM     20  C   UNL d   1      32.424  17.995 -23.254  0.00  0.00     0.000 C 
ENDBRANCH  18  19
ENDBRANCH  17  18
ENDBRANCH  16  17
ENDBRANCH  15  16
ENDBRANCH   5  15
TORSDOF 5
ENDMDL
MODEL 2
REMARK VINA RESULT:      -2.1      1.378      2.124
REMARK  5 active torsions:
REMARK  status: ('A' for Active; 'I' for Inactive)
REMARK    1  A    between atoms: C_13  and  C_5 
REMARK    2  A    between atoms: C_16  and  C_13 
REMARK    3  A    between atoms: C_19  and  C_16 
REMARK    4  A    between atoms: C_17  and  C_18 
REMARK    5  A    between atoms: C_18  and  C_19 
ROOT
ATOM      1  C   UNL d   1      33.231  20.657 -23.420  0.00  0.00     0.111 A 
ATOM      2  C   UNL d   1      33.234  20.335 -22.015  0.00  0.00     0.062 A 
ATOM      3  C   UNL d   1      33.233  21.449 -23.239  0.00  0.00     0.213 A 
ATOM      4  C   UNL d   1      33.236  21.172 -21.840  0.00  0.00     0.105 A 
ATOM      5  C   UNL d   1      33.232  20.085 -22.801  0.00  0.00     0.018 A 
ATOM      6  O   UNL d   1      33.235  21.719 -22.416  0.00  0.00    -0.287 OA
ATOM      7  C   UNL d   1      33.229  20.407 -24.207  0.00  0.00     0.105 C 
ATOM      8  C   UNL d   1      33.234  19.796 -21.399  0.00  0.00     0.198 A 
ATOM      9  N   UNL d   1      33.227  20.150 -25.011  0.00  0.00    -0.191 NA
ATOM     10  N   UNL d   1      33.233  22.051 -23.864  0.00  0.00    -0.120 N 
ATOM     11  O   UNL d   1      33.232  18.981 -21.597  0.00  0.00    -0.286 OA
ATOM     12  C   UNL d   1      33.238  21.426 -21.037  0.00  0.00     0.025 A 
ATOM     13  C   UNL d   1      33.236  20.053 -20.611  0.00  0.00     0.042 A 
ATOM     14  C   UNL d   1      33.238  20.865 -20.426  0.00  0.00     0.005 A 
ENDROOT
BRANCH   5  15
ATOM     15  C   UNL d   1      33.230  19.298 -22.981  0.00  0.00     0.001 C 
BRANCH  15  16
ATOM     16  C   UNL d   1      32.539  18.907 -23.150  0.00  0.00     0.000 C 
BRANCH  16  17
ATOM     17  C   UNL d   1      32.529  18.108 -23.452  0.00  0.00     0.000 C 
BRANCH  17  18
ATOM     18  C   UNL d   1      31.822  17.696 -23.477  0.00  0.00     0.000 C 
BRANCH  18  19
ATOM     19  C   UNL d   1      31.781  17.017 -23.941  0.00  0.00     0.000 C 
ATOM     20  C   UNL d   1      31.228  16.452 -23.781  0.00  0.00     0.000 C 
ENDBRANCH  18  19
ENDBRANCH  17  18
ENDBRANCH  16  17
ENDBRANCH  15  16
ENDBRANCH   5  15
TORSDOF 5
ENDMDL
MODEL 3
REMARK VINA RESULT:      -2.0      1.532      2.232
REMARK  5 active torsions:
REMARK  status: ('A' for Active; 'I' for Inactive)
REMARK    1  A    between atoms: C_13  and  C_5 
REMARK    2  A    between atoms: C_16  and  C_13 
REMARK    3  A    between atoms: C_19  and  C_16 
REMARK    4  A    between atoms: C_17  and  C_18 
REMARK    5  A    between atoms: C_18  and  C_19 
ROOT
ATOM      1  C   UNL d   1      32.899  21.509 -21.108  0.00  0.00     0.111 A 
ATOM      2  C   UNL d   1      32.876  22.247 -22.347  0.00  0.00     0.062 A 
ATOM      3  C   UNL d   1      32.666  22.176 -20.707  0.00  0.00     0.213 A 
ATOM      4  C   UNL d   1      32.630  22.940 -21.911  0.00  0.00     0.105 A 
ATOM      5  C   UNL d   1      33.009  21.539 -21.944  0.00  0.00     0.018 A 
ATOM      6  O   UNL d   1      32.525  22.922 -21.124  0.00  0.00    -0.287 OA
ATOM      7  C   UNL d   1      33.032  20.801 -20.705  0.00  0.00     0.105 C 
ATOM      8  C   UNL d   1      32.976  22.298 -23.158  0.00  0.00     0.198 A 
ATOM      9  N   UNL d   1      33.167  20.077 -20.293  0.00  0.00    -0.191 NA
ATOM     10  N   UNL d   1      32.549  22.162 -19.848  0.00  0.00    -0.120 N 
ATOM     11  O   UNL d   1      33.218  21.604 -23.563  0.00  0.00    -0.286 OA
ATOM     12  C   UNL d   1      32.496  23.661 -22.324  0.00  0.00     0.025 A 
ATOM     13  C   UNL d   1      32.842  23.010 -23.558  0.00  0.00     0.042 A 
ATOM     14  C   UNL d   1      32.603  23.694 -23.146  0.00  0.00     0.005 A 
ENDROOT
BRANCH   5  15
ATOM     15  C   UNL d   1      33.241  20.877 -22.343  0.00  0.00     0.001 C 
BRANCH  15  16
ATOM     16  C   UNL d   1      32.752  20.233 -22.409  0.00  0.00     0.000 C 
BRANCH  16  17
ATOM     17  C   UNL d   1      32.946  19.562 -22.902  0.00  0.00     0.000 C 
BRANCH  17  18
ATOM     18  C   UNL d   1      32.485  18.886 -22.858  0.00  0.00     0.000 C 
BRANCH  18  19
ATOM     19  C   UNL d   1      32.785  18.189 -23.177  0.00  0.00     0.000 C 
ATOM     20  C   UNL d   1      32.307  17.705 -23.612  0.00  0.00     0.000 C 
ENDBRANCH  18  19
ENDBRANCH  17  18
ENDBRANCH  16  17
ENDBRANCH  15  16
ENDBRANCH   5  15
TORSDOF 5
ENDMDL
MODEL 4
REMARK VINA RESULT:      -0.5      4.051      6.069
REMARK  5 active torsions:
REMARK  status: ('A' for Active; 'I' for Inactive)
REMARK    1  A    between atoms: C_13  and  C_5 
REMARK    2  A    between atoms: C_16  and  C_13 
REMARK    3  A    between atoms: C_19  and  C_16 
REMARK    4  A    between atoms: C_17  and  C_18 
REMARK    5  A    between atoms: C_18  and  C_19 
ROOT
ATOM      1  C   UNL d   1      29.812  17.904 -24.499  0.00  0.00     0.111 A 
ATOM      2  C   UNL d   1      29.518  16.670 -23.812  0.00  0.00     0.062 A 
ATOM      3  C   UNL d   1      29.017  18.048 -24.581  0.00  0.00     0.213 A 
ATOM      4  C   UNL d   1      28.684  16.835 -23.906  0.00  0.00     0.105 A 
ATOM      5  C   UNL d   1      30.074  17.203 -24.108  0.00  0.00     0.018 A 
ATOM      6  O   UNL d   1      28.428  17.492 -24.273  0.00  0.00    -0.287 OA
ATOM      7  C   UNL d   1      30.368  18.438 -24.795  0.00  0.00     0.105 C 
ATOM      8  C   UNL d   1      29.750  15.985 -23.430  0.00  0.00     0.198 A 
ATOM      9  N   UNL d   1      30.937  18.982 -25.097  0.00  0.00    -0.191 NA
ATOM     10  N   UNL d   1      28.731  18.762 -24.980  0.00  0.00    -0.120 N 
ATOM     11  O   UNL d   1      30.574  15.845 -23.350  0.00  0.00    -0.286 OA
ATOM     12  C   UNL d   1      28.119  16.290 -23.604  0.00  0.00     0.025 A 
ATOM     13  C   UNL d   1      29.188  15.453 -23.135  0.00  0.00     0.042 A 
ATOM     14  C   UNL d   1      28.373  15.600 -23.219  0.00  0.00     0.005 A 
ENDROOT
BRANCH   5  15
ATOM     15  C   UNL d   1      30.864  17.060 -24.026  0.00  0.00     0.001 C 
BRANCH  15  16
ATOM     16  C   UNL d   1      31.354  17.600 -23.672  0.00  0.00     0.000 C 
BRANCH  16  17
ATOM     17  C   UNL d   1      32.130  17.390 -23.380  0.00  0.00     0.000 C 
BRANCH  17  18
ATOM     18  C   UNL d   1      32.708  17.967 -23.325  0.00  0.00     0.000 C 
BRANCH  18  19
ATOM     19  C   UNL d   1      33.112  18.048 -22.613  0.00  0.00     0.000 C 
ATOM     20  C   UNL d   1      33.233  18.782 -22.299  0.00  0.00     0.000 C 
ENDBRANCH  18  19
ENDBRANCH  17  18
ENDBRANCH  16  17
ENDBRANCH  15  16
ENDBRANCH   5  15
TORSDOF 5
ENDMDL
MODEL 5
REMARK VINA RESULT:      -0.3      4.155      5.497
REMARK  5 active torsions:
REMARK  status: ('A' for Active; 'I' for Inactive)
REMARK    1  A    between atoms: C_13  and  C_5 
REMARK    2  A    between atoms: C_16  and  C_13 
REMARK    3  A    between atoms: C_19  and  C_16 
REMARK    4  A    between atoms: C_17  and  C_18 
REMARK    5  A    between atoms: C_18  and  C_19 
ROOT
ATOM      1  C   UNL d   1      32.160  16.934 -23.457  0.00  0.00     0.111 A 
ATOM      2  C   UNL d   1      32.161  18.191 -24.164  0.00  0.00     0.062 A 
ATOM      3  C   UNL d   1      32.844  17.148 -23.075  0.00  0.00     0.213 A 
ATOM      4  C   UNL d   1      32.881  18.403 -23.754  0.00  0.00     0.105 A 
ATOM      5  C   UNL d   1      31.807  17.462 -24.014  0.00  0.00     0.018 A 
ATOM      6  O   UNL d   1      33.221  17.913 -23.229  0.00  0.00    -0.287 OA
ATOM      7  C   UNL d   1      31.805  16.204 -23.306  0.00  0.00     0.105 C 
ATOM      8  C   UNL d   1      31.835  18.717 -24.700  0.00  0.00     0.198 A 
ATOM      9  N   UNL d   1      31.442  15.458 -23.152  0.00  0.00    -0.191 NA
ATOM     10  N   UNL d   1      33.219  16.619 -22.501  0.00  0.00    -0.120 N 
ATOM     11  O   UNL d   1      31.128  18.487 -25.089  0.00  0.00    -0.286 OA
ATOM     12  C   UNL d   1      33.241  19.148 -23.910  0.00  0.00     0.025 A 
ATOM     13  C   UNL d   1      32.195  19.448 -24.848  0.00  0.00     0.042 A 
ATOM     14  C   UNL d   1      32.896  19.668 -24.456  0.00  0.00     0.005 A 
ENDROOT
BRANCH   5  15
ATOM     15  C   UNL d   1      31.127  17.249 -24.393  0.00  0.00     0.001 C 
BRANCH  15  16
ATOM     16  C   UNL d   1      30.402  17.355 -24.046  0.00  0.00     0.000 C 
BRANCH  16  17
ATOM     17  C   UNL d   1      29.706  16.928 -24.302  0.00  0.00     0.000 C 
BRANCH  17  18
ATOM     18  C   UNL d   1      29.008  17.336 -24.427  0.00  0.00     0.000 C 
BRANCH  18  19
ATOM     19  C   UNL d   1      28.446  17.341 -23.825  0.00  0.00     0.000 C 
ATOM     20  C   UNL d   1      28.122  16.648 -23.569  0.00  0.00     0.000 C 
ENDBRANCH  18  19
ENDBRANCH  17  18
ENDBRANCH  16  17
ENDBRANCH  15  16
ENDBRANCH   5  15
TORSDOF 5
ENDMDL
