MODEL 1
REMARK VINA RESULT:      -7.5      0.000      0.000
REMARK  2 active torsions:
REMARK  status: ('A' for Active; 'I' for Inactive)
REMARK       I    between atoms: N_4  and  C_1 
REMARK    1  A    between atoms: C_5  and  C_1 
REMARK       I    between atoms: C_2  and  N_3 
REMARK    2  A    between atoms: C_6  and  C_2 
ROOT
ATOM      1  C   UNL d   1     -40.442  14.449  20.782  0.00  0.00     0.265 C 
ATOM      2  C   UNL d   1     -39.860  14.565  17.330  0.00  0.00     0.265 C 
ATOM      3  N   UNL d   1     -39.682  14.604  18.124  0.00  0.00    -0.270 N 
ATOM      4  N   UNL d   1     -40.114  14.517  19.930  0.00  0.00    -0.270 N 
ATOM      5  C   UNL d   1     -40.434  14.446  18.476  0.00  0.00     0.102 A 
ATOM      6  C   UNL d   1     -40.629  14.406  19.316  0.00  0.00     0.102 A 
ATOM      7  O   UNL d   1     -41.327  14.262  20.902  0.00  0.00    -0.267 OA
ATOM      8  O   UNL d   1     -40.611  14.406  17.092  0.00  0.00    -0.267 OA
ATOM      9  C   UNL d   1     -38.913  14.769  19.207  0.00  0.00     0.038 A 
ATOM     10  C   UNL d   1     -39.408  14.666  19.860  0.00  0.00     0.085 A 
ATOM     11  C   UNL d   1     -38.989  14.752  18.522  0.00  0.00     0.085 A 
ENDROOT
BRANCH   2  12
ATOM     12  C   UNL d   1     -39.267  14.689  16.786  0.00  0.00     0.057 A 
ATOM     13  C   UNL d   1     -38.908  14.054  16.456  0.00  0.00     0.005 A 
ATOM     14  C   UNL d   1     -38.314  14.168  15.910  0.00  0.00     0.000 A 
ATOM     15  C   UNL d   1     -37.940  13.535  15.566  0.00  0.00     0.000 C 
ATOM     16  C   UNL d   1     -38.093  14.923  15.707  0.00  0.00     0.000 A 
ATOM     17  C   UNL d   1     -38.462  15.558  16.047  0.00  0.00     0.000 A 
ATOM     18  C   UNL d   1     -39.050  15.441  16.586  0.00  0.00     0.005 A 
ENDBRANCH   2  12
BRANCH   1  19
ATOM     19  C   UNL d   1     -39.845  14.577  21.464  0.00  0.00     0.057 A 
ATOM     20  C   UNL d   1     -39.432  13.867  21.840  0.00  0.00     0.005 A 
ATOM     21  C   UNL d   1     -38.839  13.992  22.518  0.00  0.00     0.000 A 
ATOM     22  C   UNL d   1     -38.414  13.295  22.910  0.00  0.00     0.000 C 
ATOM     23  C   UNL d   1     -38.659  14.836  22.819  0.00  0.00     0.000 A 
ATOM     24  C   UNL d   1     -39.080  15.550  22.434  0.00  0.00     0.000 A 
ATOM     25  C   UNL d   1     -39.675  15.421  21.754  0.00  0.00     0.005 A 
ENDBRANCH   1  19
TORSDOF 2
ENDMDL
MODEL 2
REMARK VINA RESULT:      -6.2      7.673      9.403
REMARK  2 active torsions:
REMARK  status: ('A' for Active; 'I' for Inactive)
REMARK       I    between atoms: N_4  and  C_1 
REMARK    1  A    between atoms: C_5  and  C_1 
REMARK       I    between atoms: C_2  and  N_3 
REMARK    2  A    between atoms: C_6  and  C_2 
ROOT
ATOM      1  C   UNL d   1     -49.027  14.289  22.814  0.00  0.00     0.265 C 
ATOM      2  C   UNL d   1     -45.576  13.739  22.596  0.00  0.00     0.265 C 
ATOM      3  N   UNL d   1     -46.369  13.564  22.542  0.00  0.00    -0.270 N 
ATOM      4  N   UNL d   1     -48.175  13.976  22.698  0.00  0.00    -0.270 N 
ATOM      5  C   UNL d   1     -46.722  14.290  22.797  0.00  0.00     0.102 A 
ATOM      6  C   UNL d   1     -47.562  14.475  22.867  0.00  0.00     0.102 A 
ATOM      7  O   UNL d   1     -49.148  15.144  23.112  0.00  0.00    -0.267 OA
ATOM      8  O   UNL d   1     -45.338  14.465  22.847  0.00  0.00    -0.267 OA
ATOM      9  C   UNL d   1     -47.452  12.819  22.290  0.00  0.00     0.038 A 
ATOM     10  C   UNL d   1     -48.104  13.295  22.461  0.00  0.00     0.085 A 
ATOM     11  C   UNL d   1     -46.767  12.894  22.311  0.00  0.00     0.085 A 
ENDROOT
BRANCH   2  12
ATOM     12  C   UNL d   1     -45.031  13.168  22.394  0.00  0.00     0.057 A 
ATOM     13  C   UNL d   1     -44.500  13.330  21.816  0.00  0.00     0.005 A 
ATOM     14  C   UNL d   1     -43.951  12.766  21.607  0.00  0.00     0.000 A 
ATOM     15  C   UNL d   1     -43.406  12.915  21.023  0.00  0.00     0.000 C 
ATOM     16  C   UNL d   1     -43.948  12.047  21.985  0.00  0.00     0.000 A 
ATOM     17  C   UNL d   1     -44.488  11.893  22.568  0.00  0.00     0.000 A 
ATOM     18  C   UNL d   1     -45.030  12.454  22.772  0.00  0.00     0.005 A 
ENDBRANCH   2  12
BRANCH   1  19
ATOM     19  C   UNL d   1     -49.709  13.710  22.617  0.00  0.00     0.057 A 
ATOM     20  C   UNL d   1     -50.039  13.169  23.260  0.00  0.00     0.005 A 
ATOM     21  C   UNL d   1     -50.716  12.593  23.067  0.00  0.00     0.000 A 
ATOM     22  C   UNL d   1     -51.063  12.041  23.696  0.00  0.00     0.000 C 
ATOM     23  C   UNL d   1     -51.064  12.562  22.223  0.00  0.00     0.000 A 
ATOM     24  C   UNL d   1     -50.725  13.113  21.576  0.00  0.00     0.000 A 
ATOM     25  C   UNL d   1     -50.045  13.689  21.773  0.00  0.00     0.005 A 
ENDBRANCH   1  19
TORSDOF 2
ENDMDL
MODEL 3
REMARK VINA RESULT:      -6.2      8.014      9.843
REMARK  2 active torsions:
REMARK  status: ('A' for Active; 'I' for Inactive)
REMARK       I    between atoms: N_4  and  C_1 
REMARK    1  A    between atoms: C_5  and  C_1 
REMARK       I    between atoms: C_2  and  N_3 
REMARK    2  A    between atoms: C_6  and  C_2 
ROOT
ATOM      1  C   UNL d   1     -48.168  15.073  22.451  0.00  0.00     0.265 C 
ATOM      2  C   UNL d   1     -45.782  12.561  22.964  0.00  0.00     0.265 C 
ATOM      3  N   UNL d   1     -46.520  12.904  22.947  0.00  0.00    -0.270 N 
ATOM      4  N   UNL d   1     -47.691  14.315  22.637  0.00  0.00    -0.270 N 
ATOM      5  C   UNL d   1     -46.341  13.682  22.669  0.00  0.00     0.102 A 
ATOM      6  C   UNL d   1     -46.889  14.334  22.527  0.00  0.00     0.102 A 
ATOM      7  O   UNL d   1     -47.723  15.812  22.151  0.00  0.00    -0.267 OA
ATOM      8  O   UNL d   1     -45.135  12.984  22.741  0.00  0.00    -0.267 OA
ATOM      9  C   UNL d   1     -47.848  12.975  23.096  0.00  0.00     0.038 A 
ATOM     10  C   UNL d   1     -48.065  13.740  22.874  0.00  0.00     0.085 A 
ATOM     11  C   UNL d   1     -47.258  12.621  23.136  0.00  0.00     0.085 A 
ENDROOT
BRANCH   2  12
ATOM     12  C   UNL d   1     -45.710  11.788  23.208  0.00  0.00     0.057 A 
ATOM     13  C   UNL d   1     -44.986  11.445  23.195  0.00  0.00     0.005 A 
ATOM     14  C   UNL d   1     -44.905  10.671  23.437  0.00  0.00     0.000 A 
ATOM     15  C   UNL d   1     -44.178  10.309  23.431  0.00  0.00     0.000 C 
ATOM     16  C   UNL d   1     -45.557  10.257  23.688  0.00  0.00     0.000 A 
ATOM     17  C   UNL d   1     -46.284  10.612  23.697  0.00  0.00     0.000 A 
ATOM     18  C   UNL d   1     -46.361  11.378  23.457  0.00  0.00     0.005 A 
ENDBRANCH   2  12
BRANCH   1  19
ATOM     19  C   UNL d   1     -49.073  15.033  22.582  0.00  0.00     0.057 A 
ATOM     20  C   UNL d   1     -49.608  14.707  21.931  0.00  0.00     0.005 A 
ATOM     21  C   UNL d   1     -50.507  14.666  22.058  0.00  0.00     0.000 A 
ATOM     22  C   UNL d   1     -51.062  14.344  21.420  0.00  0.00     0.000 C 
ATOM     23  C   UNL d   1     -50.871  14.955  22.846  0.00  0.00     0.000 A 
ATOM     24  C   UNL d   1     -50.324  15.283  23.501  0.00  0.00     0.000 A 
ATOM     25  C   UNL d   1     -49.422  15.322  23.369  0.00  0.00     0.005 A 
ENDBRANCH   1  19
TORSDOF 2
ENDMDL
MODEL 4
REMARK VINA RESULT:      -5.2      7.838      9.581
REMARK  2 active torsions:
REMARK  status: ('A' for Active; 'I' for Inactive)
REMARK       I    between atoms: N_4  and  C_1 
REMARK    1  A    between atoms: C_5  and  C_1 
REMARK       I    between atoms: C_2  and  N_3 
REMARK    2  A    between atoms: C_6  and  C_2 
ROOT
ATOM      1  C   UNL d   1     -49.248  12.269  23.071  0.00  0.00     0.265 C 
ATOM      2  C   UNL d   1     -45.753  12.329  22.849  0.00  0.00     0.265 C 
ATOM      3  N   UNL d   1     -46.521  12.540  22.677  0.00  0.00    -0.270 N 
ATOM      4  N   UNL d   1     -48.364  12.416  22.885  0.00  0.00    -0.270 N 
ATOM      5  C   UNL d   1     -46.958  12.034  23.196  0.00  0.00     0.102 A 
ATOM      6  C   UNL d   1     -47.814  11.981  23.288  0.00  0.00     0.102 A 
ATOM      7  O   UNL d   1     -49.470  11.644  23.698  0.00  0.00    -0.267 OA
ATOM      8  O   UNL d   1     -45.604  11.763  23.401  0.00  0.00    -0.267 OA
ATOM      9  C   UNL d   1     -47.507  13.206  22.065  0.00  0.00     0.038 A 
ATOM     10  C   UNL d   1     -48.212  12.918  22.383  0.00  0.00     0.085 A 
ATOM     11  C   UNL d   1     -46.836  13.080  22.158  0.00  0.00     0.085 A 
ENDROOT
BRANCH   2  12
ATOM     12  C   UNL d   1     -45.144  12.699  22.456  0.00  0.00     0.057 A 
ATOM     13  C   UNL d   1     -44.494  12.272  22.262  0.00  0.00     0.005 A 
ATOM     14  C   UNL d   1     -43.880  12.634  21.869  0.00  0.00     0.000 A 
ATOM     15  C   UNL d   1     -43.215  12.215  21.665  0.00  0.00     0.000 C 
ATOM     16  C   UNL d   1     -43.932  13.421  21.677  0.00  0.00     0.000 A 
ATOM     17  C   UNL d   1     -44.593  13.844  21.877  0.00  0.00     0.000 A 
ATOM     18  C   UNL d   1     -45.199  13.483  22.267  0.00  0.00     0.005 A 
ENDBRANCH   2  12
BRANCH   1  19
ATOM     19  C   UNL d   1     -49.856  12.770  22.605  0.00  0.00     0.057 A 
ATOM     20  C   UNL d   1     -50.131  13.565  22.934  0.00  0.00     0.005 A 
ATOM     21  C   UNL d   1     -50.734  14.065  22.472  0.00  0.00     0.000 A 
ATOM     22  C   UNL d   1     -51.024  14.865  22.783  0.00  0.00     0.000 C 
ATOM     23  C   UNL d   1     -51.064  13.763  21.675  0.00  0.00     0.000 A 
ATOM     24  C   UNL d   1     -50.782  12.957  21.348  0.00  0.00     0.000 A 
ATOM     25  C   UNL d   1     -50.176  12.459  21.813  0.00  0.00     0.005 A 
ENDBRANCH   1  19
TORSDOF 2
ENDMDL
MODEL 5
REMARK VINA RESULT:      -4.8      7.743      9.687
REMARK  2 active torsions:
REMARK  status: ('A' for Active; 'I' for Inactive)
REMARK       I    between atoms: N_4  and  C_1 
REMARK    1  A    between atoms: C_5  and  C_1 
REMARK       I    between atoms: C_2  and  N_3 
REMARK    2  A    between atoms: C_6  and  C_2 
ROOT
ATOM      1  C   UNL d   1     -45.660  13.960  22.616  0.00  0.00     0.265 C 
ATOM      2  C   UNL d   1     -49.162  13.961  22.580  0.00  0.00     0.265 C 
ATOM      3  N   UNL d   1     -48.410  13.656  22.510  0.00  0.00    -0.270 N 
ATOM      4  N   UNL d   1     -46.556  13.781  22.561  0.00  0.00    -0.270 N 
ATOM      5  C   UNL d   1     -47.934  14.332  22.689  0.00  0.00     0.102 A 
ATOM      6  C   UNL d   1     -47.073  14.385  22.711  0.00  0.00     0.102 A 
ATOM      7  O   UNL d   1     -45.391  14.804  22.836  0.00  0.00    -0.267 OA
ATOM      8  O   UNL d   1     -49.268  14.733  22.779  0.00  0.00    -0.267 OA
ATOM      9  C   UNL d   1     -47.474  12.728  22.280  0.00  0.00     0.038 A 
ATOM     10  C   UNL d   1     -46.746  13.104  22.384  0.00  0.00     0.085 A 
ATOM     11  C   UNL d   1     -48.136  12.915  22.321  0.00  0.00     0.085 A 
ENDROOT
BRANCH   2  12
ATOM     12  C   UNL d   1     -49.800  13.472  22.448  0.00  0.00     0.057 A 
ATOM     13  C   UNL d   1     -50.094  13.047  23.060  0.00  0.00     0.005 A 
ATOM     14  C   UNL d   1     -50.732  12.556  22.938  0.00  0.00     0.000 A 
ATOM     15  C   UNL d   1     -51.042  12.119  23.548  0.00  0.00     0.000 C 
ATOM     16  C   UNL d   1     -51.063  12.502  22.198  0.00  0.00     0.000 A 
ATOM     17  C   UNL d   1     -50.758  12.936  21.585  0.00  0.00     0.000 A 
ATOM     18  C   UNL d   1     -50.126  13.421  21.710  0.00  0.00     0.005 A 
ENDBRANCH   2  12
BRANCH   1  19
ATOM     19  C   UNL d   1     -45.090  13.266  22.442  0.00  0.00     0.057 A 
ATOM     20  C   UNL d   1     -44.477  13.340  21.783  0.00  0.00     0.005 A 
ATOM     21  C   UNL d   1     -43.909  12.651  21.610  0.00  0.00     0.000 A 
ATOM     22  C   UNL d   1     -43.287  12.704  20.954  0.00  0.00     0.000 C 
ATOM     23  C   UNL d   1     -43.958  11.882  22.102  0.00  0.00     0.000 A 
ATOM     24  C   UNL d   1     -44.581  11.813  22.767  0.00  0.00     0.000 A 
ATOM     25  C   UNL d   1     -45.149  12.507  22.939  0.00  0.00     0.005 A 
ENDBRANCH   1  19
TORSDOF 2
ENDMDL
MODEL 6
REMARK VINA RESULT:      -4.6      1.434      5.153
REMARK  2 active torsions:
REMARK  status: ('A' for Active; 'I' for Inactive)
REMARK       I    between atoms: N_4  and  C_1 
REMARK    1  A    between atoms: C_5  and  C_1 
REMARK       I    between atoms: C_2  and  N_3 
REMARK    2  A    between atoms: C_6  and  C_2 
ROOT
ATOM      1  C   UNL d   1     -38.867  13.889  17.922  0.00  0.00     0.265 C 
ATOM      2  C   UNL d   1     -38.442  13.611  21.387  0.00  0.00     0.265 C 
ATOM      3  N   UNL d   1     -38.680  13.945  20.684  0.00  0.00    -0.270 N 
ATOM      4  N   UNL d   1     -38.845  13.979  18.832  0.00  0.00    -0.270 N 
ATOM      5  C   UNL d   1     -38.411  13.372  20.122  0.00  0.00     0.102 A 
ATOM      6  C   UNL d   1     -38.490  13.394  19.263  0.00  0.00     0.102 A 
ATOM      7  O   UNL d   1     -38.492  13.148  17.542  0.00  0.00    -0.267 OA
ATOM      8  O   UNL d   1     -38.056  12.905  21.388  0.00  0.00    -0.267 OA
ATOM      9  C   UNL d   1     -39.242  14.857  19.881  0.00  0.00     0.038 A 
ATOM     10  C   UNL d   1     -39.149  14.575  19.111  0.00  0.00     0.085 A 
ATOM     11  C   UNL d   1     -39.072  14.636  20.512  0.00  0.00     0.085 A 
ENDROOT
BRANCH   2  12
ATOM     12  C   UNL d   1     -38.600  14.001  22.084  0.00  0.00     0.057 A 
ATOM     13  C   UNL d   1     -38.196  14.672  22.250  0.00  0.00     0.005 A 
ATOM     14  C   UNL d   1     -38.347  15.070  22.945  0.00  0.00     0.000 A 
ATOM     15  C   UNL d   1     -37.946  15.751  23.128  0.00  0.00     0.000 C 
ATOM     16  C   UNL d   1     -38.906  14.782  23.460  0.00  0.00     0.000 A 
ATOM     17  C   UNL d   1     -39.309  14.103  23.282  0.00  0.00     0.000 A 
ATOM     18  C   UNL d   1     -39.156  13.712  22.594  0.00  0.00     0.005 A 
ENDBRANCH   2  12
BRANCH   1  19
ATOM     19  C   UNL d   1     -39.272  14.561  17.451  0.00  0.00     0.057 A 
ATOM     20  C   UNL d   1     -40.164  14.539  17.311  0.00  0.00     0.005 A 
ATOM     21  C   UNL d   1     -40.568  15.206  16.844  0.00  0.00     0.000 A 
ATOM     22  C   UNL d   1     -41.461  15.204  16.692  0.00  0.00     0.000 C 
ATOM     23  C   UNL d   1     -40.072  15.899  16.514  0.00  0.00     0.000 A 
ATOM     24  C   UNL d   1     -39.170  15.915  16.658  0.00  0.00     0.000 A 
ATOM     25  C   UNL d   1     -38.767  15.244  17.128  0.00  0.00     0.005 A 
ENDBRANCH   1  19
TORSDOF 2
ENDMDL
