MODEL 1
REMARK VINA RESULT:      22.1      0.000      0.000
REMARK  2 active torsions:
REMARK  status: ('A' for Active; 'I' for Inactive)
REMARK    1  A    between atoms: C_4  and  N_2 
REMARK    2  A    between atoms: C_7  and  C_4 
REMARK       I    between atoms: N_8  and  C_7 
ROOT
ATOM      1  S   UNL d   1      46.051 -14.844  44.471  0.00  0.00     0.274 S 
ATOM      2  N   UNL d   1      45.621 -15.521  44.610  0.00  0.00    -0.192 N 
ATOM      3  C   UNL d   1      44.822 -15.333  44.674  0.00  0.00     0.275 A 
ATOM      4  C   UNL d   1      44.748 -14.508  44.572  0.00  0.00     0.069 A 
ATOM      5  C   UNL d   1      45.517 -14.201  44.445  0.00  0.00     0.109 A 
ATOM      6  O   UNL d   1      46.585 -15.474  44.496  0.00  0.00    -0.200 OA
ATOM      7  O   UNL d   1      46.647 -14.283  44.329  0.00  0.00    -0.200 OA
ATOM      8  O   UNL d   1      44.198 -15.876  44.817  0.00  0.00    -0.266 OA
ATOM      9  C   UNL d   1      44.109 -14.013  44.577  0.00  0.00     0.005 A 
ATOM     10  C   UNL d   1      45.622 -13.409  44.327  0.00  0.00     0.013 A 
ATOM     11  C   UNL d   1      44.221 -13.189  44.454  0.00  0.00     0.000 A 
ATOM     12  C   UNL d   1      44.975 -12.889  44.329  0.00  0.00     0.001 A 
ENDROOT
BRANCH   2  13
ATOM     13  C   UNL d   1      45.946 -16.273  44.675  0.00  0.00     0.156 C 
BRANCH  13  14
ATOM     14  C   UNL d   1      45.931 -16.781  44.024  0.00  0.00     0.283 C 
ATOM     15  N   UNL d   1      46.102 -17.575  44.129  0.00  0.00    -0.271 N 
ATOM     16  C   UNL d   1      46.289 -17.884  44.865  0.00  0.00     0.083 A 
ATOM     17  C   UNL d   1      46.084 -18.084  43.469  0.00  0.00     0.083 A 
ATOM     18  C   UNL d   1      46.459 -18.682  44.954  0.00  0.00     0.019 A 
ATOM     19  C   UNL d   1      46.445 -19.192  44.311  0.00  0.00     0.003 A 
ATOM     20  C   UNL d   1      46.255 -18.881  43.568  0.00  0.00     0.019 A 
ATOM     21  C   UNL d   1      46.617 -20.004  44.402  0.00  0.00     0.000 C 
ATOM     22  O   UNL d   1      45.740 -16.474  43.271  0.00  0.00    -0.265 OA
ENDBRANCH  13  14
ENDBRANCH   2  13
TORSDOF 2
ENDMDL
