MODEL 1
REMARK VINA RESULT:      -6.0      0.000      0.000
REMARK  7 active torsions:
REMARK  status: ('A' for Active; 'I' for Inactive)
REMARK       I    between atoms: C_2  and  N_1 
REMARK    1  A    between atoms: C_3  and  N_1 
REMARK    2  A    between atoms: C_4  and  C_2 
REMARK    3  A    between atoms: N_9  and  C_3 
REMARK    4  A    between atoms: O_19  and  C_6 
REMARK    5  A    between atoms: C_7  and  C_18 
REMARK    6  A    between atoms: C_18  and  N_9 
REMARK    7  A    between atoms: O_20  and  C_12 
ROOT
ATOM      1  N   UNL d   1     -49.447  12.137  21.691  0.00  0.00    -0.179 NA
ATOM      2  C   UNL d   1     -49.664  12.851  21.333  0.00  0.00     0.281 C 
ATOM      3  O   UNL d   1     -49.722  12.903  20.509  0.00  0.00    -0.265 OA
ENDROOT
BRANCH   2   4
ATOM      4  C   UNL d   1     -49.824  13.517  21.794  0.00  0.00     0.060 A 
ATOM      5  C   UNL d   1     -49.233  14.077  21.940  0.00  0.00     0.031 A 
ATOM      6  C   UNL d   1     -49.396  14.742  22.401  0.00  0.00     0.116 A 
ATOM      7  C   UNL d   1     -50.156  14.846  22.717  0.00  0.00     0.116 A 
ATOM      8  C   UNL d   1     -50.747  14.285  22.570  0.00  0.00     0.026 A 
ATOM      9  C   UNL d   1     -50.571  13.622  22.106  0.00  0.00     0.007 A 
BRANCH   6  10
ATOM     10  O   UNL d   1     -48.805  15.303  22.548  0.00  0.00    -0.326 OA
ATOM     11  C   UNL d   1     -48.043  15.190  22.255  0.00  0.00     0.181 C 
ENDBRANCH   6  10
BRANCH   7  12
ATOM     12  O   UNL d   1     -50.316  15.515  23.179  0.00  0.00    -0.326 OA
ATOM     13  C   UNL d   1     -51.056  15.607  23.534  0.00  0.00     0.181 C 
ENDBRANCH   7  12
ENDBRANCH   2   4
BRANCH   1  14
ATOM     14  C   UNL d   1     -49.391  12.091  22.511  0.00  0.00     0.224 C 
ATOM     15  S   UNL d   1     -50.016  11.945  23.043  0.00  0.00    -0.037 SA
BRANCH  14  16
ATOM     16  N   UNL d   1     -48.697  12.183  22.961  0.00  0.00    -0.214 NA
BRANCH  16  17
ATOM     17  C   UNL d   1     -48.320  11.586  23.394  0.00  0.00     0.126 C 
BRANCH  17  18
ATOM     18  C   UNL d   1     -47.504  11.614  23.502  0.00  0.00     0.119 A 
ATOM     19  O   UNL d   1     -46.986  12.240  23.632  0.00  0.00    -0.304 OA
ATOM     20  C   UNL d   1     -46.227  11.929  23.698  0.00  0.00     0.123 A 
ATOM     21  C   UNL d   1     -46.278  11.113  23.608  0.00  0.00     0.029 A 
ATOM     22  C   UNL d   1     -47.065  10.916  23.487  0.00  0.00     0.028 A 
ENDBRANCH  17  18
ENDBRANCH  16  17
ENDBRANCH  14  16
ENDBRANCH   1  14
TORSDOF 7
ENDMDL
MODEL 2
REMARK VINA RESULT:      -4.7      1.615      2.346
REMARK  7 active torsions:
REMARK  status: ('A' for Active; 'I' for Inactive)
REMARK       I    between atoms: C_2  and  N_1 
REMARK    1  A    between atoms: C_3  and  N_1 
REMARK    2  A    between atoms: C_4  and  C_2 
REMARK    3  A    between atoms: N_9  and  C_3 
REMARK    4  A    between atoms: O_19  and  C_6 
REMARK    5  A    between atoms: C_7  and  C_18 
REMARK    6  A    between atoms: C_18  and  N_9 
REMARK    7  A    between atoms: O_20  and  C_12 
ROOT
ATOM      1  N   UNL d   1     -48.585  11.562  22.997  0.00  0.00    -0.179 NA
ATOM      2  C   UNL d   1     -49.393  11.676  23.136  0.00  0.00     0.281 C 
ATOM      3  O   UNL d   1     -49.791  11.206  23.690  0.00  0.00    -0.265 OA
ENDROOT
BRANCH   2   4
ATOM      4  C   UNL d   1     -49.810  12.257  22.724  0.00  0.00     0.060 A 
ATOM      5  C   UNL d   1     -49.961  12.992  23.075  0.00  0.00     0.031 A 
ATOM      6  C   UNL d   1     -50.378  13.571  22.661  0.00  0.00     0.116 A 
ATOM      7  C   UNL d   1     -50.645  13.414  21.892  0.00  0.00     0.116 A 
ATOM      8  C   UNL d   1     -50.494  12.679  21.541  0.00  0.00     0.026 A 
ATOM      9  C   UNL d   1     -50.074  12.106  21.967  0.00  0.00     0.007 A 
BRANCH   6  10
ATOM     10  O   UNL d   1     -50.529  14.306  23.011  0.00  0.00    -0.326 OA
ATOM     11  C   UNL d   1     -50.998  14.356  23.688  0.00  0.00     0.181 C 
ENDBRANCH   6  10
BRANCH   7  12
ATOM     12  O   UNL d   1     -51.064  13.998  21.479  0.00  0.00    -0.326 OA
ATOM     13  C   UNL d   1     -50.713  14.389  20.843  0.00  0.00     0.181 C 
ENDBRANCH   7  12
ENDBRANCH   2   4
BRANCH   1  14
ATOM     14  C   UNL d   1     -48.196  12.032  22.445  0.00  0.00     0.224 C 
ATOM     15  S   UNL d   1     -48.182  11.919  21.619  0.00  0.00    -0.037 SA
BRANCH  14  16
ATOM     16  N   UNL d   1     -47.742  12.710  22.611  0.00  0.00    -0.214 NA
BRANCH  16  17
ATOM     17  C   UNL d   1     -46.943  12.815  22.420  0.00  0.00     0.126 C 
BRANCH  17  18
ATOM     18  C   UNL d   1     -46.575  13.532  22.589  0.00  0.00     0.119 A 
ATOM     19  O   UNL d   1     -46.853  14.231  22.920  0.00  0.00    -0.304 OA
ATOM     20  C   UNL d   1     -46.226  14.762  22.954  0.00  0.00     0.123 A 
ATOM     21  C   UNL d   1     -45.561  14.390  22.643  0.00  0.00     0.029 A 
ATOM     22  C   UNL d   1     -45.774  13.630  22.417  0.00  0.00     0.028 A 
ENDBRANCH  17  18
ENDBRANCH  16  17
ENDBRANCH  14  16
ENDBRANCH   1  14
TORSDOF 7
ENDMDL
MODEL 3
REMARK VINA RESULT:      -4.6      8.751     10.400
REMARK  7 active torsions:
REMARK  status: ('A' for Active; 'I' for Inactive)
REMARK       I    between atoms: C_2  and  N_1 
REMARK    1  A    between atoms: C_3  and  N_1 
REMARK    2  A    between atoms: C_4  and  C_2 
REMARK    3  A    between atoms: N_9  and  C_3 
REMARK    4  A    between atoms: O_19  and  C_6 
REMARK    5  A    between atoms: C_7  and  C_18 
REMARK    6  A    between atoms: C_18  and  N_9 
REMARK    7  A    between atoms: O_20  and  C_12 
ROOT
ATOM      1  N   UNL d   1     -40.949  14.612  19.884  0.00  0.00    -0.179 NA
ATOM      2  C   UNL d   1     -40.932  14.425  20.690  0.00  0.00     0.281 C 
ATOM      3  O   UNL d   1     -41.567  14.022  21.038  0.00  0.00    -0.265 OA
ENDROOT
BRANCH   2   4
ATOM      4  C   UNL d   1     -40.284  14.638  21.155  0.00  0.00     0.060 A 
ATOM      5  C   UNL d   1     -39.740  14.065  21.403  0.00  0.00     0.031 A 
ATOM      6  C   UNL d   1     -39.093  14.281  21.867  0.00  0.00     0.116 A 
ATOM      7  C   UNL d   1     -38.990  15.074  22.084  0.00  0.00     0.116 A 
ATOM      8  C   UNL d   1     -39.534  15.647  21.836  0.00  0.00     0.026 A 
ATOM      9  C   UNL d   1     -40.179  15.418  21.370  0.00  0.00     0.007 A 
BRANCH   6  10
ATOM     10  O   UNL d   1     -38.549  13.708  22.115  0.00  0.00    -0.326 OA
ATOM     11  C   UNL d   1     -38.261  13.148  21.583  0.00  0.00     0.181 C 
ENDBRANCH   6  10
BRANCH   7  12
ATOM     12  O   UNL d   1     -38.339  15.287  22.551  0.00  0.00    -0.326 OA
ATOM     13  C   UNL d   1     -38.394  15.921  23.076  0.00  0.00     0.181 C 
ENDBRANCH   7  12
ENDBRANCH   2   4
BRANCH   1  14
ATOM     14  C   UNL d   1     -40.315  15.012  19.544  0.00  0.00     0.224 C 
ATOM     15  S   UNL d   1     -40.156  15.828  19.601  0.00  0.00    -0.037 SA
BRANCH  14  16
ATOM     16  N   UNL d   1     -39.713  14.673  19.079  0.00  0.00    -0.214 NA
BRANCH  16  17
ATOM     17  C   UNL d   1     -39.667  14.704  18.253  0.00  0.00     0.126 C 
BRANCH  17  18
ATOM     18  C   UNL d   1     -39.128  14.224  17.857  0.00  0.00     0.119 A 
ATOM     19  O   UNL d   1     -38.509  13.752  18.123  0.00  0.00    -0.304 OA
ATOM     20  C   UNL d   1     -38.161  13.399  17.467  0.00  0.00     0.123 A 
ATOM     21  C   UNL d   1     -38.565  13.653  16.797  0.00  0.00     0.029 A 
ATOM     22  C   UNL d   1     -39.163  14.163  17.035  0.00  0.00     0.028 A 
ENDBRANCH  17  18
ENDBRANCH  16  17
ENDBRANCH  14  16
ENDBRANCH   1  14
TORSDOF 7
ENDMDL
MODEL 4
REMARK VINA RESULT:      -4.6      1.727      2.568
REMARK  7 active torsions:
REMARK  status: ('A' for Active; 'I' for Inactive)
REMARK       I    between atoms: C_2  and  N_1 
REMARK    1  A    between atoms: C_3  and  N_1 
REMARK    2  A    between atoms: C_4  and  C_2 
REMARK    3  A    between atoms: N_9  and  C_3 
REMARK    4  A    between atoms: O_19  and  C_6 
REMARK    5  A    between atoms: C_7  and  C_18 
REMARK    6  A    between atoms: C_18  and  N_9 
REMARK    7  A    between atoms: O_20  and  C_12 
ROOT
ATOM      1  N   UNL d   1     -48.541  15.133  22.312  0.00  0.00    -0.179 NA
ATOM      2  C   UNL d   1     -49.273  14.924  21.988  0.00  0.00     0.281 C 
ATOM      3  O   UNL d   1     -49.641  15.421  21.436  0.00  0.00    -0.265 OA
ENDROOT
BRANCH   2   4
ATOM      4  C   UNL d   1     -49.644  14.222  22.211  0.00  0.00     0.060 A 
ATOM      5  C   UNL d   1     -49.605  13.554  21.724  0.00  0.00     0.031 A 
ATOM      6  C   UNL d   1     -49.977  12.852  21.950  0.00  0.00     0.116 A 
ATOM      7  C   UNL d   1     -50.389  12.820  22.668  0.00  0.00     0.116 A 
ATOM      8  C   UNL d   1     -50.428  13.488  23.155  0.00  0.00     0.026 A 
ATOM      9  C   UNL d   1     -50.051  14.186  22.918  0.00  0.00     0.007 A 
BRANCH   6  10
ATOM     10  O   UNL d   1     -49.938  12.185  21.462  0.00  0.00    -0.326 OA
ATOM     11  C   UNL d   1     -49.216  11.938  21.151  0.00  0.00     0.181 C 
ENDBRANCH   6  10
BRANCH   7  12
ATOM     12  O   UNL d   1     -50.761  12.114  22.892  0.00  0.00    -0.326 OA
ATOM     13  C   UNL d   1     -51.061  12.026  23.655  0.00  0.00     0.181 C 
ENDBRANCH   7  12
ENDBRANCH   2   4
BRANCH   1  14
ATOM     14  C   UNL d   1     -48.181  14.636  22.860  0.00  0.00     0.224 C 
ATOM     15  S   UNL d   1     -48.363  14.576  23.670  0.00  0.00    -0.037 SA
BRANCH  14  16
ATOM     16  N   UNL d   1     -47.564  14.098  22.703  0.00  0.00    -0.214 NA
BRANCH  16  17
ATOM     17  C   UNL d   1     -46.767  14.207  22.900  0.00  0.00     0.126 C 
BRANCH  17  18
ATOM     18  C   UNL d   1     -46.221  13.613  22.735  0.00  0.00     0.119 A 
ATOM     19  O   UNL d   1     -46.042  12.907  23.117  0.00  0.00    -0.304 OA
ATOM     20  C   UNL d   1     -45.442  12.536  22.693  0.00  0.00     0.123 A 
ATOM     21  C   UNL d   1     -45.252  13.014  22.051  0.00  0.00     0.029 A 
ATOM     22  C   UNL d   1     -45.732  13.680  22.075  0.00  0.00     0.028 A 
ENDBRANCH  17  18
ENDBRANCH  16  17
ENDBRANCH  14  16
ENDBRANCH   1  14
TORSDOF 7
ENDMDL
MODEL 5
REMARK VINA RESULT:      -4.5      9.715     10.851
REMARK  7 active torsions:
REMARK  status: ('A' for Active; 'I' for Inactive)
REMARK       I    between atoms: C_2  and  N_1 
REMARK    1  A    between atoms: C_3  and  N_1 
REMARK    2  A    between atoms: C_4  and  C_2 
REMARK    3  A    between atoms: N_9  and  C_3 
REMARK    4  A    between atoms: O_19  and  C_6 
REMARK    5  A    between atoms: C_7  and  C_18 
REMARK    6  A    between atoms: C_18  and  N_9 
REMARK    7  A    between atoms: O_20  and  C_12 
ROOT
ATOM      1  N   UNL d   1     -38.271  13.358  18.534  0.00  0.00    -0.179 NA
ATOM      2  C   UNL d   1     -38.681  13.344  17.815  0.00  0.00     0.281 C 
ATOM      3  O   UNL d   1     -38.618  12.689  17.312  0.00  0.00    -0.265 OA
ENDROOT
BRANCH   2   4
ATOM      4  C   UNL d   1     -39.157  13.981  17.593  0.00  0.00     0.060 A 
ATOM      5  C   UNL d   1     -38.860  14.571  17.095  0.00  0.00     0.031 A 
ATOM      6  C   UNL d   1     -39.338  15.208  16.874  0.00  0.00     0.116 A 
ATOM      7  C   UNL d   1     -40.117  15.251  17.154  0.00  0.00     0.116 A 
ATOM      8  C   UNL d   1     -40.414  14.661  17.652  0.00  0.00     0.026 A 
ATOM      9  C   UNL d   1     -39.925  14.028  17.867  0.00  0.00     0.007 A 
BRANCH   6  10
ATOM     10  O   UNL d   1     -39.041  15.798  16.376  0.00  0.00    -0.326 OA
ATOM     11  C   UNL d   1     -38.530  15.605  15.759  0.00  0.00     0.181 C 
ENDBRANCH   6  10
BRANCH   7  12
ATOM     12  O   UNL d   1     -40.594  15.891  16.931  0.00  0.00    -0.326 OA
ATOM     13  C   UNL d   1     -41.385  15.922  17.165  0.00  0.00     0.181 C 
ENDBRANCH   7  12
ENDBRANCH   2   4
BRANCH   1  14
ATOM     14  C   UNL d   1     -38.339  14.011  19.029  0.00  0.00     0.224 C 
ATOM     15  S   UNL d   1     -37.996  14.762  18.910  0.00  0.00    -0.037 SA
BRANCH  14  16
ATOM     16  N   UNL d   1     -38.764  14.043  19.745  0.00  0.00    -0.214 NA
BRANCH  16  17
ATOM     17  C   UNL d   1     -38.433  14.038  20.504  0.00  0.00     0.126 C 
BRANCH  17  18
ATOM     18  C   UNL d   1     -38.921  13.941  21.160  0.00  0.00     0.119 A 
ATOM     19  O   UNL d   1     -39.709  14.132  21.295  0.00  0.00    -0.304 OA
ATOM     20  C   UNL d   1     -39.897  13.901  22.062  0.00  0.00     0.123 A 
ATOM     21  C   UNL d   1     -39.225  13.568  22.399  0.00  0.00     0.029 A 
ATOM     22  C   UNL d   1     -38.620  13.591  21.844  0.00  0.00     0.028 A 
ENDBRANCH  17  18
ENDBRANCH  16  17
ENDBRANCH  14  16
ENDBRANCH   1  14
TORSDOF 7
ENDMDL
MODEL 6
REMARK VINA RESULT:      -4.4      2.254      3.356
REMARK  7 active torsions:
REMARK  status: ('A' for Active; 'I' for Inactive)
REMARK       I    between atoms: C_2  and  N_1 
REMARK    1  A    between atoms: C_3  and  N_1 
REMARK    2  A    between atoms: C_4  and  C_2 
REMARK    3  A    between atoms: N_9  and  C_3 
REMARK    4  A    between atoms: O_19  and  C_6 
REMARK    5  A    between atoms: C_7  and  C_18 
REMARK    6  A    between atoms: C_18  and  N_9 
REMARK    7  A    between atoms: O_20  and  C_12 
ROOT
ATOM      1  N   UNL d   1     -45.689  13.770  22.630  0.00  0.00    -0.179 NA
ATOM      2  C   UNL d   1     -46.415  14.068  22.892  0.00  0.00     0.281 C 
ATOM      3  O   UNL d   1     -46.464  14.837  23.198  0.00  0.00    -0.265 OA
ENDROOT
BRANCH   2   4
ATOM      4  C   UNL d   1     -47.096  13.604  22.852  0.00  0.00     0.060 A 
ATOM      5  C   UNL d   1     -47.616  13.677  22.212  0.00  0.00     0.031 A 
ATOM      6  C   UNL d   1     -48.296  13.211  22.174  0.00  0.00     0.116 A 
ATOM      7  C   UNL d   1     -48.456  12.670  22.781  0.00  0.00     0.116 A 
ATOM      8  C   UNL d   1     -47.936  12.596  23.421  0.00  0.00     0.026 A 
ATOM      9  C   UNL d   1     -47.257  13.069  23.448  0.00  0.00     0.007 A 
BRANCH   6  10
ATOM     10  O   UNL d   1     -48.816  13.285  21.534  0.00  0.00    -0.326 OA
ATOM     11  C   UNL d   1     -49.288  13.955  21.456  0.00  0.00     0.181 C 
ENDBRANCH   6  10
BRANCH   7  12
ATOM     12  O   UNL d   1     -49.141  12.204  22.740  0.00  0.00    -0.326 OA
ATOM     13  C   UNL d   1     -49.111  11.403  22.939  0.00  0.00     0.181 C 
ENDBRANCH   7  12
ENDBRANCH   2   4
BRANCH   1  14
ATOM     14  C   UNL d   1     -45.646  13.006  22.327  0.00  0.00     0.224 C 
ATOM     15  S   UNL d   1     -45.888  12.759  21.569  0.00  0.00    -0.037 SA
BRANCH  14  16
ATOM     16  N   UNL d   1     -45.352  12.336  22.725  0.00  0.00    -0.214 NA
BRANCH  16  17
ATOM     17  C   UNL d   1     -44.605  11.997  22.613  0.00  0.00     0.126 C 
BRANCH  17  18
ATOM     18  C   UNL d   1     -44.410  11.301  23.007  0.00  0.00     0.119 A 
ATOM     19  O   UNL d   1     -44.866  10.753  23.418  0.00  0.00    -0.304 OA
ATOM     20  C   UNL d   1     -44.363  10.164  23.695  0.00  0.00     0.123 A 
ATOM     21  C   UNL d   1     -43.598  10.349  23.455  0.00  0.00     0.029 A 
ATOM     22  C   UNL d   1     -43.625  11.051  23.030  0.00  0.00     0.028 A 
ENDBRANCH  17  18
ENDBRANCH  16  17
ENDBRANCH  14  16
ENDBRANCH   1  14
TORSDOF 7
ENDMDL
MODEL 7
REMARK VINA RESULT:      -4.3      1.911      2.814
REMARK  7 active torsions:
REMARK  status: ('A' for Active; 'I' for Inactive)
REMARK       I    between atoms: C_2  and  N_1 
REMARK    1  A    between atoms: C_3  and  N_1 
REMARK    2  A    between atoms: C_4  and  C_2 
REMARK    3  A    between atoms: N_9  and  C_3 
REMARK    4  A    between atoms: O_19  and  C_6 
REMARK    5  A    between atoms: C_7  and  C_18 
REMARK    6  A    between atoms: C_18  and  N_9 
REMARK    7  A    between atoms: O_20  and  C_12 
ROOT
ATOM      1  N   UNL d   1     -47.187  11.831  23.544  0.00  0.00    -0.179 NA
ATOM      2  C   UNL d   1     -47.998  11.729  23.412  0.00  0.00     0.281 C 
ATOM      3  O   UNL d   1     -48.368  11.017  23.619  0.00  0.00    -0.265 OA
ENDROOT
BRANCH   2   4
ATOM      4  C   UNL d   1     -48.445  12.334  23.072  0.00  0.00     0.060 A 
ATOM      5  C   UNL d   1     -48.638  12.312  22.268  0.00  0.00     0.031 A 
ATOM      6  C   UNL d   1     -49.086  12.919  21.931  0.00  0.00     0.116 A 
ATOM      7  C   UNL d   1     -49.341  13.550  22.404  0.00  0.00     0.116 A 
ATOM      8  C   UNL d   1     -49.148  13.572  23.208  0.00  0.00     0.026 A 
ATOM      9  C   UNL d   1     -48.699  12.958  23.534  0.00  0.00     0.007 A 
BRANCH   6  10
ATOM     10  O   UNL d   1     -49.278  12.897  21.127  0.00  0.00    -0.326 OA
ATOM     11  C   UNL d   1     -49.210  12.194  20.701  0.00  0.00     0.181 C 
ENDBRANCH   6  10
BRANCH   7  12
ATOM     12  O   UNL d   1     -49.790  14.157  22.062  0.00  0.00    -0.326 OA
ATOM     13  C   UNL d   1     -50.170  14.712  22.541  0.00  0.00     0.181 C 
ENDBRANCH   7  12
ENDBRANCH   2   4
BRANCH   1  14
ATOM     14  C   UNL d   1     -46.826  12.540  23.336  0.00  0.00     0.224 C 
ATOM     15  S   UNL d   1     -46.955  13.284  23.689  0.00  0.00    -0.037 SA
BRANCH  14  16
ATOM     16  N   UNL d   1     -46.262  12.646  22.732  0.00  0.00    -0.214 NA
BRANCH  16  17
ATOM     17  C   UNL d   1     -45.558  13.075  22.799  0.00  0.00     0.126 C 
BRANCH  17  18
ATOM     18  C   UNL d   1     -44.907  12.865  22.340  0.00  0.00     0.119 A 
ATOM     19  O   UNL d   1     -44.387  12.229  22.378  0.00  0.00    -0.304 OA
ATOM     20  C   UNL d   1     -43.842  12.312  21.768  0.00  0.00     0.123 A 
ATOM     21  C   UNL d   1     -44.026  12.999  21.355  0.00  0.00     0.029 A 
ATOM     22  C   UNL d   1     -44.683  13.342  21.706  0.00  0.00     0.028 A 
ENDBRANCH  17  18
ENDBRANCH  16  17
ENDBRANCH  14  16
ENDBRANCH   1  14
TORSDOF 7
ENDMDL
MODEL 8
REMARK VINA RESULT:      -4.2      9.230     10.923
REMARK  7 active torsions:
REMARK  status: ('A' for Active; 'I' for Inactive)
REMARK       I    between atoms: C_2  and  N_1 
REMARK    1  A    between atoms: C_3  and  N_1 
REMARK    2  A    between atoms: C_4  and  C_2 
REMARK    3  A    between atoms: N_9  and  C_3 
REMARK    4  A    between atoms: O_19  and  C_6 
REMARK    5  A    between atoms: C_7  and  C_18 
REMARK    6  A    between atoms: C_18  and  N_9 
REMARK    7  A    between atoms: O_20  and  C_12 
ROOT
ATOM      1  N   UNL d   1     -38.305  14.441  18.695  0.00  0.00    -0.179 NA
ATOM      2  C   UNL d   1     -38.269  14.093  19.445  0.00  0.00     0.281 C 
ATOM      3  O   UNL d   1     -37.959  13.330  19.536  0.00  0.00    -0.265 OA
ENDROOT
BRANCH   2   4
ATOM      4  C   UNL d   1     -38.541  14.502  20.109  0.00  0.00     0.060 A 
ATOM      5  C   UNL d   1     -39.306  14.372  20.396  0.00  0.00     0.031 A 
ATOM      6  C   UNL d   1     -39.576  14.782  21.060  0.00  0.00     0.116 A 
ATOM      7  C   UNL d   1     -39.075  15.324  21.437  0.00  0.00     0.116 A 
ATOM      8  C   UNL d   1     -38.310  15.454  21.150  0.00  0.00     0.026 A 
ATOM      9  C   UNL d   1     -38.051  15.037  20.483  0.00  0.00     0.007 A 
BRANCH   6  10
ATOM     10  O   UNL d   1     -40.341  14.652  21.347  0.00  0.00    -0.326 OA
ATOM     11  C   UNL d   1     -40.711  13.925  21.233  0.00  0.00     0.181 C 
ENDBRANCH   6  10
BRANCH   7  12
ATOM     12  O   UNL d   1     -39.349  15.735  22.104  0.00  0.00    -0.326 OA
ATOM     13  C   UNL d   1     -38.831  15.922  22.718  0.00  0.00     0.181 C 
ENDBRANCH   7  12
ENDBRANCH   2   4
BRANCH   1  14
ATOM     14  C   UNL d   1     -38.614  15.199  18.611  0.00  0.00     0.224 C 
ATOM     15  S   UNL d   1     -38.227  15.915  18.791  0.00  0.00    -0.037 SA
BRANCH  14  16
ATOM     16  N   UNL d   1     -39.374  15.391  18.330  0.00  0.00    -0.214 NA
BRANCH  16  17
ATOM     17  C   UNL d   1     -39.570  15.560  17.544  0.00  0.00     0.126 C 
BRANCH  17  18
ATOM     18  C   UNL d   1     -40.357  15.690  17.339  0.00  0.00     0.119 A 
ATOM     19  O   UNL d   1     -41.044  15.731  17.787  0.00  0.00    -0.304 OA
ATOM     20  C   UNL d   1     -41.672  15.875  17.275  0.00  0.00     0.123 A 
ATOM     21  C   UNL d   1     -41.370  15.922  16.511  0.00  0.00     0.029 A 
ATOM     22  C   UNL d   1     -40.558  15.808  16.548  0.00  0.00     0.028 A 
ENDBRANCH  17  18
ENDBRANCH  16  17
ENDBRANCH  14  16
ENDBRANCH   1  14
TORSDOF 7
ENDMDL
MODEL 9
REMARK VINA RESULT:      -3.8      1.297      1.781
REMARK  7 active torsions:
REMARK  status: ('A' for Active; 'I' for Inactive)
REMARK       I    between atoms: C_2  and  N_1 
REMARK    1  A    between atoms: C_3  and  N_1 
REMARK    2  A    between atoms: C_4  and  C_2 
REMARK    3  A    between atoms: N_9  and  C_3 
REMARK    4  A    between atoms: O_19  and  C_6 
REMARK    5  A    between atoms: C_7  and  C_18 
REMARK    6  A    between atoms: C_18  and  N_9 
REMARK    7  A    between atoms: O_20  and  C_12 
ROOT
ATOM      1  N   UNL d   1     -48.035  12.955  21.623  0.00  0.00    -0.179 NA
ATOM      2  C   UNL d   1     -48.813  13.193  21.471  0.00  0.00     0.281 C 
ATOM      3  O   UNL d   1     -49.180  12.985  20.758  0.00  0.00    -0.265 OA
ENDROOT
BRANCH   2   4
ATOM      4  C   UNL d   1     -49.230  13.638  22.027  0.00  0.00     0.060 A 
ATOM      5  C   UNL d   1     -49.714  13.264  22.585  0.00  0.00     0.031 A 
ATOM      6  C   UNL d   1     -50.130  13.712  23.140  0.00  0.00     0.116 A 
ATOM      7  C   UNL d   1     -50.060  14.538  23.135  0.00  0.00     0.116 A 
ATOM      8  C   UNL d   1     -49.577  14.911  22.577  0.00  0.00     0.026 A 
ATOM      9  C   UNL d   1     -49.164  14.452  22.025  0.00  0.00     0.007 A 
BRANCH   6  10
ATOM     10  O   UNL d   1     -50.614  13.338  23.698  0.00  0.00    -0.326 OA
ATOM     11  C   UNL d   1     -50.836  12.551  23.596  0.00  0.00     0.181 C 
ENDBRANCH   6  10
BRANCH   7  12
ATOM     12  O   UNL d   1     -50.480  14.984  23.694  0.00  0.00    -0.326 OA
ATOM     13  C   UNL d   1     -51.025  15.552  23.447  0.00  0.00     0.181 C 
ENDBRANCH   7  12
ENDBRANCH   2   4
BRANCH   1  14
ATOM     14  C   UNL d   1     -47.676  13.165  22.333  0.00  0.00     0.224 C 
ATOM     15  S   UNL d   1     -47.683  13.918  22.689  0.00  0.00    -0.037 SA
BRANCH  14  16
ATOM     16  N   UNL d   1     -47.236  12.659  22.828  0.00  0.00    -0.214 NA
BRANCH  16  17
ATOM     17  C   UNL d   1     -46.413  12.566  22.814  0.00  0.00     0.126 C 
BRANCH  17  18
ATOM     18  C   UNL d   1     -46.077  11.875  23.112  0.00  0.00     0.119 A 
ATOM     19  O   UNL d   1     -46.383  11.266  23.571  0.00  0.00    -0.304 OA
ATOM     20  C   UNL d   1     -45.781  10.719  23.698  0.00  0.00     0.123 A 
ATOM     21  C   UNL d   1     -45.105  10.993  23.317  0.00  0.00     0.029 A 
ATOM     22  C   UNL d   1     -45.285  11.707  22.955  0.00  0.00     0.028 A 
ENDBRANCH  17  18
ENDBRANCH  16  17
ENDBRANCH  14  16
ENDBRANCH   1  14
TORSDOF 7
ENDMDL
