MODEL 1
REMARK VINA RESULT:      -1.9      0.000      0.000
REMARK  10 active torsions:
REMARK  status: ('A' for Active; 'I' for Inactive)
REMARK    1  A    between atoms: N_2  and  S_1 
REMARK    2  A    between atoms: C_12  and  S_1 
REMARK    3  A    between atoms: C_4  and  N_2 
REMARK    4  A    between atoms: O_22  and  C_6 
REMARK    5  A    between atoms: C_7  and  N_15 
REMARK    6  A    between atoms: N_8  and  C_7 
REMARK       I    between atoms: C_10  and  N_8 
REMARK    7  A    between atoms: O_23  and  C_9 
REMARK    8  A    between atoms: C_20  and  C_10 
REMARK    9  A    between atoms: N_15  and  C_21 
REMARK   10  A    between atoms: C_26  and  C_20 
ROOT
ATOM      1  C   UNL d   1      58.310  -0.729  29.873  0.00  0.00     0.105 A 
ATOM      2  C   UNL d   1      57.870  -1.057  30.469  0.00  0.00     0.015 A 
ATOM      3  C   UNL d   1      58.513   0.060  29.904  0.00  0.00     0.015 A 
ATOM      4  C   UNL d   1      57.831   0.197  31.137  0.00  0.00     0.084 A 
ATOM      5  C   UNL d   1      57.619  -0.619  31.110  0.00  0.00     0.020 A 
ATOM      6  C   UNL d   1      58.272   0.515  30.534  0.00  0.00     0.020 A 
ENDROOT
BRANCH   1   7
ATOM      7  S   UNL d   1      58.567  -1.193  29.212  0.00  0.00     0.287 S 
ATOM      8  O   UNL d   1      57.767  -1.371  29.042  0.00  0.00    -0.198 OA
ATOM      9  O   UNL d   1      59.356  -1.011  29.387  0.00  0.00    -0.198 OA
BRANCH   7  10
ATOM     10  N   UNL d   1      58.804  -1.654  28.556  0.00  0.00    -0.139 NA
BRANCH  10  11
ATOM     11  C   UNL d   1      59.132  -2.418  28.665  0.00  0.00     0.182 A 
ATOM     12  N   UNL d   1      58.692  -3.061  28.515  0.00  0.00    -0.185 NA
ATOM     13  C   UNL d   1      58.992  -3.830  28.613  0.00  0.00     0.274 A 
ATOM     14  N   UNL d   1      59.758  -3.922  28.871  0.00  0.00    -0.181 NA
ATOM     15  C   UNL d   1      60.229  -3.288  29.032  0.00  0.00     0.185 A 
ATOM     16  C   UNL d   1      59.899  -2.485  28.923  0.00  0.00     0.084 A 
BRANCH  13  17
ATOM     17  O   UNL d   1      58.532  -4.507  28.456  0.00  0.00    -0.297 OA
ATOM     18  C   UNL d   1      57.703  -4.483  28.495  0.00  0.00     0.185 C 
ENDBRANCH  13  17
BRANCH  15  19
ATOM     19  O   UNL d   1      61.007  -3.413  29.294  0.00  0.00    -0.312 OA
ATOM     20  C   UNL d   1      61.132  -3.754  30.037  0.00  0.00     0.183 C 
ENDBRANCH  15  19
ENDBRANCH  10  11
ENDBRANCH   7  10
ENDBRANCH   1   7
BRANCH   4  21
ATOM     21  N   UNL d   1      57.593   0.682  31.775  0.00  0.00    -0.217 NA
BRANCH  21  22
ATOM     22  C   UNL d   1      57.385   0.318  32.485  0.00  0.00     0.223 C 
ATOM     23  S   UNL d   1      57.916   0.279  33.121  0.00  0.00    -0.037 SA
BRANCH  22  24
ATOM     24  N   UNL d   1      56.633  -0.013  32.563  0.00  0.00    -0.179 NA
ATOM     25  C   UNL d   1      56.249  -0.025  33.300  0.00  0.00     0.281 C 
ATOM     26  O   UNL d   1      56.627   0.298  33.963  0.00  0.00    -0.265 OA
BRANCH  25  27
ATOM     27  C   UNL d   1      55.498  -0.357  33.375  0.00  0.00     0.063 C 
BRANCH  27  28
ATOM     28  C   UNL d   1      54.902   0.031  33.795  0.00  0.00     0.005 C 
ATOM     29  C   UNL d   1      54.443   0.651  33.447  0.00  0.00     0.000 C 
ATOM     30  C   UNL d   1      54.752  -0.192  34.572  0.00  0.00     0.000 C 
ENDBRANCH  27  28
ENDBRANCH  25  27
ENDBRANCH  22  24
ENDBRANCH  21  22
ENDBRANCH   4  21
TORSDOF 10
ENDMDL
MODEL 2
REMARK VINA RESULT:      -1.7      1.813      5.512
REMARK  10 active torsions:
REMARK  status: ('A' for Active; 'I' for Inactive)
REMARK    1  A    between atoms: N_2  and  S_1 
REMARK    2  A    between atoms: C_12  and  S_1 
REMARK    3  A    between atoms: C_4  and  N_2 
REMARK    4  A    between atoms: O_22  and  C_6 
REMARK    5  A    between atoms: C_7  and  N_15 
REMARK    6  A    between atoms: N_8  and  C_7 
REMARK       I    between atoms: C_10  and  N_8 
REMARK    7  A    between atoms: O_23  and  C_9 
REMARK    8  A    between atoms: C_20  and  C_10 
REMARK    9  A    between atoms: N_15  and  C_21 
REMARK   10  A    between atoms: C_26  and  C_20 
ROOT
ATOM      1  C   UNL d   1      58.186   0.284  30.302  0.00  0.00     0.105 A 
ATOM      2  C   UNL d   1      58.101  -0.076  29.582  0.00  0.00     0.015 A 
ATOM      3  C   UNL d   1      58.929   0.479  30.576  0.00  0.00     0.015 A 
ATOM      4  C   UNL d   1      59.511  -0.049  29.399  0.00  0.00     0.084 A 
ATOM      5  C   UNL d   1      58.744  -0.253  29.111  0.00  0.00     0.020 A 
ATOM      6  C   UNL d   1      59.583   0.311  30.122  0.00  0.00     0.020 A 
ENDROOT
BRANCH   1   7
ATOM      7  S   UNL d   1      57.512   0.465  30.783  0.00  0.00     0.287 S 
ATOM      8  O   UNL d   1      58.017   0.524  31.448  0.00  0.00    -0.198 OA
ATOM      9  O   UNL d   1      57.019   0.404  30.120  0.00  0.00    -0.198 OA
BRANCH   7  10
ATOM     10  N   UNL d   1      56.856   0.643  31.271  0.00  0.00    -0.139 NA
BRANCH  10  11
ATOM     11  C   UNL d   1      56.760   0.269  32.015  0.00  0.00     0.182 A 
ATOM     12  N   UNL d   1      56.492  -0.477  32.050  0.00  0.00    -0.185 NA
ATOM     13  C   UNL d   1      56.386  -0.872  32.774  0.00  0.00     0.274 A 
ATOM     14  N   UNL d   1      56.565  -0.479  33.464  0.00  0.00    -0.181 NA
ATOM     15  C   UNL d   1      56.839   0.279  33.460  0.00  0.00     0.185 A 
ATOM     16  C   UNL d   1      56.944   0.681  32.690  0.00  0.00     0.084 A 
BRANCH  13  17
ATOM     17  O   UNL d   1      56.105  -1.655  32.813  0.00  0.00    -0.297 OA
ATOM     18  C   UNL d   1      55.526  -1.877  33.364  0.00  0.00     0.185 C 
ENDBRANCH  13  17
BRANCH  15  19
ATOM     19  O   UNL d   1      57.012   0.654  34.181  0.00  0.00    -0.312 OA
ATOM     20  C   UNL d   1      57.789   0.638  34.466  0.00  0.00     0.183 C 
ENDBRANCH  15  19
ENDBRANCH  10  11
ENDBRANCH   7  10
ENDBRANCH   1   7
BRANCH   4  21
ATOM     21  N   UNL d   1      60.196  -0.214  28.948  0.00  0.00    -0.217 NA
BRANCH  21  22
ATOM     22  C   UNL d   1      60.710  -0.800  29.217  0.00  0.00     0.223 C 
ATOM     23  S   UNL d   1      61.123  -0.715  29.931  0.00  0.00    -0.037 SA
BRANCH  22  24
ATOM     24  N   UNL d   1      60.813  -1.483  28.766  0.00  0.00    -0.179 NA
ATOM     25  C   UNL d   1      61.025  -2.201  29.128  0.00  0.00     0.281 C 
ATOM     26  O   UNL d   1      61.133  -2.229  29.948  0.00  0.00    -0.265 OA
BRANCH  25  27
ATOM     27  C   UNL d   1      61.128  -2.882  28.674  0.00  0.00     0.063 C 
BRANCH  27  28
ATOM     28  C   UNL d   1      60.967  -3.630  28.987  0.00  0.00     0.005 C 
ATOM     29  C   UNL d   1      60.745  -4.280  28.493  0.00  0.00     0.000 C 
ATOM     30  C   UNL d   1      61.024  -3.743  29.799  0.00  0.00     0.000 C 
ENDBRANCH  27  28
ENDBRANCH  25  27
ENDBRANCH  22  24
ENDBRANCH  21  22
ENDBRANCH   4  21
TORSDOF 10
ENDMDL
