MODEL 1
REMARK VINA RESULT:      -5.9      0.000      0.000
REMARK  7 active torsions:
REMARK  status: ('A' for Active; 'I' for Inactive)
REMARK    1  A    between atoms: C_2  and  S_1 
REMARK    2  A    between atoms: N_3  and  S_1 
REMARK    3  A    between atoms: C_15  and  N_3 
REMARK    4  A    between atoms: C_6  and  C_16 
REMARK       I    between atoms: N_7  and  C_6 
REMARK    5  A    between atoms: C_8  and  N_7 
REMARK    6  A    between atoms: C_17  and  C_15 
REMARK    7  A    between atoms: C_16  and  C_17 
ROOT
ATOM      1  N   UNL d   1     -41.933-122.598 -50.724  0.00  0.00    -0.228 N 
ATOM      2  C   UNL d   1     -42.120-121.817 -50.516  0.00  0.00     0.111 C 
ENDROOT
BRANCH   1   3
ATOM      3  S   UNL d   1     -42.224-123.225 -50.272  0.00  0.00     0.271 S 
ATOM      4  O   UNL d   1     -42.669-123.815 -50.633  0.00  0.00    -0.200 OA
ATOM      5  O   UNL d   1     -41.778-122.634 -49.902  0.00  0.00    -0.200 OA
BRANCH   3   6
ATOM      6  C   UNL d   1     -42.066-123.254 -49.455  0.00  0.00     0.104 A 
ATOM      7  C   UNL d   1     -41.400-123.667 -49.194  0.00  0.00     0.013 A 
ATOM      8  C   UNL d   1     -41.243-123.696 -48.383  0.00  0.00     0.001 A 
ATOM      9  C   UNL d   1     -41.744-123.317 -47.846  0.00  0.00     0.000 A 
ATOM     10  C   UNL d   1     -42.405-122.907 -48.121  0.00  0.00     0.001 A 
ATOM     11  C   UNL d   1     -41.580-123.349 -47.038  0.00  0.00     0.000 C 
ATOM     12  C   UNL d   1     -42.566-122.877 -48.929  0.00  0.00     0.013 A 
ENDBRANCH   3   6
ENDBRANCH   1   3
BRANCH   1  13
ATOM     13  C   UNL d   1     -41.458-122.745 -51.382  0.00  0.00     0.092 C 
BRANCH  13  14
ATOM     14  C   UNL d   1     -41.563-122.310 -52.072  0.00  0.00     0.025 C 
BRANCH  14  15
ATOM     15  C   UNL d   1     -41.348-122.631 -52.801  0.00  0.00     0.064 C 
BRANCH  15  16
ATOM     16  C   UNL d   1     -41.537-122.236 -53.499  0.00  0.00     0.275 C 
ATOM     17  N   UNL d   1     -41.865-122.650 -54.133  0.00  0.00    -0.238 NA
ATOM     18  O   UNL d   1     -41.401-121.432 -53.568  0.00  0.00    -0.266 OA
BRANCH  17  19
ATOM     19  C   UNL d   1     -42.056-122.259 -54.835  0.00  0.00     0.088 C 
ATOM     20  C   UNL d   1     -41.558-122.314 -55.492  0.00  0.00     0.025 C 
ATOM     21  C   UNL d   1     -42.748-121.813 -54.875  0.00  0.00     0.025 C 
ATOM     22  C   UNL d   1     -41.435-122.741 -54.586  0.00  0.00     0.025 C 
ENDBRANCH  17  19
ENDBRANCH  15  16
ENDBRANCH  14  15
ENDBRANCH  13  14
ENDBRANCH   1  13
TORSDOF 7
ENDMDL
MODEL 2
REMARK VINA RESULT:      -4.5      1.143      5.230
REMARK  7 active torsions:
REMARK  status: ('A' for Active; 'I' for Inactive)
REMARK    1  A    between atoms: C_2  and  S_1 
REMARK    2  A    between atoms: N_3  and  S_1 
REMARK    3  A    between atoms: C_15  and  N_3 
REMARK    4  A    between atoms: C_6  and  C_16 
REMARK       I    between atoms: N_7  and  C_6 
REMARK    5  A    between atoms: C_8  and  N_7 
REMARK    6  A    between atoms: C_17  and  C_15 
REMARK    7  A    between atoms: C_16  and  C_17 
ROOT
ATOM      1  N   UNL d   1     -41.389-122.579 -52.451  0.00  0.00    -0.228 N 
ATOM      2  C   UNL d   1     -41.347-121.752 -52.513  0.00  0.00     0.111 C 
ENDROOT
BRANCH   1   3
ATOM      3  S   UNL d   1     -41.670-123.025 -53.087  0.00  0.00     0.271 S 
ATOM      4  O   UNL d   1     -41.860-123.817 -52.976  0.00  0.00    -0.200 OA
ATOM      5  O   UNL d   1     -41.482-122.227 -53.206  0.00  0.00    -0.200 OA
BRANCH   3   6
ATOM      6  C   UNL d   1     -41.760-122.668 -53.835  0.00  0.00     0.104 A 
ATOM      7  C   UNL d   1     -41.164-122.770 -54.397  0.00  0.00     0.013 A 
ATOM      8  C   UNL d   1     -41.252-122.416 -55.138  0.00  0.00     0.001 A 
ATOM      9  C   UNL d   1     -41.926-121.969 -55.311  0.00  0.00     0.000 A 
ATOM     10  C   UNL d   1     -42.514-121.876 -54.740  0.00  0.00     0.001 A 
ATOM     11  C   UNL d   1     -42.008-121.619 -56.054  0.00  0.00     0.000 C 
ATOM     12  C   UNL d   1     -42.429-122.228 -53.998  0.00  0.00     0.013 A 
ENDBRANCH   3   6
ENDBRANCH   1   3
BRANCH   1  13
ATOM     13  C   UNL d   1     -41.150-122.952 -51.755  0.00  0.00     0.092 C 
BRANCH  13  14
ATOM     14  C   UNL d   1     -41.487-122.736 -51.036  0.00  0.00     0.025 C 
BRANCH  14  15
ATOM     15  C   UNL d   1     -41.290-123.147 -50.348  0.00  0.00     0.064 C 
BRANCH  15  16
ATOM     16  C   UNL d   1     -41.757-123.071 -49.673  0.00  0.00     0.275 C 
ATOM     17  N   UNL d   1     -41.467-123.314 -48.940  0.00  0.00    -0.238 NA
ATOM     18  O   UNL d   1     -42.510-122.753 -49.725  0.00  0.00    -0.266 OA
BRANCH  17  19
ATOM     19  C   UNL d   1     -41.931-123.241 -48.260  0.00  0.00     0.088 C 
ATOM     20  C   UNL d   1     -41.577-123.235 -47.514  0.00  0.00     0.025 C 
ATOM     21  C   UNL d   1     -42.748-123.172 -48.332  0.00  0.00     0.025 C 
ATOM     22  C   UNL d   1     -41.123-123.319 -48.412  0.00  0.00     0.025 C 
ENDBRANCH  17  19
ENDBRANCH  15  16
ENDBRANCH  14  15
ENDBRANCH  13  14
ENDBRANCH   1  13
TORSDOF 7
ENDMDL
