MODEL 1
REMARK VINA RESULT:      17.8      0.000      0.000
REMARK  2 active torsions:
REMARK  status: ('A' for Active; 'I' for Inactive)
REMARK    1  A    between atoms: C_6  and  C_1 
REMARK    2  A    between atoms: O_12  and  C_9 
ROOT
ATOM      1  C   UNL d   1      58.607  49.687  50.526  0.00  0.00     0.162 A 
ATOM      2  N   UNL d   1      58.467  49.663  49.687  0.00  0.00    -0.225 NA
ATOM      3  N   UNL d   1      57.868  49.705  50.894  0.00  0.00    -0.225 NA
ATOM      4  C   UNL d   1      57.671  49.667  49.568  0.00  0.00     0.101 A 
ATOM      5  C   UNL d   1      57.291  49.693  50.334  0.00  0.00     0.101 A 
ATOM      6  C   UNL d   1      57.164  49.652  48.917  0.00  0.00     0.021 A 
ATOM      7  C   UNL d   1      56.468  49.702  50.385  0.00  0.00     0.021 A 
ATOM      8  C   UNL d   1      56.035  49.685  49.710  0.00  0.00     0.002 A 
ATOM      9  C   UNL d   1      56.402  49.660  48.971  0.00  0.00     0.002 A 
ENDROOT
BRANCH   1  10
ATOM     10  C   UNL d   1      59.345  49.692  50.893  0.00  0.00     0.036 A 
ATOM     11  C   UNL d   1      60.033  49.700  50.437  0.00  0.00     0.005 A 
ATOM     12  C   UNL d   1      60.772  49.704  50.804  0.00  0.00     0.024 A 
ATOM     13  C   UNL d   1      60.823  49.701  51.627  0.00  0.00     0.094 A 
ATOM     14  C   UNL d   1      60.135  49.692  52.087  0.00  0.00     0.024 A 
ATOM     15  C   UNL d   1      59.396  49.688  51.721  0.00  0.00     0.005 A 
BRANCH  13  16
ATOM     16  O   UNL d   1      61.562  49.705  51.993  0.00  0.00    -0.328 OA
ATOM     17  C   UNL d   1      62.019  49.696  52.681  0.00  0.00     0.181 C 
ENDBRANCH  13  16
ENDBRANCH   1  10
TORSDOF 2
ENDMDL
