MODEL 1
REMARK VINA RESULT:      60.9      0.000      0.000
REMARK  4 active torsions:
REMARK  status: ('A' for Active; 'I' for Inactive)
REMARK    1  A    between atoms: S_6  and  C_1 
REMARK    2  A    between atoms: C_14  and  N_2 
REMARK    3  A    between atoms: C_7  and  S_6 
REMARK    4  A    between atoms: O_18  and  C_16 
ROOT
ATOM      1  C   UNL d   1     -50.728  25.856  33.351  0.00  0.00     0.114 A 
ATOM      2  N   UNL d   1     -51.515  25.609  33.346  0.00  0.00    -0.239 NA
ATOM      3  C   UNL d   1     -51.673  24.805  33.334  0.00  0.00     0.084 A 
ATOM      4  C   UNL d   1     -51.071  24.264  33.327  0.00  0.00     0.018 A 
ATOM      5  C   UNL d   1     -50.288  24.507  33.331  0.00  0.00     0.004 A 
ATOM      6  C   UNL d   1     -52.463  24.554  33.329  0.00  0.00     0.043 A 
ATOM      7  C   UNL d   1     -50.126  25.315  33.344  0.00  0.00     0.026 A 
ATOM      8  C   UNL d   1     -51.237  23.452  33.314  0.00  0.00     0.004 A 
ATOM      9  C   UNL d   1     -52.622  23.749  33.317  0.00  0.00     0.096 A 
ATOM     10  C   UNL d   1     -52.021  23.208  33.310  0.00  0.00     0.024 A 
ATOM     11  C   UNL d   1     -49.679  23.959  33.324  0.00  0.00     0.000 C 
ENDROOT
BRANCH   1  12
ATOM     12  S   UNL d   1     -50.445  26.659  33.363  0.00  0.00    -0.028 SA
BRANCH  12  13
ATOM     13  C   UNL d   1     -50.628  26.731  34.218  0.00  0.00     0.220 A 
ATOM     14  N   UNL d   1     -50.251  27.239  34.783  0.00  0.00    -0.186 N 
ATOM     15  N   UNL d   1     -50.617  27.104  35.505  0.00  0.00    -0.038 NA
ATOM     16  N   UNL d   1     -51.225  26.515  35.405  0.00  0.00    -0.022 NA
ATOM     17  N   UNL d   1     -51.217  26.297  34.608  0.00  0.00    -0.101 NA
BRANCH  14  18
ATOM     18  C   UNL d   1     -49.625  27.774  34.630  0.00  0.00     0.087 A 
ATOM     19  C   UNL d   1     -48.974  27.790  35.169  0.00  0.00     0.019 A 
ATOM     20  C   UNL d   1     -48.311  28.333  35.037  0.00  0.00     0.002 A 
ATOM     21  C   UNL d   1     -48.336  28.834  34.367  0.00  0.00     0.000 A 
ATOM     22  C   UNL d   1     -48.999  28.823  33.810  0.00  0.00     0.002 A 
ATOM     23  C   UNL d   1     -49.627  28.275  33.979  0.00  0.00     0.019 A 
ENDBRANCH  14  18
ENDBRANCH  12  13
ENDBRANCH   1  12
BRANCH   9  24
ATOM     24  O   UNL d   1     -53.405  23.506  33.312  0.00  0.00    -0.328 OA
ATOM     25  C   UNL d   1     -53.742  23.201  33.984  0.00  0.00     0.181 C 
ENDBRANCH   9  24
TORSDOF 4
ENDMDL
