MODEL 1
REMARK VINA RESULT:      -2.7      0.000      0.000
REMARK  6 active torsions:
REMARK  status: ('A' for Active; 'I' for Inactive)
REMARK    1  A    between atoms: C_8  and  C_6 
REMARK    2  A    between atoms: C_10  and  C_8 
REMARK       I    between atoms: N_13  and  C_10 
REMARK    3  A    between atoms: C_11  and  C_14 
REMARK    4  A    between atoms: O_20  and  C_11 
REMARK    5  A    between atoms: C_19  and  N_13 
REMARK    6  A    between atoms: C_23  and  O_20 
ROOT
ATOM      1  C   UNL d   1     -41.496-121.300 -52.172  0.00  0.00     0.280 C 
ATOM      2  N   UNL d   1     -41.389-121.261 -51.353  0.00  0.00    -0.208 NA
ATOM      3  O   UNL d   1     -41.123-120.747 -52.658  0.00  0.00    -0.265 OA
ENDROOT
BRANCH   1   4
ATOM      4  C   UNL d   1     -41.971-121.887 -52.501  0.00  0.00     0.074 C 
BRANCH   4   5
ATOM      5  C   UNL d   1     -41.993-121.989 -53.322  0.00  0.00     0.095 A 
ATOM      6  C   UNL d   1     -42.634-121.827 -53.813  0.00  0.00     0.288 A 
ATOM      7  N   UNL d   1     -42.417-122.008 -54.583  0.00  0.00    -0.169 N 
ATOM      8  O   UNL d   1     -43.366-121.534 -53.570  0.00  0.00    -0.265 OA
ATOM      9  C   UNL d   1     -41.637-122.284 -54.572  0.00  0.00     0.200 A 
ATOM     10  N   UNL d   1     -42.680-122.019 -55.364  0.00  0.00    -0.138 NA
ATOM     11  N   UNL d   1     -41.417-122.467 -55.347  0.00  0.00    -0.197 NA
ATOM     12  S   UNL d   1     -41.373-122.273 -53.790  0.00  0.00    -0.043 SA
ATOM     13  C   UNL d   1     -42.063-122.303 -55.840  0.00  0.00     0.222 A 
ENDBRANCH   4   5
ENDBRANCH   1   4
BRANCH   2  14
ATOM     14  C   UNL d   1     -41.763-121.815 -50.871  0.00  0.00     0.085 A 
ATOM     15  C   UNL d   1     -41.466-122.586 -50.834  0.00  0.00     0.019 A 
ATOM     16  C   UNL d   1     -41.829-123.146 -50.358  0.00  0.00     0.007 A 
ATOM     17  C   UNL d   1     -42.497-122.938 -49.911  0.00  0.00     0.064 A 
ATOM     18  C   UNL d   1     -42.793-122.164 -49.950  0.00  0.00     0.007 A 
ATOM     19  C   UNL d   1     -42.426-121.606 -50.428  0.00  0.00     0.019 A 
BRANCH  17  20
ATOM     20  C   UNL d   1     -42.867-123.492 -49.432  0.00  0.00     0.300 C 
ATOM     21  O   UNL d   1     -43.594-123.817 -49.663  0.00  0.00    -0.259 OA
BRANCH  20  22
ATOM     22  O   UNL d   1     -42.520-123.726 -48.724  0.00  0.00    -0.271 OA
BRANCH  22  23
ATOM     23  C   UNL d   1     -42.986-123.809 -48.045  0.00  0.00     0.126 C 
ATOM     24  C   UNL d   1     -42.637-123.765 -47.297  0.00  0.00     0.029 C 
ENDBRANCH  22  23
ENDBRANCH  20  22
ENDBRANCH  17  20
ENDBRANCH   2  14
TORSDOF 6
ENDMDL
MODEL 2
REMARK VINA RESULT:      -2.5      1.884      4.946
REMARK  6 active torsions:
REMARK  status: ('A' for Active; 'I' for Inactive)
REMARK    1  A    between atoms: C_8  and  C_6 
REMARK    2  A    between atoms: C_10  and  C_8 
REMARK       I    between atoms: N_13  and  C_10 
REMARK    3  A    between atoms: C_11  and  C_14 
REMARK    4  A    between atoms: O_20  and  C_11 
REMARK    5  A    between atoms: C_19  and  N_13 
REMARK    6  A    between atoms: C_23  and  O_20 
ROOT
ATOM      1  C   UNL d   1     -41.383-121.661 -50.913  0.00  0.00     0.280 C 
ATOM      2  N   UNL d   1     -41.134-121.338 -51.633  0.00  0.00    -0.208 NA
ATOM      3  O   UNL d   1     -41.131-121.319 -50.205  0.00  0.00    -0.265 OA
ENDROOT
BRANCH   1   4
ATOM      4  C   UNL d   1     -41.878-122.318 -50.902  0.00  0.00     0.074 C 
BRANCH   4   5
ATOM      5  C   UNL d   1     -42.078-122.674 -50.182  0.00  0.00     0.095 A 
ATOM      6  C   UNL d   1     -42.824-122.671 -49.832  0.00  0.00     0.288 A 
ATOM      7  N   UNL d   1     -42.775-123.086 -49.126  0.00  0.00    -0.169 N 
ATOM      8  O   UNL d   1     -43.501-122.314 -50.139  0.00  0.00    -0.265 OA
ATOM      9  C   UNL d   1     -41.994-123.348 -49.035  0.00  0.00     0.200 A 
ATOM     10  N   UNL d   1     -43.206-123.341 -48.471  0.00  0.00    -0.138 NA
ATOM     11  N   UNL d   1     -41.943-123.765 -48.324  0.00  0.00    -0.197 NA
ATOM     12  S   UNL d   1     -41.562-123.092 -49.690  0.00  0.00    -0.043 SA
ATOM     13  C   UNL d   1     -42.694-123.762 -47.973  0.00  0.00     0.222 A 
ENDBRANCH   4   5
ENDBRANCH   1   4
BRANCH   2  14
ATOM     14  C   UNL d   1     -41.388-121.682 -52.338  0.00  0.00     0.085 A 
ATOM     15  C   UNL d   1     -41.124-122.440 -52.538  0.00  0.00     0.019 A 
ATOM     16  C   UNL d   1     -41.369-122.792 -53.235  0.00  0.00     0.007 A 
ATOM     17  C   UNL d   1     -41.885-122.386 -53.744  0.00  0.00     0.064 A 
ATOM     18  C   UNL d   1     -42.149-121.627 -53.542  0.00  0.00     0.007 A 
ATOM     19  C   UNL d   1     -41.901-121.277 -52.841  0.00  0.00     0.019 A 
BRANCH  17  20
ATOM     20  C   UNL d   1     -42.136-122.732 -54.445  0.00  0.00     0.300 C 
ATOM     21  O   UNL d   1     -42.620-123.405 -54.423  0.00  0.00    -0.259 OA
BRANCH  20  22
ATOM     22  O   UNL d   1     -41.910-122.413 -55.169  0.00  0.00    -0.271 OA
BRANCH  22  23
ATOM     23  C   UNL d   1     -42.397-122.510 -55.831  0.00  0.00     0.126 C 
ATOM     24  C   UNL d   1     -42.522-121.877 -56.347  0.00  0.00     0.029 C 
ENDBRANCH  22  23
ENDBRANCH  20  22
ENDBRANCH  17  20
ENDBRANCH   2  14
TORSDOF 6
ENDMDL
