MODEL 1
REMARK VINA RESULT:      -0.5      0.000      0.000
REMARK  3 active torsions:
REMARK  status: ('A' for Active; 'I' for Inactive)
REMARK    1  A    between atoms: C_14  and  N_3 
REMARK    2  A    between atoms: O_17  and  C_12 
REMARK    3  A    between atoms: O_16  and  C_13 
ROOT
ATOM      1  C   UNL d   1     -42.388-122.385 -51.055  0.00  0.00     0.166 A 
ATOM      2  C   UNL d   1     -41.762-122.956 -51.036  0.00  0.00     0.117 A 
ATOM      3  N   UNL d   1     -42.643-122.266 -50.273  0.00  0.00    -0.289 N 
ATOM      4  N   UNL d   1     -42.616-122.071 -51.797  0.00  0.00    -0.225 NA
ATOM      5  N   UNL d   1     -41.397-123.188 -51.731  0.00  0.00    -0.241 NA
ATOM      6  C   UNL d   1     -41.663-123.159 -50.247  0.00  0.00     0.037 A 
ATOM      7  C   UNL d   1     -42.200-122.739 -49.782  0.00  0.00     0.067 A 
ATOM      8  C   UNL d   1     -42.252-122.302 -52.490  0.00  0.00     0.103 A 
ATOM      9  C   UNL d   1     -41.643-122.860 -52.457  0.00  0.00     0.101 A 
ATOM     10  C   UNL d   1     -42.492-121.983 -53.188  0.00  0.00     0.047 A 
ATOM     11  C   UNL d   1     -41.276-123.093 -53.150  0.00  0.00     0.047 A 
ATOM     12  C   UNL d   1     -41.504-122.780 -53.892  0.00  0.00     0.118 A 
ATOM     13  C   UNL d   1     -42.123-122.219 -53.886  0.00  0.00     0.118 A 
ATOM     14  C   UNL d   1     -41.137-123.689 -49.889  0.00  0.00     0.003 A 
ATOM     15  C   UNL d   1     -42.193-122.861 -48.973  0.00  0.00     0.018 A 
ATOM     16  C   UNL d   1     -41.144-123.800 -49.069  0.00  0.00     0.000 A 
ATOM     17  C   UNL d   1     -41.680-123.380 -48.604  0.00  0.00     0.002 A 
ENDROOT
BRANCH   3  18
ATOM     18  C   UNL d   1     -43.233-121.763 -50.042  0.00  0.00     0.082 C 
ATOM     19  C   UNL d   1     -43.973-122.063 -49.833  0.00  0.00     0.021 C 
ENDBRANCH   3  18
BRANCH  13  20
ATOM     20  O   UNL d   1     -42.361-121.901 -54.591  0.00  0.00    -0.326 OA
ATOM     21  C   UNL d   1     -42.855-121.236 -54.616  0.00  0.00     0.181 C 
ENDBRANCH  13  20
BRANCH  12  22
ATOM     22  O   UNL d   1     -41.123-123.024 -54.599  0.00  0.00    -0.326 OA
ATOM     23  C   UNL d   1     -41.190-123.816 -54.853  0.00  0.00     0.181 C 
ENDBRANCH  12  22
TORSDOF 3
ENDMDL
MODEL 2
REMARK VINA RESULT:       1.2      1.184      1.444
REMARK  3 active torsions:
REMARK  status: ('A' for Active; 'I' for Inactive)
REMARK    1  A    between atoms: C_14  and  N_3 
REMARK    2  A    between atoms: O_17  and  C_12 
REMARK    3  A    between atoms: O_16  and  C_13 
ROOT
ATOM      1  C   UNL d   1     -41.525-121.966 -51.926  0.00  0.00     0.166 A 
ATOM      2  C   UNL d   1     -41.517-122.812 -51.874  0.00  0.00     0.117 A 
ATOM      3  N   UNL d   1     -41.401-121.668 -51.160  0.00  0.00    -0.289 N 
ATOM      4  N   UNL d   1     -41.647-121.617 -52.677  0.00  0.00    -0.225 NA
ATOM      5  N   UNL d   1     -41.626-123.267 -52.547  0.00  0.00    -0.241 NA
ATOM      6  C   UNL d   1     -41.389-122.991 -51.083  0.00  0.00     0.037 A 
ATOM      7  C   UNL d   1     -41.318-122.293 -50.648  0.00  0.00     0.067 A 
ATOM      8  C   UNL d   1     -41.755-122.068 -53.347  0.00  0.00     0.103 A 
ATOM      9  C   UNL d   1     -41.745-122.893 -53.282  0.00  0.00     0.101 A 
ATOM     10  C   UNL d   1     -41.870-121.704 -54.056  0.00  0.00     0.047 A 
ATOM     11  C   UNL d   1     -41.853-123.348 -53.953  0.00  0.00     0.047 A 
ATOM     12  C   UNL d   1     -41.975-122.999 -54.704  0.00  0.00     0.118 A 
ATOM     13  C   UNL d   1     -41.979-122.164 -54.731  0.00  0.00     0.118 A 
ATOM     14  C   UNL d   1     -41.326-123.722 -50.699  0.00  0.00     0.003 A 
ATOM     15  C   UNL d   1     -41.188-122.348 -49.843  0.00  0.00     0.018 A 
ATOM     16  C   UNL d   1     -41.194-123.759 -49.883  0.00  0.00     0.000 A 
ATOM     17  C   UNL d   1     -41.124-123.062 -49.448  0.00  0.00     0.002 A 
ENDROOT
BRANCH   3  18
ATOM     18  C   UNL d   1     -41.369-120.884 -50.962  0.00  0.00     0.082 C 
ATOM     19  C   UNL d   1     -41.123-120.326 -51.520  0.00  0.00     0.021 C 
ENDBRANCH   3  18
BRANCH  13  20
ATOM     20  O   UNL d   1     -42.095-121.803 -55.446  0.00  0.00    -0.326 OA
ATOM     21  C   UNL d   1     -41.624-121.163 -55.683  0.00  0.00     0.181 C 
ENDBRANCH  13  20
BRANCH  12  22
ATOM     22  O   UNL d   1     -42.086-123.473 -55.389  0.00  0.00    -0.326 OA
ATOM     23  C   UNL d   1     -42.834-123.808 -55.543  0.00  0.00     0.181 C 
ENDBRANCH  12  22
TORSDOF 3
ENDMDL
