MODEL 1
REMARK VINA RESULT:      -7.4      0.000      0.000
REMARK  4 active torsions:
REMARK  status: ('A' for Active; 'I' for Inactive)
REMARK    1  A    between atoms: N_2  and  C_1 
REMARK    2  A    between atoms: C_4  and  C_8 
REMARK       I    between atoms: N_5  and  C_4 
REMARK    3  A    between atoms: C_9  and  C_7 
REMARK    4  A    between atoms: C_8  and  C_9 
ROOT
ATOM      1  C   UNL d   1     -48.258  13.892  22.470  0.00  0.00     0.062 C 
ENDROOT
BRANCH   1   2
ATOM      2  C   UNL d   1     -48.872  14.410  22.530  0.00  0.00     0.265 C 
ATOM      3  N   UNL d   1     -49.600  14.227  22.201  0.00  0.00    -0.272 N 
ATOM      4  C   UNL d   1     -49.708  13.513  21.808  0.00  0.00     0.083 A 
ATOM      5  C   UNL d   1     -50.237  14.761  22.263  0.00  0.00     0.083 A 
ATOM      6  C   UNL d   1     -50.434  13.321  21.475  0.00  0.00     0.019 A 
ATOM      7  C   UNL d   1     -51.064  13.847  21.534  0.00  0.00     0.003 A 
ATOM      8  C   UNL d   1     -50.966  14.568  21.928  0.00  0.00     0.019 A 
ATOM      9  O   UNL d   1     -48.764  15.121  22.923  0.00  0.00    -0.267 OA
ENDBRANCH   1   2
BRANCH   1  10
ATOM     10  C   UNL d   1     -47.541  14.043  22.939  0.00  0.00     0.011 C 
BRANCH  10  11
ATOM     11  C   UNL d   1     -46.888  13.509  22.916  0.00  0.00     0.031 A 
ATOM     12  S   UNL d   1     -46.860  12.806  23.293  0.00  0.00    -0.064 SA
ATOM     13  C   UNL d   1     -46.124  12.466  23.121  0.00  0.00     0.156 A 
ATOM     14  C   UNL d   1     -45.723  12.995  22.631  0.00  0.00     0.031 A 
ATOM     15  C   UNL d   1     -46.189  13.616  22.514  0.00  0.00     0.009 A 
BRANCH  13  16
ATOM     16  N   UNL d   1     -45.826  11.722  23.389  0.00  0.00    -0.107 N 
ATOM     17  O   UNL d   1     -44.999  11.561  23.347  0.00  0.00    -0.531 OA
ATOM     18  O   UNL d   1     -46.348  11.137  23.698  0.00  0.00    -0.531 OA
ENDBRANCH  13  16
ENDBRANCH  10  11
ENDBRANCH   1  10
TORSDOF 4
ENDMDL
MODEL 2
REMARK VINA RESULT:      -6.9      1.205      1.348
REMARK  4 active torsions:
REMARK  status: ('A' for Active; 'I' for Inactive)
REMARK    1  A    between atoms: N_2  and  C_1 
REMARK    2  A    between atoms: C_4  and  C_8 
REMARK       I    between atoms: N_5  and  C_4 
REMARK    3  A    between atoms: C_9  and  C_7 
REMARK    4  A    between atoms: C_8  and  C_9 
ROOT
ATOM      1  C   UNL d   1     -48.220  14.117  22.952  0.00  0.00     0.062 C 
ENDROOT
BRANCH   1   2
ATOM      2  C   UNL d   1     -48.709  14.751  22.855  0.00  0.00     0.265 C 
ATOM      3  N   UNL d   1     -49.490  14.711  23.099  0.00  0.00    -0.272 N 
ATOM      4  C   UNL d   1     -49.780  14.023  23.444  0.00  0.00     0.083 A 
ATOM      5  C   UNL d   1     -49.997  15.365  23.000  0.00  0.00     0.083 A 
ATOM      6  C   UNL d   1     -50.562  13.973  23.691  0.00  0.00     0.019 A 
ATOM      7  C   UNL d   1     -51.064  14.618  23.595  0.00  0.00     0.003 A 
ATOM      8  C   UNL d   1     -50.782  15.315  23.249  0.00  0.00     0.019 A 
ATOM      9  O   UNL d   1     -48.418  15.436  22.512  0.00  0.00    -0.267 OA
ENDBRANCH   1   2
BRANCH   1  10
ATOM     10  C   UNL d   1     -47.369  14.225  22.808  0.00  0.00     0.011 C 
BRANCH  10  11
ATOM     11  C   UNL d   1     -46.828  13.584  22.909  0.00  0.00     0.031 A 
ATOM     12  S   UNL d   1     -46.115  13.529  22.555  0.00  0.00    -0.064 SA
ATOM     13  C   UNL d   1     -45.772  12.818  22.807  0.00  0.00     0.156 A 
ATOM     14  C   UNL d   1     -46.310  12.460  23.320  0.00  0.00     0.031 A 
ATOM     15  C   UNL d   1     -46.939  12.926  23.375  0.00  0.00     0.009 A 
BRANCH  13  16
ATOM     16  N   UNL d   1     -45.017  12.506  22.589  0.00  0.00    -0.107 N 
ATOM     17  O   UNL d   1     -44.559  12.890  21.995  0.00  0.00    -0.531 OA
ATOM     18  O   UNL d   1     -44.716  11.812  22.962  0.00  0.00    -0.531 OA
ENDBRANCH  13  16
ENDBRANCH  10  11
ENDBRANCH   1  10
TORSDOF 4
ENDMDL
MODEL 3
REMARK VINA RESULT:      -6.5      1.789      4.691
REMARK  4 active torsions:
REMARK  status: ('A' for Active; 'I' for Inactive)
REMARK    1  A    between atoms: N_2  and  C_1 
REMARK    2  A    between atoms: C_4  and  C_8 
REMARK       I    between atoms: N_5  and  C_4 
REMARK    3  A    between atoms: C_9  and  C_7 
REMARK    4  A    between atoms: C_8  and  C_9 
ROOT
ATOM      1  C   UNL d   1     -48.700  12.409  23.251  0.00  0.00     0.062 C 
ENDROOT
BRANCH   1   2
ATOM      2  C   UNL d   1     -48.224  11.790  23.452  0.00  0.00     0.265 C 
ATOM      3  N   UNL d   1     -47.409  11.865  23.410  0.00  0.00    -0.272 N 
ATOM      4  C   UNL d   1     -47.072  12.573  23.163  0.00  0.00     0.083 A 
ATOM      5  C   UNL d   1     -46.915  11.226  23.617  0.00  0.00     0.083 A 
ATOM      6  C   UNL d   1     -46.256  12.658  23.119  0.00  0.00     0.019 A 
ATOM      7  C   UNL d   1     -45.766  12.028  23.323  0.00  0.00     0.003 A 
ATOM      8  C   UNL d   1     -46.096  11.312  23.572  0.00  0.00     0.019 A 
ATOM      9  O   UNL d   1     -48.561  11.085  23.698  0.00  0.00    -0.267 OA
ENDBRANCH   1   2
BRANCH   1  10
ATOM     10  C   UNL d   1     -49.561  12.294  23.276  0.00  0.00     0.011 C 
BRANCH  10  11
ATOM     11  C   UNL d   1     -50.087  12.896  23.003  0.00  0.00     0.031 A 
ATOM     12  S   UNL d   1     -50.087  13.651  23.260  0.00  0.00    -0.064 SA
ATOM     13  C   UNL d   1     -50.687  14.049  22.850  0.00  0.00     0.156 A 
ATOM     14  C   UNL d   1     -51.037  13.498  22.344  0.00  0.00     0.031 A 
ATOM     15  C   UNL d   1     -50.671  12.811  22.443  0.00  0.00     0.009 A 
BRANCH  13  16
ATOM     16  N   UNL d   1     -50.910  14.861  22.923  0.00  0.00    -0.107 N 
ATOM     17  O   UNL d   1     -51.064  15.186  23.685  0.00  0.00    -0.531 OA
ATOM     18  O   UNL d   1     -50.980  15.350  22.240  0.00  0.00    -0.531 OA
ENDBRANCH  13  16
ENDBRANCH  10  11
ENDBRANCH   1  10
TORSDOF 4
ENDMDL
MODEL 4
REMARK VINA RESULT:      -5.5      8.555      9.744
REMARK  4 active torsions:
REMARK  status: ('A' for Active; 'I' for Inactive)
REMARK    1  A    between atoms: N_2  and  C_1 
REMARK    2  A    between atoms: C_4  and  C_8 
REMARK       I    between atoms: N_5  and  C_4 
REMARK    3  A    between atoms: C_9  and  C_7 
REMARK    4  A    between atoms: C_8  and  C_9 
ROOT
ATOM      1  C   UNL d   1     -39.732  14.269  20.078  0.00  0.00     0.062 C 
ENDROOT
BRANCH   1   2
ATOM      2  C   UNL d   1     -39.802  14.235  20.881  0.00  0.00     0.265 C 
ATOM      3  N   UNL d   1     -39.209  13.895  21.334  0.00  0.00    -0.272 N 
ATOM      4  C   UNL d   1     -38.539  13.587  20.971  0.00  0.00     0.083 A 
ATOM      5  C   UNL d   1     -39.281  13.860  22.163  0.00  0.00     0.083 A 
ATOM      6  C   UNL d   1     -37.940  13.244  21.417  0.00  0.00     0.019 A 
ATOM      7  C   UNL d   1     -38.008  13.208  22.237  0.00  0.00     0.003 A 
ATOM      8  C   UNL d   1     -38.678  13.515  22.610  0.00  0.00     0.019 A 
ATOM      9  O   UNL d   1     -40.471  14.543  21.240  0.00  0.00    -0.267 OA
ENDBRANCH   1   2
BRANCH   1  10
ATOM     10  C   UNL d   1     -40.420  14.524  19.613  0.00  0.00     0.011 C 
BRANCH  10  11
ATOM     11  C   UNL d   1     -40.380  14.570  18.770  0.00  0.00     0.031 A 
ATOM     12  S   UNL d   1     -40.712  15.146  18.329  0.00  0.00    -0.064 SA
ATOM     13  C   UNL d   1     -40.539  14.977  17.537  0.00  0.00     0.156 A 
ATOM     14  C   UNL d   1     -40.094  14.282  17.531  0.00  0.00     0.031 A 
ATOM     15  C   UNL d   1     -40.005  14.046  18.274  0.00  0.00     0.009 A 
BRANCH  13  16
ATOM     16  N   UNL d   1     -40.766  15.421  16.854  0.00  0.00    -0.107 N 
ATOM     17  O   UNL d   1     -40.200  15.908  16.463  0.00  0.00    -0.531 OA
ATOM     18  O   UNL d   1     -41.555  15.382  16.560  0.00  0.00    -0.531 OA
ENDBRANCH  13  16
ENDBRANCH  10  11
ENDBRANCH   1  10
TORSDOF 4
ENDMDL
MODEL 5
REMARK VINA RESULT:      -4.9      8.614      9.004
REMARK  4 active torsions:
REMARK  status: ('A' for Active; 'I' for Inactive)
REMARK    1  A    between atoms: N_2  and  C_1 
REMARK    2  A    between atoms: C_4  and  C_8 
REMARK       I    between atoms: N_5  and  C_4 
REMARK    3  A    between atoms: C_9  and  C_7 
REMARK    4  A    between atoms: C_8  and  C_9 
ROOT
ATOM      1  C   UNL d   1     -39.879  14.859  19.908  0.00  0.00     0.062 C 
ENDROOT
BRANCH   1   2
ATOM      2  C   UNL d   1     -40.376  15.243  19.403  0.00  0.00     0.265 C 
ATOM      3  N   UNL d   1     -40.360  15.076  18.601  0.00  0.00    -0.272 N 
ATOM      4  C   UNL d   1     -39.836  14.515  18.307  0.00  0.00     0.083 A 
ATOM      5  C   UNL d   1     -40.873  15.473  18.078  0.00  0.00     0.083 A 
ATOM      6  C   UNL d   1     -39.813  14.341  17.503  0.00  0.00     0.019 A 
ATOM      7  C   UNL d   1     -40.319  14.732  16.985  0.00  0.00     0.003 A 
ATOM      8  C   UNL d   1     -40.849  15.298  17.272  0.00  0.00     0.019 A 
ATOM      9  O   UNL d   1     -40.897  15.802  19.699  0.00  0.00    -0.267 OA
ENDBRANCH   1   2
BRANCH   1  10
ATOM     10  C   UNL d   1     -39.979  14.982  20.763  0.00  0.00     0.011 C 
BRANCH  10  11
ATOM     11  C   UNL d   1     -39.410  14.688  21.313  0.00  0.00     0.031 A 
ATOM     12  S   UNL d   1     -39.460  13.985  21.687  0.00  0.00    -0.064 SA
ATOM     13  C   UNL d   1     -38.791  13.918  22.172  0.00  0.00     0.156 A 
ATOM     14  C   UNL d   1     -38.349  14.608  22.067  0.00  0.00     0.031 A 
ATOM     15  C   UNL d   1     -38.728  15.062  21.551  0.00  0.00     0.009 A 
BRANCH  13  16
ATOM     16  N   UNL d   1     -38.586  13.276  22.681  0.00  0.00    -0.107 N 
ATOM     17  O   UNL d   1     -38.023  12.702  22.426  0.00  0.00    -0.531 OA
ATOM     18  O   UNL d   1     -38.939  13.202  23.443  0.00  0.00    -0.531 OA
ENDBRANCH  13  16
ENDBRANCH  10  11
ENDBRANCH   1  10
TORSDOF 4
ENDMDL
