MODEL 1
REMARK VINA RESULT:      -8.2      0.000      0.000
REMARK  4 active torsions:
REMARK  status: ('A' for Active; 'I' for Inactive)
REMARK    1  A    between atoms: C_3  and  S_1 
REMARK    2  A    between atoms: N_4  and  S_1 
REMARK    3  A    between atoms: C_2  and  C_8 
REMARK       I    between atoms: N_5  and  C_2 
REMARK    4  A    between atoms: C_14  and  N_5 
ROOT
ATOM      1  C   UNL d   1      52.631  33.543  53.586  0.00  0.00     0.104 A 
ATOM      2  C   UNL d   1      51.220  34.133  52.896  0.00  0.00     0.058 A 
ATOM      3  C   UNL d   1      51.985  33.086  53.513  0.00  0.00     0.013 A 
ATOM      4  C   UNL d   1      52.585  34.306  53.316  0.00  0.00     0.013 A 
ATOM      5  C   UNL d   1      51.907  34.625  52.972  0.00  0.00     0.005 A 
ATOM      6  C   UNL d   1      51.286  33.375  53.172  0.00  0.00     0.005 A 
ENDROOT
BRANCH   2   7
ATOM      7  C   UNL d   1      50.505  34.428  52.547  0.00  0.00     0.279 C 
ATOM      8  N   UNL d   1      49.881  34.633  52.973  0.00  0.00    -0.208 NA
ATOM      9  O   UNL d   1      50.496  34.493  51.697  0.00  0.00    -0.265 OA
BRANCH   8  10
ATOM     10  C   UNL d   1      49.199  34.917  52.606  0.00  0.00     0.085 A 
ATOM     11  C   UNL d   1      48.959  34.590  51.907  0.00  0.00     0.020 A 
ATOM     12  C   UNL d   1      48.277  34.875  51.542  0.00  0.00     0.013 A 
ATOM     13  C   UNL d   1      47.835  35.487  51.875  0.00  0.00     0.058 A 
ATOM     14  C   UNL d   1      48.092  35.818  52.599  0.00  0.00     0.013 A 
ATOM     15 CL   UNL d   1      47.115  35.756  51.448  0.00  0.00    -0.082 Cl
ATOM     16  C   UNL d   1      48.775  35.530  52.961  0.00  0.00     0.020 A 
ENDBRANCH   8  10
ENDBRANCH   2   7
BRANCH   1  17
ATOM     17  S   UNL d   1      53.409  33.299  53.940  0.00  0.00     0.271 S 
ATOM     18  O   UNL d   1      53.292  33.719  54.662  0.00  0.00    -0.200 OA
ATOM     19  O   UNL d   1      53.516  32.900  53.248  0.00  0.00    -0.200 OA
BRANCH  17  20
ATOM     20  N   UNL d   1      54.192  33.022  54.229  0.00  0.00    -0.226 N 
ATOM     21  C   UNL d   1      54.352  33.015  55.050  0.00  0.00     0.111 C 
ATOM     22  C   UNL d   1      54.766  32.768  53.693  0.00  0.00     0.111 C 
ENDBRANCH  17  20
ENDBRANCH   1  17
TORSDOF 4
ENDMDL
MODEL 2
REMARK VINA RESULT:      -8.1      2.585      5.321
REMARK  4 active torsions:
REMARK  status: ('A' for Active; 'I' for Inactive)
REMARK    1  A    between atoms: C_3  and  S_1 
REMARK    2  A    between atoms: N_4  and  S_1 
REMARK    3  A    between atoms: C_2  and  C_8 
REMARK       I    between atoms: N_5  and  C_2 
REMARK    4  A    between atoms: C_14  and  N_5 
ROOT
ATOM      1  C   UNL d   1      48.811  35.127  52.297  0.00  0.00     0.104 A 
ATOM      2  C   UNL d   1      50.314  34.424  52.550  0.00  0.00     0.058 A 
ATOM      3  C   UNL d   1      49.178  35.178  53.001  0.00  0.00     0.013 A 
ATOM      4  C   UNL d   1      49.188  34.723  51.704  0.00  0.00     0.013 A 
ATOM      5  C   UNL d   1      49.927  34.367  51.796  0.00  0.00     0.005 A 
ATOM      6  C   UNL d   1      49.921  34.831  53.129  0.00  0.00     0.005 A 
ENDROOT
BRANCH   2   7
ATOM      7  C   UNL d   1      51.074  34.069  52.681  0.00  0.00     0.279 C 
ATOM      8  N   UNL d   1      51.204  33.550  53.250  0.00  0.00    -0.208 NA
ATOM      9  O   UNL d   1      51.700  34.309  52.154  0.00  0.00    -0.265 OA
BRANCH   8  10
ATOM     10  C   UNL d   1      51.954  33.221  53.354  0.00  0.00     0.085 A 
ATOM     11  C   UNL d   1      52.485  33.591  53.838  0.00  0.00     0.020 A 
ATOM     12  C   UNL d   1      53.234  33.262  53.941  0.00  0.00     0.013 A 
ATOM     13  C   UNL d   1      53.452  32.563  53.562  0.00  0.00     0.058 A 
ATOM     14  C   UNL d   1      52.894  32.187  53.063  0.00  0.00     0.013 A 
ATOM     15 CL   UNL d   1      54.261  32.250  53.703  0.00  0.00    -0.082 Cl
ATOM     16  C   UNL d   1      52.146  32.521  52.963  0.00  0.00     0.020 A 
ENDBRANCH   8  10
ENDBRANCH   2   7
BRANCH   1  17
ATOM     17  S   UNL d   1      48.019  35.473  52.092  0.00  0.00     0.271 S 
ATOM     18  O   UNL d   1      47.971  35.095  51.340  0.00  0.00    -0.200 OA
ATOM     19  O   UNL d   1      48.070  35.832  52.812  0.00  0.00    -0.200 OA
BRANCH  17  20
ATOM     20  N   UNL d   1      47.236  35.849  51.953  0.00  0.00    -0.226 N 
ATOM     21  C   UNL d   1      46.699  35.501  51.414  0.00  0.00     0.111 C 
ATOM     22  C   UNL d   1      47.032  36.542  52.352  0.00  0.00     0.111 C 
ENDBRANCH  17  20
ENDBRANCH   1  17
TORSDOF 4
ENDMDL
MODEL 3
REMARK VINA RESULT:      -6.2     10.300     10.954
REMARK  4 active torsions:
REMARK  status: ('A' for Active; 'I' for Inactive)
REMARK    1  A    between atoms: C_3  and  S_1 
REMARK    2  A    between atoms: N_4  and  S_1 
REMARK    3  A    between atoms: C_2  and  C_8 
REMARK       I    between atoms: N_5  and  C_2 
REMARK    4  A    between atoms: C_14  and  N_5 
ROOT
ATOM      1  C   UNL d   1      44.880  28.786  57.944  0.00  0.00     0.104 A 
ATOM      2  C   UNL d   1      44.956  27.337  57.102  0.00  0.00     0.058 A 
ATOM      3  C   UNL d   1      44.423  28.655  57.307  0.00  0.00     0.013 A 
ATOM      4  C   UNL d   1      45.385  28.196  58.174  0.00  0.00     0.013 A 
ATOM      5  C   UNL d   1      45.446  27.473  57.782  0.00  0.00     0.005 A 
ATOM      6  C   UNL d   1      44.458  27.939  56.889  0.00  0.00     0.005 A 
ENDROOT
BRANCH   2   7
ATOM      7  C   UNL d   1      44.992  26.604  56.675  0.00  0.00     0.279 C 
ATOM      8  N   UNL d   1      44.383  26.116  56.623  0.00  0.00    -0.208 NA
ATOM      9  O   UNL d   1      45.734  26.421  56.298  0.00  0.00    -0.265 OA
BRANCH   8  10
ATOM     10  C   UNL d   1      44.447  25.410  56.200  0.00  0.00     0.085 A 
ATOM     11  C   UNL d   1      44.314  25.413  55.403  0.00  0.00     0.020 A 
ATOM     12  C   UNL d   1      44.378  24.707  54.981  0.00  0.00     0.013 A 
ATOM     13  C   UNL d   1      44.574  23.999  55.356  0.00  0.00     0.058 A 
ATOM     14  C   UNL d   1      44.709  24.008  56.182  0.00  0.00     0.013 A 
ATOM     15 CL   UNL d   1      44.630  23.273  54.864  0.00  0.00    -0.082 Cl
ATOM     16  C   UNL d   1      44.644  24.716  56.599  0.00  0.00     0.020 A 
ENDBRANCH   8  10
ENDBRANCH   2   7
BRANCH   1  17
ATOM     17  S   UNL d   1      44.894  29.526  58.436  0.00  0.00     0.271 S 
ATOM     18  O   UNL d   1      44.763  29.126  59.167  0.00  0.00    -0.200 OA
ATOM     19  O   UNL d   1      45.018  29.904  57.735  0.00  0.00    -0.200 OA
BRANCH  17  20
ATOM     20  N   UNL d   1      44.918  30.295  58.862  0.00  0.00    -0.226 N 
ATOM     21  C   UNL d   1      44.782  30.317  59.687  0.00  0.00     0.111 C 
ATOM     22  C   UNL d   1      45.075  30.993  58.450  0.00  0.00     0.111 C 
ENDBRANCH  17  20
ENDBRANCH   1  17
TORSDOF 4
ENDMDL
MODEL 4
REMARK VINA RESULT:      -5.5     10.655     11.217
REMARK  4 active torsions:
REMARK  status: ('A' for Active; 'I' for Inactive)
REMARK    1  A    between atoms: C_3  and  S_1 
REMARK    2  A    between atoms: N_4  and  S_1 
REMARK    3  A    between atoms: C_2  and  C_8 
REMARK       I    between atoms: N_5  and  C_2 
REMARK    4  A    between atoms: C_14  and  N_5 
ROOT
ATOM      1  C   UNL d   1      44.692  25.519  56.572  0.00  0.00     0.104 A 
ATOM      2  C   UNL d   1      44.827  26.802  57.645  0.00  0.00     0.058 A 
ATOM      3  C   UNL d   1      44.458  25.450  57.328  0.00  0.00     0.013 A 
ATOM      4  C   UNL d   1      44.998  26.231  56.335  0.00  0.00     0.013 A 
ATOM      5  C   UNL d   1      45.077  26.881  56.837  0.00  0.00     0.005 A 
ATOM      6  C   UNL d   1      44.524  26.083  57.861  0.00  0.00     0.005 A 
ENDROOT
BRANCH   2   7
ATOM      7  C   UNL d   1      44.894  27.450  58.190  0.00  0.00     0.279 C 
ATOM      8  N   UNL d   1      44.674  28.178  58.008  0.00  0.00    -0.208 NA
ATOM      9  O   UNL d   1      45.216  27.267  58.957  0.00  0.00    -0.265 OA
BRANCH   8  10
ATOM     10  C   UNL d   1      44.751  28.788  58.558  0.00  0.00     0.085 A 
ATOM     11  C   UNL d   1      44.314  28.765  59.238  0.00  0.00     0.020 A 
ATOM     12  C   UNL d   1      44.391  29.375  59.787  0.00  0.00     0.013 A 
ATOM     13  C   UNL d   1      44.904  30.008  59.657  0.00  0.00     0.058 A 
ATOM     14  C   UNL d   1      45.351  30.022  58.949  0.00  0.00     0.013 A 
ATOM     15 CL   UNL d   1      44.952  30.635  60.271  0.00  0.00    -0.082 Cl
ATOM     16  C   UNL d   1      45.271  29.409  58.403  0.00  0.00     0.020 A 
ENDBRANCH   8  10
ENDBRANCH   2   7
BRANCH   1  17
ATOM     17  S   UNL d   1      44.651  24.885  55.950  0.00  0.00     0.271 S 
ATOM     18  O   UNL d   1      44.997  24.289  56.435  0.00  0.00    -0.200 OA
ATOM     19  O   UNL d   1      44.320  25.459  55.490  0.00  0.00    -0.200 OA
BRANCH  17  20
ATOM     20  N   UNL d   1      44.580  24.307  55.291  0.00  0.00    -0.226 N 
ATOM     21  C   UNL d   1      44.317  24.564  54.540  0.00  0.00     0.111 C 
ATOM     22  C   UNL d   1      44.772  23.513  55.413  0.00  0.00     0.111 C 
ENDBRANCH  17  20
ENDBRANCH   1  17
TORSDOF 4
ENDMDL
