MODEL 1
REMARK VINA RESULT:      -7.6      0.000      0.000
REMARK  4 active torsions:
REMARK  status: ('A' for Active; 'I' for Inactive)
REMARK    1  A    between atoms: C_9  and  N_1 
REMARK    2  A    between atoms: C_6  and  C_2 
REMARK       I    between atoms: N_8  and  C_6 
REMARK    3  A    between atoms: C_15  and  N_8 
REMARK    4  A    between atoms: C_13  and  C_9 
ROOT
ATOM      1  N   UNL d   1     -47.755  13.228  22.333  0.00  0.00    -0.258 N 
ATOM      2  C   UNL d   1     -46.518  12.849  22.736  0.00  0.00     0.114 A 
ATOM      3  C   UNL d   1     -47.223  12.662  22.453  0.00  0.00     0.270 A 
ATOM      4  C   UNL d   1     -47.583  13.972  22.494  0.00  0.00     0.150 A 
ATOM      5  C   UNL d   1     -46.342  13.594  22.899  0.00  0.00     0.013 A 
ATOM      6  C   UNL d   1     -46.875  14.152  22.777  0.00  0.00     0.035 A 
ATOM      7  N   UNL d   1     -48.108  14.524  22.375  0.00  0.00    -0.227 NA
ATOM      8  O   UNL d   1     -47.124  11.972  22.398  0.00  0.00    -0.266 OA
ATOM      9  C   UNL d   1     -46.697  14.898  22.941  0.00  0.00     0.005 A 
ATOM     10  C   UNL d   1     -47.941  15.263  22.534  0.00  0.00     0.101 A 
ATOM     11  C   UNL d   1     -47.236  15.450  22.817  0.00  0.00     0.021 A 
ENDROOT
BRANCH   2  12
ATOM     12  C   UNL d   1     -45.983  12.287  22.857  0.00  0.00     0.284 C 
ATOM     13  N   UNL d   1     -45.853  11.758  23.487  0.00  0.00    -0.208 NA
ATOM     14  O   UNL d   1     -45.695  12.383  22.311  0.00  0.00    -0.265 OA
BRANCH  13  15
ATOM     15  C   UNL d   1     -45.212  11.203  23.450  0.00  0.00     0.085 A 
ATOM     16  C   UNL d   1     -45.320  10.418  23.697  0.00  0.00     0.019 A 
ATOM     17  C   UNL d   1     -44.687   9.889  23.656  0.00  0.00     0.002 A 
ATOM     18  C   UNL d   1     -43.954  10.139  23.372  0.00  0.00     0.000 A 
ATOM     19  C   UNL d   1     -43.831  10.918  23.122  0.00  0.00     0.002 A 
ATOM     20  C   UNL d   1     -44.472  11.454  23.164  0.00  0.00     0.019 A 
ENDBRANCH  13  15
ENDBRANCH   2  12
BRANCH   1  21
ATOM     21  C   UNL d   1     -48.508  13.032  22.031  0.00  0.00     0.084 C 
BRANCH  21  22
ATOM     22  C   UNL d   1     -48.909  12.674  22.385  0.00  0.00     0.018 A 
ATOM     23  C   UNL d   1     -49.219  11.955  22.017  0.00  0.00     0.004 A 
ATOM     24  C   UNL d   1     -49.762  11.442  22.457  0.00  0.00     0.030 A 
ATOM     25  C   UNL d   1     -49.991  11.650  23.259  0.00  0.00     0.140 A 
ATOM     26  C   UNL d   1     -49.689  12.362  23.634  0.00  0.00     0.030 A 
ATOM     27  F   UNL d   1     -50.521  11.150  23.687  0.00  0.00    -0.204 F 
ATOM     28  C   UNL d   1     -49.142  12.882  23.195  0.00  0.00     0.004 A 
ENDBRANCH  21  22
ENDBRANCH   1  21
TORSDOF 4
ENDMDL
MODEL 2
REMARK VINA RESULT:      -6.4      7.288      9.163
REMARK  4 active torsions:
REMARK  status: ('A' for Active; 'I' for Inactive)
REMARK    1  A    between atoms: C_9  and  N_1 
REMARK    2  A    between atoms: C_6  and  C_2 
REMARK       I    between atoms: N_8  and  C_6 
REMARK    3  A    between atoms: C_15  and  N_8 
REMARK    4  A    between atoms: C_13  and  C_9 
ROOT
ATOM      1  N   UNL d   1     -39.093  14.484  20.875  0.00  0.00    -0.258 N 
ATOM      2  C   UNL d   1     -38.622  13.979  19.709  0.00  0.00     0.114 A 
ATOM      3  C   UNL d   1     -39.041  14.518  20.092  0.00  0.00     0.270 A 
ATOM      4  C   UNL d   1     -38.730  13.917  21.272  0.00  0.00     0.150 A 
ATOM      5  C   UNL d   1     -38.256  13.410  20.104  0.00  0.00     0.013 A 
ATOM      6  C   UNL d   1     -38.312  13.382  20.882  0.00  0.00     0.035 A 
ATOM      7  N   UNL d   1     -38.784  13.888  22.040  0.00  0.00    -0.227 NA
ATOM      8  O   UNL d   1     -39.249  14.888  19.537  0.00  0.00    -0.266 OA
ATOM      9  C   UNL d   1     -37.944  12.810  21.275  0.00  0.00     0.005 A 
ATOM     10  C   UNL d   1     -38.425  13.328  22.436  0.00  0.00     0.101 A 
ATOM     11  C   UNL d   1     -38.006  12.789  22.053  0.00  0.00     0.021 A 
ENDROOT
BRANCH   2  12
ATOM     12  C   UNL d   1     -38.567  14.009  18.927  0.00  0.00     0.284 C 
ATOM     13  N   UNL d   1     -39.037  13.695  18.316  0.00  0.00    -0.208 NA
ATOM     14  O   UNL d   1     -38.044  14.351  18.934  0.00  0.00    -0.265 OA
BRANCH  13  15
ATOM     15  C   UNL d   1     -38.824  13.828  17.505  0.00  0.00     0.085 A 
ATOM     16  C   UNL d   1     -38.197  13.408  17.160  0.00  0.00     0.019 A 
ATOM     17  C   UNL d   1     -38.000  13.548  16.370  0.00  0.00     0.002 A 
ATOM     18  C   UNL d   1     -38.424  14.100  15.928  0.00  0.00     0.000 A 
ATOM     19  C   UNL d   1     -39.052  14.527  16.258  0.00  0.00     0.002 A 
ATOM     20  C   UNL d   1     -39.250  14.385  17.057  0.00  0.00     0.019 A 
ENDBRANCH  13  15
ENDBRANCH   2  12
BRANCH   1  21
ATOM     21  C   UNL d   1     -39.540  15.057  21.287  0.00  0.00     0.084 C 
BRANCH  21  22
ATOM     22  C   UNL d   1     -40.178  15.079  21.208  0.00  0.00     0.018 A 
ATOM     23  C   UNL d   1     -40.520  15.845  20.996  0.00  0.00     0.004 A 
ATOM     24  C   UNL d   1     -41.375  15.922  20.880  0.00  0.00     0.030 A 
ATOM     25  C   UNL d   1     -41.882  15.235  20.975  0.00  0.00     0.140 A 
ATOM     26  C   UNL d   1     -41.554  14.469  21.185  0.00  0.00     0.030 A 
ATOM     27  F   UNL d   1     -42.716  15.309  20.861  0.00  0.00    -0.204 F 
ATOM     28  C   UNL d   1     -40.692  14.387  21.303  0.00  0.00     0.004 A 
ENDBRANCH  21  22
ENDBRANCH   1  21
TORSDOF 4
ENDMDL
MODEL 3
REMARK VINA RESULT:      -6.1      8.678      9.574
REMARK  4 active torsions:
REMARK  status: ('A' for Active; 'I' for Inactive)
REMARK    1  A    between atoms: C_9  and  N_1 
REMARK    2  A    between atoms: C_6  and  C_2 
REMARK       I    between atoms: N_8  and  C_6 
REMARK    3  A    between atoms: C_15  and  N_8 
REMARK    4  A    between atoms: C_13  and  C_9 
ROOT
ATOM      1  N   UNL d   1     -38.995  14.793  18.278  0.00  0.00    -0.258 N 
ATOM      2  C   UNL d   1     -39.389  15.184  19.514  0.00  0.00     0.114 A 
ATOM      3  C   UNL d   1     -38.864  14.833  19.052  0.00  0.00     0.270 A 
ATOM      4  C   UNL d   1     -39.643  15.100  17.970  0.00  0.00     0.150 A 
ATOM      5  C   UNL d   1     -40.040  15.494  19.208  0.00  0.00     0.013 A 
ATOM      6  C   UNL d   1     -40.164  15.450  18.438  0.00  0.00     0.035 A 
ATOM      7  N   UNL d   1     -39.767  15.058  17.210  0.00  0.00    -0.227 NA
ATOM      8  O   UNL d   1     -38.405  14.655  19.548  0.00  0.00    -0.266 OA
ATOM      9  C   UNL d   1     -40.818  15.761  18.135  0.00  0.00     0.005 A 
ATOM     10  C   UNL d   1     -40.408  15.361  16.901  0.00  0.00     0.101 A 
ATOM     11  C   UNL d   1     -40.934  15.713  17.363  0.00  0.00     0.021 A 
ENDROOT
BRANCH   2  12
ATOM     12  C   UNL d   1     -39.264  15.227  20.287  0.00  0.00     0.284 C 
ATOM     13  N   UNL d   1     -39.586  14.816  20.936  0.00  0.00    -0.208 NA
ATOM     14  O   UNL d   1     -38.836  15.680  20.237  0.00  0.00    -0.265 OA
BRANCH  13  15
ATOM     15  C   UNL d   1     -39.327  14.995  21.724  0.00  0.00     0.085 A 
ATOM     16  C   UNL d   1     -38.880  14.446  22.156  0.00  0.00     0.019 A 
ATOM     17  C   UNL d   1     -38.636  14.634  22.922  0.00  0.00     0.002 A 
ATOM     18  C   UNL d   1     -38.834  15.362  23.255  0.00  0.00     0.000 A 
ATOM     19  C   UNL d   1     -39.279  15.921  22.836  0.00  0.00     0.002 A 
ATOM     20  C   UNL d   1     -39.527  15.729  22.061  0.00  0.00     0.019 A 
ENDBRANCH  13  15
ENDBRANCH   2  12
BRANCH   1  21
ATOM     21  C   UNL d   1     -38.437  14.419  17.782  0.00  0.00     0.084 C 
BRANCH  21  22
ATOM     22  C   UNL d   1     -38.370  13.779  17.805  0.00  0.00     0.018 A 
ATOM     23  C   UNL d   1     -38.660  13.331  17.124  0.00  0.00     0.004 A 
ATOM     24  C   UNL d   1     -38.592  12.468  17.111  0.00  0.00     0.030 A 
ATOM     25  C   UNL d   1     -38.234  12.057  17.776  0.00  0.00     0.140 A 
ATOM     26  C   UNL d   1     -37.943  12.492  18.458  0.00  0.00     0.030 A 
ATOM     27  F   UNL d   1     -38.167  11.215  17.764  0.00  0.00    -0.204 F 
ATOM     28  C   UNL d   1     -38.010  13.363  18.476  0.00  0.00     0.004 A 
ENDBRANCH  21  22
ENDBRANCH   1  21
TORSDOF 4
ENDMDL
MODEL 4
REMARK VINA RESULT:      -5.5      1.753      2.884
REMARK  4 active torsions:
REMARK  status: ('A' for Active; 'I' for Inactive)
REMARK    1  A    between atoms: C_9  and  N_1 
REMARK    2  A    between atoms: C_6  and  C_2 
REMARK       I    between atoms: N_8  and  C_6 
REMARK    3  A    between atoms: C_15  and  N_8 
REMARK    4  A    between atoms: C_13  and  C_9 
ROOT
ATOM      1  N   UNL d   1     -48.085  13.150  23.323  0.00  0.00    -0.258 N 
ATOM      2  C   UNL d   1     -46.919  12.561  22.962  0.00  0.00     0.114 A 
ATOM      3  C   UNL d   1     -47.333  13.211  23.103  0.00  0.00     0.270 A 
ATOM      4  C   UNL d   1     -48.420  12.449  23.400  0.00  0.00     0.150 A 
ATOM      5  C   UNL d   1     -47.252  11.856  23.039  0.00  0.00     0.013 A 
ATOM      6  C   UNL d   1     -48.000  11.804  23.257  0.00  0.00     0.035 A 
ATOM      7  N   UNL d   1     -49.158  12.396  23.616  0.00  0.00    -0.227 NA
ATOM      8  O   UNL d   1     -46.829  13.675  22.968  0.00  0.00    -0.266 OA
ATOM      9  C   UNL d   1     -48.331  11.096  23.334  0.00  0.00     0.005 A 
ATOM     10  C   UNL d   1     -49.493  11.702  23.694  0.00  0.00     0.101 A 
ATOM     11  C   UNL d   1     -49.079  11.053  23.553  0.00  0.00     0.021 A 
ENDROOT
BRANCH   2  12
ATOM     12  C   UNL d   1     -46.168  12.615  22.742  0.00  0.00     0.284 C 
ATOM     13  N   UNL d   1     -45.799  12.645  21.996  0.00  0.00    -0.208 NA
ATOM     14  O   UNL d   1     -45.953  12.628  23.328  0.00  0.00    -0.265 OA
BRANCH  13  15
ATOM     15  C   UNL d   1     -44.954  12.705  21.943  0.00  0.00     0.085 A 
ATOM     16  C   UNL d   1     -44.599  13.397  21.651  0.00  0.00     0.019 A 
ATOM     17  C   UNL d   1     -43.775  13.441  21.604  0.00  0.00     0.002 A 
ATOM     18  C   UNL d   1     -43.310  12.805  21.846  0.00  0.00     0.000 A 
ATOM     19  C   UNL d   1     -43.649  12.109  22.140  0.00  0.00     0.002 A 
ATOM     20  C   UNL d   1     -44.483  12.064  22.186  0.00  0.00     0.019 A 
ENDBRANCH  13  15
ENDBRANCH   2  12
BRANCH   1  21
ATOM     21  C   UNL d   1     -48.529  13.841  23.474  0.00  0.00     0.084 C 
BRANCH  21  22
ATOM     22  C   UNL d   1     -48.674  14.238  22.989  0.00  0.00     0.018 A 
ATOM     23  C   UNL d   1     -48.255  14.995  22.965  0.00  0.00     0.004 A 
ATOM     24  C   UNL d   1     -48.417  15.562  22.330  0.00  0.00     0.030 A 
ATOM     25  C   UNL d   1     -48.995  15.370  21.724  0.00  0.00     0.140 A 
ATOM     26  C   UNL d   1     -49.417  14.621  21.737  0.00  0.00     0.030 A 
ATOM     27  F   UNL d   1     -49.154  15.922  21.104  0.00  0.00    -0.204 F 
ATOM     28  C   UNL d   1     -49.257  14.047  22.376  0.00  0.00     0.004 A 
ENDBRANCH  21  22
ENDBRANCH   1  21
TORSDOF 4
ENDMDL
