MODEL 1
REMARK VINA RESULT:      -9.3      0.000      0.000
REMARK  4 active torsions:
REMARK  status: ('A' for Active; 'I' for Inactive)
REMARK    1  A    between atoms: N_5  and  S_1 
REMARK    2  A    between atoms: C_6  and  S_1 
REMARK    3  A    between atoms: N_2  and  C_7 
REMARK    4  A    between atoms: C_18  and  N_5 
ROOT
ATOM      1  C   UNL d   1      50.829  34.127  52.914  0.00  0.00     0.117 A 
ATOM      2  C   UNL d   1      52.246  33.418  53.339  0.00  0.00     0.070 A 
ATOM      3  C   UNL d   1      51.534  34.468  52.698  0.00  0.00     0.015 A 
ATOM      4  C   UNL d   1      50.828  33.424  53.347  0.00  0.00     0.015 A 
ATOM      5  C   UNL d   1      52.246  34.115  52.910  0.00  0.00     0.018 A 
ATOM      6  C   UNL d   1      51.541  33.074  53.557  0.00  0.00     0.018 A 
ENDROOT
BRANCH   1   7
ATOM      7  S   UNL d   1      50.116  34.482  52.701  0.00  0.00     0.327 S 
ATOM      8  O   UNL d   1      50.035  34.774  53.475  0.00  0.00    -0.186 OA
ATOM      9  O   UNL d   1      50.203  34.191  51.943  0.00  0.00    -0.186 OA
BRANCH   7  10
ATOM     10  N   UNL d   1      49.406  34.837  52.496  0.00  0.00    -0.317 NA
BRANCH  10  11
ATOM     11  C   UNL d   1      48.691  35.197  52.297  0.00  0.00     0.145 A 
ATOM     12  C   UNL d   1      48.334  35.739  52.818  0.00  0.00     0.033 A 
ATOM     13  C   UNL d   1      47.619  36.098  52.619  0.00  0.00     0.003 A 
ATOM     14  C   UNL d   1      47.252  35.928  51.909  0.00  0.00     0.000 A 
ATOM     15  C   UNL d   1      47.599  35.387  51.378  0.00  0.00     0.003 A 
ATOM     16  C   UNL d   1      46.534  36.289  51.711  0.00  0.00     0.000 C 
ATOM     17  C   UNL d   1      48.320  35.024  51.578  0.00  0.00     0.033 A 
ENDBRANCH  10  11
ENDBRANCH   7  10
ENDBRANCH   1   7
BRANCH   2  18
ATOM     18  N   UNL d   1      52.958  33.063  53.552  0.00  0.00    -0.242 N 
ATOM     19  C   UNL d   1      53.449  33.289  54.182  0.00  0.00     0.267 A 
ATOM     20  C   UNL d   1      54.105  32.785  54.196  0.00  0.00     0.066 A 
ATOM     21  O   UNL d   1      53.307  33.910  54.706  0.00  0.00    -0.267 OA
ATOM     22  C   UNL d   1      54.022  32.248  53.575  0.00  0.00     0.066 A 
ATOM     23  C   UNL d   1      53.317  32.418  53.179  0.00  0.00     0.267 A 
ATOM     24  O   UNL d   1      53.021  32.011  52.520  0.00  0.00    -0.267 OA
ENDBRANCH   2  18
TORSDOF 4
ENDMDL
MODEL 2
REMARK VINA RESULT:      -7.6      1.243      5.470
REMARK  4 active torsions:
REMARK  status: ('A' for Active; 'I' for Inactive)
REMARK    1  A    between atoms: N_5  and  S_1 
REMARK    2  A    between atoms: C_6  and  S_1 
REMARK    3  A    between atoms: N_2  and  C_7 
REMARK    4  A    between atoms: C_18  and  N_5 
ROOT
ATOM      1  C   UNL d   1      50.154  34.431  52.601  0.00  0.00     0.117 A 
ATOM      2  C   UNL d   1      48.737  35.180  52.250  0.00  0.00     0.070 A 
ATOM      3  C   UNL d   1      49.715  34.769  53.196  0.00  0.00     0.015 A 
ATOM      4  C   UNL d   1      49.884  34.466  51.821  0.00  0.00     0.015 A 
ATOM      5  C   UNL d   1      49.004  35.145  53.023  0.00  0.00     0.018 A 
ATOM      6  C   UNL d   1      49.174  34.843  51.652  0.00  0.00     0.018 A 
ENDROOT
BRANCH   1   7
ATOM      7  S   UNL d   1      50.866  34.055  52.776  0.00  0.00     0.327 S 
ATOM      8  O   UNL d   1      50.500  33.670  53.417  0.00  0.00    -0.186 OA
ATOM      9  O   UNL d   1      51.217  34.436  52.145  0.00  0.00    -0.186 OA
BRANCH   7  10
ATOM     10  N   UNL d   1      51.570  33.676  52.955  0.00  0.00    -0.317 NA
BRANCH  10  11
ATOM     11  C   UNL d   1      52.276  33.292  53.139  0.00  0.00     0.145 A 
ATOM     12  C   UNL d   1      52.390  32.496  52.921  0.00  0.00     0.033 A 
ATOM     13  C   UNL d   1      53.096  32.111  53.105  0.00  0.00     0.003 A 
ATOM     14  C   UNL d   1      53.692  32.504  53.504  0.00  0.00     0.000 A 
ATOM     15  C   UNL d   1      53.590  33.301  53.728  0.00  0.00     0.003 A 
ATOM     16  C   UNL d   1      54.399  32.116  53.688  0.00  0.00     0.000 C 
ATOM     17  C   UNL d   1      52.878  33.689  53.543  0.00  0.00     0.033 A 
ENDBRANCH  10  11
ENDBRANCH   7  10
ENDBRANCH   1   7
BRANCH   2  18
ATOM     18  N   UNL d   1      48.025  35.557  52.076  0.00  0.00    -0.242 N 
ATOM     19  C   UNL d   1      47.459  35.303  51.526  0.00  0.00     0.267 A 
ATOM     20  C   UNL d   1      46.832  35.844  51.528  0.00  0.00     0.066 A 
ATOM     21  O   UNL d   1      47.510  34.627  51.056  0.00  0.00    -0.267 OA
ATOM     22  C   UNL d   1      47.009  36.431  52.078  0.00  0.00     0.066 A 
ATOM     23  C   UNL d   1      47.743  36.257  52.416  0.00  0.00     0.267 A 
ATOM     24  O   UNL d   1      48.129  36.706  52.996  0.00  0.00    -0.267 OA
ENDBRANCH   2  18
TORSDOF 4
ENDMDL
