MODEL 1
REMARK VINA RESULT:      -5.2      0.000      0.000
REMARK  3 active torsions:
REMARK  status: ('A' for Active; 'I' for Inactive)
REMARK    1  A    between atoms: C_2  and  C_1 
REMARK    2  A    between atoms: N_3  and  C_1 
REMARK    3  A    between atoms: C_13  and  N_3 
ROOT
ATOM      1  C   UNL d   1      57.813   0.019  30.594  0.00  0.00     0.030 A 
ATOM      2  C   UNL d   1      58.527  -0.772  29.632  0.00  0.00     0.119 A 
ATOM      3  C   UNL d   1      58.134  -0.712  30.353  0.00  0.00     0.029 A 
ATOM      4  C   UNL d   1      58.600  -0.102  29.153  0.00  0.00     0.119 A 
ATOM      5  O   UNL d   1      58.908  -1.430  29.239  0.00  0.00    -0.300 OA
ATOM      6  O   UNL d   1      59.031  -0.352  28.455  0.00  0.00    -0.300 OA
ATOM      7  C   UNL d   1      59.194  -1.130  28.539  0.00  0.00     0.304 A 
ATOM      8  C   UNL d   1      57.890   0.681  30.112  0.00  0.00     0.004 A 
ATOM      9  C   UNL d   1      58.282   0.621  29.391  0.00  0.00     0.026 A 
ENDROOT
BRANCH   1  10
ATOM     10  C   UNL d   1      57.421   0.079  31.315  0.00  0.00     0.136 C 
ATOM     11  S   UNL d   1      57.782   0.458  31.953  0.00  0.00    -0.057 SA
BRANCH  10  12
ATOM     12  N   UNL d   1      56.656  -0.246  31.397  0.00  0.00    -0.235 NA
BRANCH  12  13
ATOM     13  C   UNL d   1      56.293  -0.261  32.140  0.00  0.00     0.082 A 
ATOM     14  C   UNL d   1      56.262  -0.961  32.565  0.00  0.00     0.019 A 
ATOM     15  C   UNL d   1      55.898  -0.976  33.308  0.00  0.00     0.002 A 
ATOM     16  C   UNL d   1      55.569  -0.286  33.619  0.00  0.00     0.000 A 
ATOM     17  C   UNL d   1      55.603   0.419  33.187  0.00  0.00     0.002 A 
ATOM     18  C   UNL d   1      55.965   0.431  32.448  0.00  0.00     0.019 A 
ENDBRANCH  12  13
ENDBRANCH  10  12
ENDBRANCH   1  10
TORSDOF 3
ENDMDL
MODEL 2
REMARK VINA RESULT:      -4.6      1.070      1.517
REMARK  3 active torsions:
REMARK  status: ('A' for Active; 'I' for Inactive)
REMARK    1  A    between atoms: C_2  and  C_1 
REMARK    2  A    between atoms: N_3  and  C_1 
REMARK    3  A    between atoms: C_13  and  N_3 
ROOT
ATOM      1  C   UNL d   1      57.118  -0.029  31.664  0.00  0.00     0.030 A 
ATOM      2  C   UNL d   1      57.748  -0.724  30.577  0.00  0.00     0.119 A 
ATOM      3  C   UNL d   1      57.239  -0.726  31.224  0.00  0.00     0.029 A 
ATOM      4  C   UNL d   1      58.137  -0.023  30.370  0.00  0.00     0.119 A 
ATOM      5  O   UNL d   1      57.982  -1.337  30.027  0.00  0.00    -0.300 OA
ATOM      6  O   UNL d   1      58.616  -0.209  29.683  0.00  0.00    -0.300 OA
ATOM      7  C   UNL d   1      58.502  -0.982  29.511  0.00  0.00     0.304 A 
ATOM      8  C   UNL d   1      57.508   0.664  31.451  0.00  0.00     0.004 A 
ATOM      9  C   UNL d   1      58.017   0.667  30.805  0.00  0.00     0.026 A 
ENDROOT
BRANCH   1  10
ATOM     10  C   UNL d   1      56.610  -0.032  32.310  0.00  0.00     0.136 C 
ATOM     11  S   UNL d   1      56.266  -0.740  32.563  0.00  0.00    -0.057 SA
BRANCH  10  12
ATOM     12  N   UNL d   1      56.443   0.682  32.709  0.00  0.00    -0.235 NA
BRANCH  12  13
ATOM     13  C   UNL d   1      55.960   0.676  33.380  0.00  0.00     0.082 A 
ATOM     14  C   UNL d   1      56.298   0.671  34.126  0.00  0.00     0.019 A 
ATOM     15  C   UNL d   1      55.816   0.666  34.798  0.00  0.00     0.002 A 
ATOM     16  C   UNL d   1      54.995   0.664  34.714  0.00  0.00     0.000 A 
ATOM     17  C   UNL d   1      54.657   0.668  33.959  0.00  0.00     0.002 A 
ATOM     18  C   UNL d   1      55.140   0.674  33.292  0.00  0.00     0.019 A 
ENDBRANCH  12  13
ENDBRANCH  10  12
ENDBRANCH   1  10
TORSDOF 3
ENDMDL
MODEL 3
REMARK VINA RESULT:      -3.6      2.620      4.690
REMARK  3 active torsions:
REMARK  status: ('A' for Active; 'I' for Inactive)
REMARK    1  A    between atoms: C_2  and  C_1 
REMARK    2  A    between atoms: N_3  and  C_1 
REMARK    3  A    between atoms: C_13  and  N_3 
ROOT
ATOM      1  C   UNL d   1      56.226   0.397  33.209  0.00  0.00     0.030 A 
ATOM      2  C   UNL d   1      56.001   0.563  34.617  0.00  0.00     0.119 A 
ATOM      3  C   UNL d   1      56.521   0.510  33.980  0.00  0.00     0.029 A 
ATOM      4  C   UNL d   1      55.187   0.503  34.482  0.00  0.00     0.119 A 
ATOM      5  O   UNL d   1      56.130   0.676  35.456  0.00  0.00    -0.300 OA
ATOM      6  O   UNL d   1      54.811   0.580  35.249  0.00  0.00    -0.300 OA
ATOM      7  C   UNL d   1      55.389   0.679  35.792  0.00  0.00     0.304 A 
ATOM      8  C   UNL d   1      55.415   0.338  33.083  0.00  0.00     0.004 A 
ATOM      9  C   UNL d   1      54.895   0.390  33.719  0.00  0.00     0.026 A 
ENDROOT
BRANCH   1  10
ATOM     10  C   UNL d   1      56.745   0.344  32.573  0.00  0.00     0.136 C 
ATOM     11  S   UNL d   1      57.498   0.682  32.624  0.00  0.00    -0.057 SA
BRANCH  10  12
ATOM     12  N   UNL d   1      56.509  -0.051  31.878  0.00  0.00    -0.235 NA
BRANCH  12  13
ATOM     13  C   UNL d   1      57.064  -0.212  31.286  0.00  0.00     0.082 A 
ATOM     14  C   UNL d   1      57.291   0.379  30.767  0.00  0.00     0.019 A 
ATOM     15  C   UNL d   1      57.846   0.218  30.176  0.00  0.00     0.002 A 
ATOM     16  C   UNL d   1      58.169  -0.538  30.110  0.00  0.00     0.000 A 
ATOM     17  C   UNL d   1      57.937  -1.134  30.636  0.00  0.00     0.002 A 
ATOM     18  C   UNL d   1      57.384  -0.970  31.224  0.00  0.00     0.019 A 
ENDBRANCH  12  13
ENDBRANCH  10  12
ENDBRANCH   1  10
TORSDOF 3
ENDMDL
