MODEL 1
REMARK VINA RESULT:     -10.1      0.000      0.000
REMARK  4 active torsions:
REMARK  status: ('A' for Active; 'I' for Inactive)
REMARK    1  A    between atoms: N_9  and  C_1 
REMARK    2  A    between atoms: C_5  and  O_12 
REMARK    3  A    between atoms: C_13  and  N_9 
REMARK    4  A    between atoms: O_12  and  C_17 
ROOT
ATOM      1  C   UNL d   1      53.517  31.973  53.341  0.00  0.00     0.083 A 
ATOM      2  C   UNL d   1      53.144  30.367  53.462  0.00  0.00     0.102 A 
ATOM      3  C   UNL d   1      52.719  31.735  53.381  0.00  0.00     0.021 A 
ATOM      4  C   UNL d   1      54.123  31.414  53.361  0.00  0.00     0.021 A 
ATOM      5  C   UNL d   1      52.536  30.934  53.442  0.00  0.00     0.026 A 
ATOM      6  C   UNL d   1      53.933  30.610  53.422  0.00  0.00     0.026 A 
ENDROOT
BRANCH   1   7
ATOM      7  N   UNL d   1      53.698  32.782  53.280  0.00  0.00    -0.227 NA
BRANCH   7   8
ATOM      8  C   UNL d   1      53.905  33.208  53.957  0.00  0.00     0.169 A 
ATOM      9  C   UNL d   1      53.586  33.908  54.092  0.00  0.00     0.094 A 
ATOM     10  C   UNL d   1      53.788  34.309  54.739  0.00  0.00     0.190 A 
ATOM     11  C   UNL d   1      52.746  34.920  53.727  0.00  0.00     0.128 A 
ATOM     12  N   UNL d   1      53.463  35.013  54.869  0.00  0.00    -0.128 NA
ATOM     13  N   UNL d   1      54.299  34.018  55.241  0.00  0.00    -0.203 NA
ATOM     14  N   UNL d   1      52.949  35.321  54.374  0.00  0.00    -0.145 NA
ATOM     15  C   UNL d   1      54.624  33.313  55.111  0.00  0.00     0.202 A 
ATOM     16  N   UNL d   1      54.426  32.907  54.466  0.00  0.00    -0.205 NA
ENDBRANCH   7   8
ENDBRANCH   1   7
BRANCH   2  17
ATOM     17  O   UNL d   1      52.961  29.566  53.523  0.00  0.00    -0.253 OA
BRANCH  17  18
ATOM     18  C   UNL d   1      53.163  29.153  54.209  0.00  0.00     0.530 C 
ATOM     19  F   UNL d   1      52.680  29.192  54.880  0.00  0.00    -0.144 F 
ATOM     20  F   UNL d   1      53.852  28.700  54.222  0.00  0.00    -0.144 F 
ATOM     21  F   UNL d   1      53.475  28.525  55.245  0.00  0.00    -0.144 F 
ENDBRANCH  17  18
ENDBRANCH   2  17
TORSDOF 4
ENDMDL
MODEL 2
REMARK VINA RESULT:      -9.8      3.101      4.562
REMARK  4 active torsions:
REMARK  status: ('A' for Active; 'I' for Inactive)
REMARK    1  A    between atoms: N_9  and  C_1 
REMARK    2  A    between atoms: C_5  and  O_12 
REMARK    3  A    between atoms: C_13  and  N_9 
REMARK    4  A    between atoms: O_12  and  C_17 
ROOT
ATOM      1  C   UNL d   1      54.201  32.314  54.176  0.00  0.00     0.083 A 
ATOM      2  C   UNL d   1      54.158  33.879  54.707  0.00  0.00     0.102 A 
ATOM      3  C   UNL d   1      53.912  32.484  54.939  0.00  0.00     0.021 A 
ATOM      4  C   UNL d   1      54.467  32.919  53.683  0.00  0.00     0.021 A 
ATOM      5  C   UNL d   1      53.891  33.265  55.201  0.00  0.00     0.026 A 
ATOM      6  C   UNL d   1      54.444  33.702  53.952  0.00  0.00     0.026 A 
ENDROOT
BRANCH   1   7
ATOM      7  N   UNL d   1      54.220  31.525  53.915  0.00  0.00    -0.227 NA
BRANCH   7   8
ATOM      8  C   UNL d   1      53.554  31.196  53.555  0.00  0.00     0.169 A 
ATOM      9  C   UNL d   1      53.344  30.460  53.715  0.00  0.00     0.094 A 
ATOM     10  C   UNL d   1      52.708  30.153  53.367  0.00  0.00     0.190 A 
ATOM     11  C   UNL d   1      53.549  29.286  54.379  0.00  0.00     0.128 A 
ATOM     12  N   UNL d   1      52.503  29.412  53.533  0.00  0.00    -0.128 NA
ATOM     13  N   UNL d   1      52.289  30.571  52.870  0.00  0.00    -0.203 NA
ATOM     14  N   UNL d   1      52.912  28.979  54.031  0.00  0.00    -0.145 NA
ATOM     15  C   UNL d   1      52.494  31.312  52.704  0.00  0.00     0.202 A 
ATOM     16  N   UNL d   1      53.130  31.626  53.048  0.00  0.00    -0.205 NA
ENDBRANCH   7   8
ENDBRANCH   1   7
BRANCH   2  17
ATOM     17  O   UNL d   1      54.138  34.660  54.969  0.00  0.00    -0.253 OA
BRANCH  17  18
ATOM     18  C   UNL d   1      53.477  35.127  54.805  0.00  0.00     0.530 C 
ATOM     19  F   UNL d   1      53.430  35.554  54.096  0.00  0.00    -0.144 F 
ATOM     20  F   UNL d   1      52.862  35.167  55.352  0.00  0.00    -0.144 F 
ATOM     21  F   UNL d   1      52.473  35.833  54.562  0.00  0.00    -0.144 F 
ENDBRANCH  17  18
ENDBRANCH   2  17
TORSDOF 4
ENDMDL
