MODEL 1
REMARK VINA RESULT:      -3.2      0.000      0.000
REMARK  7 active torsions:
REMARK  status: ('A' for Active; 'I' for Inactive)
REMARK    1  A    between atoms: C_2  and  S_1 
REMARK    2  A    between atoms: N_3  and  S_1 
REMARK    3  A    between atoms: C_15  and  N_3 
REMARK    4  A    between atoms: C_4  and  C_9 
REMARK       I    between atoms: N_5  and  C_4 
REMARK    5  A    between atoms: C_16  and  N_5 
REMARK    6  A    between atoms: C_18  and  C_15 
REMARK    7  A    between atoms: C_17  and  C_16 
ROOT
ATOM      1  C   UNL d   1      32.862  21.853 -20.980  0.00  0.00     0.058 A 
ATOM      2  C   UNL d   1      33.089  21.830 -21.787  0.00  0.00     0.005 A 
ATOM      3  C   UNL d   1      32.661  21.151 -20.597  0.00  0.00     0.005 A 
ATOM      4  C   UNL d   1      32.907  20.417 -21.798  0.00  0.00     0.020 A 
ATOM      5  C   UNL d   1      33.108  21.115 -22.183  0.00  0.00     0.002 A 
ATOM      6  C   UNL d   1      32.682  20.433 -21.001  0.00  0.00     0.002 A 
ENDROOT
BRANCH   4   7
ATOM      7  C   UNL d   1      32.929  19.692 -22.208  0.00  0.00     0.112 C 
BRANCH   7   8
ATOM      8  N   UNL d   1      32.928  19.682 -23.034  0.00  0.00    -0.157 NA
BRANCH   8   9
ATOM      9  S   UNL d   1      32.752  18.977 -23.444  0.00  0.00     0.285 S 
ATOM     10  O   UNL d   1      32.264  19.405 -23.967  0.00  0.00    -0.198 OA
ATOM     11  O   UNL d   1      33.240  18.559 -22.917  0.00  0.00    -0.198 OA
BRANCH   9  12
ATOM     12  C   UNL d   1      32.579  18.273 -23.849  0.00  0.00     0.106 A 
ATOM     13  C   UNL d   1      32.711  17.544 -23.493  0.00  0.00     0.024 A 
ATOM     14  C   UNL d   1      32.538  16.847 -23.898  0.00  0.00     0.059 A 
ATOM     15 CL   UNL d   1      32.673  16.110 -23.533  0.00  0.00    -0.082 Cl
ATOM     16  C   UNL d   1      32.232  16.880 -24.659  0.00  0.00     0.011 A 
ATOM     17  C   UNL d   1      32.100  17.609 -25.015  0.00  0.00     0.002 A 
ATOM     18  C   UNL d   1      32.274  18.306 -24.610  0.00  0.00     0.013 A 
ENDBRANCH   9  12
ENDBRANCH   8   9
ENDBRANCH   7   8
ENDBRANCH   4   7
BRANCH   1  19
ATOM     19  C   UNL d   1      32.839  22.576 -20.567  0.00  0.00     0.279 C 
ATOM     20  N   UNL d   1      32.799  22.577 -19.746  0.00  0.00    -0.205 NA
ATOM     21  O   UNL d   1      32.857  23.298 -20.985  0.00  0.00    -0.265 OA
BRANCH  20  22
ATOM     22  C   UNL d   1      32.776  23.294 -19.331  0.00  0.00     0.121 C 
BRANCH  22  23
ATOM     23  C   UNL d   1      32.700  23.284 -18.506  0.00  0.00     0.101 A 
ATOM     24  N   UNL d   1      33.239  22.850 -18.058  0.00  0.00    -0.242 NA
ATOM     25  C   UNL d   1      33.158  22.844 -17.238  0.00  0.00     0.099 A 
ATOM     26  C   UNL d   1      32.553  23.261 -16.870  0.00  0.00     0.021 A 
ATOM     27  C   UNL d   1      32.016  23.694 -17.334  0.00  0.00     0.003 A 
ATOM     28  C   UNL d   1      32.095  23.702 -18.156  0.00  0.00     0.021 A 
ENDBRANCH  22  23
ENDBRANCH  20  22
ENDBRANCH   1  19
TORSDOF 7
ENDMDL
MODEL 2
REMARK VINA RESULT:      -2.5      1.094      1.572
REMARK  7 active torsions:
REMARK  status: ('A' for Active; 'I' for Inactive)
REMARK    1  A    between atoms: C_2  and  S_1 
REMARK    2  A    between atoms: N_3  and  S_1 
REMARK    3  A    between atoms: C_15  and  N_3 
REMARK    4  A    between atoms: C_4  and  C_9 
REMARK       I    between atoms: N_5  and  C_4 
REMARK    5  A    between atoms: C_16  and  N_5 
REMARK    6  A    between atoms: C_18  and  C_15 
REMARK    7  A    between atoms: C_17  and  C_16 
ROOT
ATOM      1  C   UNL d   1      33.040  20.990 -22.067  0.00  0.00     0.058 A 
ATOM      2  C   UNL d   1      33.030  20.783 -22.879  0.00  0.00     0.005 A 
ATOM      3  C   UNL d   1      33.038  20.394 -21.498  0.00  0.00     0.005 A 
ATOM      4  C   UNL d   1      33.016  19.403 -22.527  0.00  0.00     0.020 A 
ATOM      5  C   UNL d   1      33.018  19.995 -23.097  0.00  0.00     0.002 A 
ATOM      6  C   UNL d   1      33.026  19.601 -21.724  0.00  0.00     0.002 A 
ENDROOT
BRANCH   4   7
ATOM      7  C   UNL d   1      33.004  18.602 -22.757  0.00  0.00     0.112 C 
BRANCH   7   8
ATOM      8  N   UNL d   1      32.923  18.399 -23.554  0.00  0.00    -0.157 NA
BRANCH   8   9
ATOM      9  S   UNL d   1      32.569  17.675 -23.768  0.00  0.00     0.285 S 
ATOM     10  O   UNL d   1      33.129  17.266 -23.305  0.00  0.00    -0.198 OA
ATOM     11  O   UNL d   1      32.015  18.091 -24.227  0.00  0.00    -0.198 OA
BRANCH   9  12
ATOM     12  C   UNL d   1      32.214  16.956 -23.983  0.00  0.00     0.106 A 
ATOM     13  C   UNL d   1      31.597  16.646 -23.537  0.00  0.00     0.024 A 
ATOM     14  C   UNL d   1      31.247  15.932 -23.755  0.00  0.00     0.059 A 
ATOM     15 CL   UNL d   1      30.621  15.621 -23.299  0.00  0.00    -0.082 Cl
ATOM     16  C   UNL d   1      31.514  15.528 -24.417  0.00  0.00     0.011 A 
ATOM     17  C   UNL d   1      32.131  15.838 -24.863  0.00  0.00     0.002 A 
ATOM     18  C   UNL d   1      32.481  16.552 -24.646  0.00  0.00     0.013 A 
ENDBRANCH   9  12
ENDBRANCH   8   9
ENDBRANCH   7   8
ENDBRANCH   4   7
BRANCH   1  19
ATOM     19  C   UNL d   1      33.052  21.790 -21.834  0.00  0.00     0.279 C 
ATOM     20  N   UNL d   1      32.908  21.989 -21.049  0.00  0.00    -0.205 NA
ATOM     21  O   UNL d   1      33.210  22.387 -22.394  0.00  0.00    -0.265 OA
BRANCH  20  22
ATOM     22  C   UNL d   1      32.919  22.784 -20.813  0.00  0.00     0.121 C 
BRANCH  22  23
ATOM     23  C   UNL d   1      32.783  22.973 -20.019  0.00  0.00     0.101 A 
ATOM     24  N   UNL d   1      33.241  22.612 -19.435  0.00  0.00    -0.242 NA
ATOM     25  C   UNL d   1      33.100  22.805 -18.646  0.00  0.00     0.099 A 
ATOM     26  C   UNL d   1      32.516  23.346 -18.440  0.00  0.00     0.021 A 
ATOM     27  C   UNL d   1      32.062  23.702 -19.039  0.00  0.00     0.003 A 
ATOM     28  C   UNL d   1      32.201  23.511 -19.831  0.00  0.00     0.021 A 
ENDBRANCH  22  23
ENDBRANCH  20  22
ENDBRANCH   1  19
TORSDOF 7
ENDMDL
MODEL 3
REMARK VINA RESULT:      -1.5      2.395      6.567
REMARK  7 active torsions:
REMARK  status: ('A' for Active; 'I' for Inactive)
REMARK    1  A    between atoms: C_2  and  S_1 
REMARK    2  A    between atoms: N_3  and  S_1 
REMARK    3  A    between atoms: C_15  and  N_3 
REMARK    4  A    between atoms: C_4  and  C_9 
REMARK       I    between atoms: N_5  and  C_4 
REMARK    5  A    between atoms: C_16  and  N_5 
REMARK    6  A    between atoms: C_18  and  C_15 
REMARK    7  A    between atoms: C_17  and  C_16 
ROOT
ATOM      1  C   UNL d   1      32.669  19.340 -23.562  0.00  0.00     0.058 A 
ATOM      2  C   UNL d   1      33.047  20.004 -23.906  0.00  0.00     0.005 A 
ATOM      3  C   UNL d   1      32.403  19.384 -22.783  0.00  0.00     0.005 A 
ATOM      4  C   UNL d   1      32.882  20.728 -22.690  0.00  0.00     0.020 A 
ATOM      5  C   UNL d   1      33.148  20.686 -23.467  0.00  0.00     0.002 A 
ATOM      6  C   UNL d   1      32.508  20.075 -22.345  0.00  0.00     0.002 A 
ENDROOT
BRANCH   4   7
ATOM      7  C   UNL d   1      32.988  21.427 -22.249  0.00  0.00     0.112 C 
BRANCH   7   8
ATOM      8  N   UNL d   1      33.241  21.387 -21.463  0.00  0.00    -0.157 NA
BRANCH   8   9
ATOM      9  S   UNL d   1      33.004  21.972 -20.917  0.00  0.00     0.285 S 
ATOM     10  O   UNL d   1      33.178  22.564 -21.478  0.00  0.00    -0.198 OA
ATOM     11  O   UNL d   1      32.833  21.375 -20.365  0.00  0.00    -0.198 OA
BRANCH   9  12
ATOM     12  C   UNL d   1      32.767  22.550 -20.371  0.00  0.00     0.106 A 
ATOM     13  C   UNL d   1      33.119  22.592 -19.629  0.00  0.00     0.024 A 
ATOM     14  C   UNL d   1      32.881  23.168 -19.089  0.00  0.00     0.059 A 
ATOM     15 CL   UNL d   1      33.240  23.207 -18.338  0.00  0.00    -0.082 Cl
ATOM     16  C   UNL d   1      32.291  23.702 -19.291  0.00  0.00     0.011 A 
ATOM     17  C   UNL d   1      31.939  23.660 -20.033  0.00  0.00     0.002 A 
ATOM     18  C   UNL d   1      32.177  23.084 -20.573  0.00  0.00     0.013 A 
ENDBRANCH   9  12
ENDBRANCH   8   9
ENDBRANCH   7   8
ENDBRANCH   4   7
BRANCH   1  19
ATOM     19  C   UNL d   1      32.561  18.640 -24.000  0.00  0.00     0.279 C 
ATOM     20  N   UNL d   1      31.808  18.322 -24.084  0.00  0.00    -0.205 NA
ATOM     21  O   UNL d   1      33.216  18.262 -24.353  0.00  0.00    -0.265 OA
BRANCH  20  22
ATOM     22  C   UNL d   1      31.696  17.625 -24.519  0.00  0.00     0.121 C 
BRANCH  22  23
ATOM     23  C   UNL d   1      30.935  17.307 -24.589  0.00  0.00     0.101 A 
ATOM     24  N   UNL d   1      30.777  16.565 -24.266  0.00  0.00    -0.242 NA
ATOM     25  C   UNL d   1      30.017  16.255 -24.339  0.00  0.00     0.099 A 
ATOM     26  C   UNL d   1      29.425  16.673 -24.725  0.00  0.00     0.021 A 
ATOM     27  C   UNL d   1      29.597  17.421 -25.046  0.00  0.00     0.003 A 
ATOM     28  C   UNL d   1      30.358  17.734 -24.975  0.00  0.00     0.021 A 
ENDBRANCH  22  23
ENDBRANCH  20  22
ENDBRANCH   1  19
TORSDOF 7
ENDMDL
