MODEL 1
REMARK VINA RESULT:      16.7      0.000      0.000
REMARK  3 active torsions:
REMARK  status: ('A' for Active; 'I' for Inactive)
REMARK    1  A    between atoms: C_2  and  S_1 
REMARK    2  A    between atoms: N_3  and  S_1 
REMARK    3  A    between atoms: C_4  and  N_3 
ROOT
ATOM      1  C   UNL d   1      46.267 -17.924  43.740  0.00  0.00     0.094 A 
ATOM      2  C   UNL d   1      46.369 -18.582  43.248  0.00  0.00     0.021 A 
ATOM      3  C   UNL d   1      46.382 -19.304  43.568  0.00  0.00     0.040 A 
ATOM      4  C   UNL d   1      46.295 -19.401  44.382  0.00  0.00     0.196 A 
ATOM      5  C   UNL d   1      46.181 -18.017  44.543  0.00  0.00     0.023 A 
ATOM      6  C   UNL d   1      46.193 -18.742  44.875  0.00  0.00     0.044 A 
ATOM      7  O   UNL d   1      46.313 -20.189  44.694  0.00  0.00    -0.287 OA
ATOM      8  C   UNL d   1      46.456 -18.486  42.433  0.00  0.00     0.002 A 
ATOM      9  C   UNL d   1      46.487 -19.997  43.065  0.00  0.00     0.003 A 
ATOM     10  C   UNL d   1      46.573 -19.905  42.262  0.00  0.00     0.000 A 
ATOM     11  C   UNL d   1      46.559 -19.150  41.939  0.00  0.00     0.000 A 
ENDROOT
BRANCH   1  12
ATOM     12  N   UNL d   1      46.252 -17.158  43.421  0.00  0.00    -0.158 NA
BRANCH  12  13
ATOM     13  S   UNL d   1      45.948 -16.526  43.861  0.00  0.00     0.291 S 
ATOM     14  O   UNL d   1      46.647 -16.505  44.317  0.00  0.00    -0.198 OA
ATOM     15  O   UNL d   1      45.270 -16.538  43.427  0.00  0.00    -0.198 OA
BRANCH  13  16
ATOM     16  C   UNL d   1      45.625 -15.902  44.281  0.00  0.00     0.135 A 
ATOM     17  S   UNL d   1      46.023 -15.252  44.508  0.00  0.00    -0.073 SA
ATOM     18  C   UNL d   1      45.522 -14.735  44.923  0.00  0.00     0.036 A 
ATOM     19  C   UNL d   1      44.794 -15.079  44.950  0.00  0.00     0.008 A 
ATOM     20  C   UNL d   1      44.831 -15.809  44.556  0.00  0.00     0.020 A 
ENDBRANCH  13  16
ENDBRANCH  12  13
ENDBRANCH   1  12
TORSDOF 3
ENDMDL
MODEL 2
REMARK VINA RESULT:      19.3      1.856      4.902
REMARK  3 active torsions:
REMARK  status: ('A' for Active; 'I' for Inactive)
REMARK    1  A    between atoms: C_2  and  S_1 
REMARK    2  A    between atoms: N_3  and  S_1 
REMARK    3  A    between atoms: C_4  and  N_3 
ROOT
ATOM      1  C   UNL d   1      45.337 -14.376  44.451  0.00  0.00     0.094 A 
ATOM      2  C   UNL d   1      45.658 -13.613  44.452  0.00  0.00     0.021 A 
ATOM      3  C   UNL d   1      45.357 -13.067  43.967  0.00  0.00     0.040 A 
ATOM      4  C   UNL d   1      44.729 -13.256  43.466  0.00  0.00     0.196 A 
ATOM      5  C   UNL d   1      44.718 -14.565  43.959  0.00  0.00     0.023 A 
ATOM      6  C   UNL d   1      44.407 -14.020  43.466  0.00  0.00     0.044 A 
ATOM      7  O   UNL d   1      44.428 -12.649  42.958  0.00  0.00    -0.287 OA
ATOM      8  C   UNL d   1      46.286 -13.423  44.953  0.00  0.00     0.002 A 
ATOM      9  C   UNL d   1      45.683 -12.270  43.959  0.00  0.00     0.003 A 
ATOM     10  C   UNL d   1      46.302 -12.080  44.451  0.00  0.00     0.000 A 
ATOM     11  C   UNL d   1      46.608 -12.654  44.952  0.00  0.00     0.000 A 
ENDROOT
BRANCH   1  12
ATOM     12  N   UNL d   1      45.642 -14.962  44.955  0.00  0.00    -0.158 NA
BRANCH  12  13
ATOM     13  S   UNL d   1      45.713 -15.744  44.694  0.00  0.00     0.291 S 
ATOM     14  O   UNL d   1      44.907 -15.877  44.866  0.00  0.00    -0.198 OA
ATOM     15  O   UNL d   1      46.491 -15.626  44.524  0.00  0.00    -0.198 OA
BRANCH  13  16
ATOM     16  C   UNL d   1      45.810 -16.513  44.430  0.00  0.00     0.135 A 
ATOM     17  S   UNL d   1      45.808 -17.157  44.896  0.00  0.00    -0.073 SA
ATOM     18  C   UNL d   1      45.921 -17.844  44.442  0.00  0.00     0.036 A 
ATOM     19  C   UNL d   1      45.994 -17.614  43.674  0.00  0.00     0.008 A 
ATOM     20  C   UNL d   1      45.929 -16.786  43.639  0.00  0.00     0.020 A 
ENDBRANCH  13  16
ENDBRANCH  12  13
ENDBRANCH   1  12
TORSDOF 3
ENDMDL
