MODEL 1
REMARK VINA RESULT:      -7.7      0.000      0.000
REMARK  7 active torsions:
REMARK  status: ('A' for Active; 'I' for Inactive)
REMARK    1  A    between atoms: C_2  and  C_1 
REMARK    2  A    between atoms: O_12  and  C_1 
REMARK       I    between atoms: C_3  and  N_4 
REMARK    3  A    between atoms: C_11  and  C_3 
REMARK    4  A    between atoms: N_4  and  C_7 
REMARK    5  A    between atoms: C_5  and  C_13 
REMARK    6  A    between atoms: O_14  and  C_5 
REMARK    7  A    between atoms: C_13  and  C_11 
ROOT
ATOM      1  C   UNL d   1      54.584  33.360  54.792  0.00  0.00     0.063 A 
ATOM      2  C   UNL d   1      54.365  33.035  54.066  0.00  0.00     0.023 A 
ATOM      3  C   UNL d   1      53.918  32.343  54.024  0.00  0.00     0.059 A 
ATOM      4  C   UNL d   1      54.351  32.983  55.502  0.00  0.00     0.006 A 
ATOM      5  C   UNL d   1      53.901  32.285  55.459  0.00  0.00     0.002 A 
ATOM      6  C   UNL d   1      53.691  31.976  54.718  0.00  0.00     0.017 A 
ENDROOT
BRANCH   3   7
ATOM      7  N   UNL d   1      53.698  32.019  53.275  0.00  0.00    -0.321 N 
ATOM      8  C   UNL d   1      52.980  32.236  52.935  0.00  0.00     0.258 C 
ATOM      9  O   UNL d   1      52.763  31.917  52.198  0.00  0.00    -0.267 OA
ATOM     10  H   UNL d   1      54.207  31.488  52.897  0.00  0.00     0.169 HD
BRANCH   8  11
ATOM     11  C   UNL d   1      52.463  32.766  53.303  0.00  0.00     0.067 C 
BRANCH  11  12
ATOM     12  C   UNL d   1      51.795  33.046  52.932  0.00  0.00     0.072 C 
BRANCH  12  13
ATOM     13  C   UNL d   1      51.296  33.562  53.322  0.00  0.00     0.178 C 
ATOM     14  O   UNL d   1      51.412  34.374  53.231  0.00  0.00    -0.646 OA
BRANCH  13  15
ATOM     15  O   UNL d   1      50.692  33.283  53.794  0.00  0.00    -0.773 OA
ATOM     16  H   UNL d   1      50.571  33.596  54.528  0.00  0.00     0.167 HD
ENDBRANCH  13  15
ENDBRANCH  12  13
ENDBRANCH  11  12
ENDBRANCH   8  11
ENDBRANCH   3   7
BRANCH   1  17
ATOM     17  C   UNL d   1      55.031  34.053  54.817  0.00  0.00     0.178 C 
ATOM     18  O   UNL d   1      54.641  34.784  54.833  0.00  0.00    -0.646 OA
BRANCH  17  19
ATOM     19  O   UNL d   1      55.843  34.017  54.827  0.00  0.00    -0.773 OA
ATOM     20  H   UNL d   1      56.250  33.464  54.368  0.00  0.00     0.167 HD
ENDBRANCH  17  19
ENDBRANCH   1  17
TORSDOF 7
ENDMDL
MODEL 2
REMARK VINA RESULT:      -7.5      1.442      2.654
REMARK  7 active torsions:
REMARK  status: ('A' for Active; 'I' for Inactive)
REMARK    1  A    between atoms: C_2  and  C_1 
REMARK    2  A    between atoms: O_12  and  C_1 
REMARK       I    between atoms: C_3  and  N_4 
REMARK    3  A    between atoms: C_11  and  C_3 
REMARK    4  A    between atoms: N_4  and  C_7 
REMARK    5  A    between atoms: C_5  and  C_13 
REMARK    6  A    between atoms: O_14  and  C_5 
REMARK    7  A    between atoms: C_13  and  C_11 
ROOT
ATOM      1  C   UNL d   1      53.776  31.741  53.866  0.00  0.00     0.063 A 
ATOM      2  C   UNL d   1      53.649  32.337  54.421  0.00  0.00     0.023 A 
ATOM      3  C   UNL d   1      54.106  33.024  54.426  0.00  0.00     0.059 A 
ATOM      4  C   UNL d   1      54.380  31.831  53.292  0.00  0.00     0.006 A 
ATOM      5  C   UNL d   1      54.840  32.523  53.297  0.00  0.00     0.002 A 
ATOM      6  C   UNL d   1      54.695  33.111  53.865  0.00  0.00     0.017 A 
ENDROOT
BRANCH   3   7
ATOM      7  N   UNL d   1      53.967  33.628  55.000  0.00  0.00    -0.321 N 
ATOM      8  C   UNL d   1      53.450  34.245  54.822  0.00  0.00     0.258 C 
ATOM      9  O   UNL d   1      53.314  34.840  55.387  0.00  0.00    -0.267 OA
ATOM     10  H   UNL d   1      54.352  33.590  55.730  0.00  0.00     0.169 HD
BRANCH   8  11
ATOM     11  C   UNL d   1      53.059  34.293  54.095  0.00  0.00     0.067 C 
BRANCH  11  12
ATOM     12  C   UNL d   1      52.579  34.921  53.904  0.00  0.00     0.072 C 
BRANCH  12  13
ATOM     13  C   UNL d   1      51.989  34.831  53.345  0.00  0.00     0.178 C 
ATOM     14  O   UNL d   1      52.193  34.834  52.546  0.00  0.00    -0.646 OA
BRANCH  13  15
ATOM     15  O   UNL d   1      51.211  34.739  53.571  0.00  0.00    -0.773 OA
ATOM     16  H   UNL d   1      50.617  34.825  53.031  0.00  0.00     0.167 HD
ENDBRANCH  13  15
ENDBRANCH  12  13
ENDBRANCH  11  12
ENDBRANCH   8  11
ENDBRANCH   3   7
BRANCH   1  17
ATOM     17  C   UNL d   1      53.311  31.060  53.874  0.00  0.00     0.178 C 
ATOM     18  O   UNL d   1      52.842  30.883  53.214  0.00  0.00    -0.646 OA
BRANCH  17  19
ATOM     19  O   UNL d   1      53.314  30.570  54.523  0.00  0.00    -0.773 OA
ATOM     20  H   UNL d   1      53.262  29.750  54.437  0.00  0.00     0.167 HD
ENDBRANCH  17  19
ENDBRANCH   1  17
TORSDOF 7
ENDMDL
MODEL 3
REMARK VINA RESULT:      -7.5      1.689      3.865
REMARK  7 active torsions:
REMARK  status: ('A' for Active; 'I' for Inactive)
REMARK    1  A    between atoms: C_2  and  C_1 
REMARK    2  A    between atoms: O_12  and  C_1 
REMARK       I    between atoms: C_3  and  N_4 
REMARK    3  A    between atoms: C_11  and  C_3 
REMARK    4  A    between atoms: N_4  and  C_7 
REMARK    5  A    between atoms: C_5  and  C_13 
REMARK    6  A    between atoms: O_14  and  C_5 
REMARK    7  A    between atoms: C_13  and  C_11 
ROOT
ATOM      1  C   UNL d   1      51.296  34.192  53.056  0.00  0.00     0.063 A 
ATOM      2  C   UNL d   1      51.685  34.473  53.726  0.00  0.00     0.023 A 
ATOM      3  C   UNL d   1      52.445  34.791  53.680  0.00  0.00     0.059 A 
ATOM      4  C   UNL d   1      51.677  34.228  52.310  0.00  0.00     0.006 A 
ATOM      5  C   UNL d   1      52.442  34.547  52.264  0.00  0.00     0.002 A 
ATOM      6  C   UNL d   1      52.815  34.824  52.952  0.00  0.00     0.017 A 
ENDROOT
BRANCH   3   7
ATOM      7  N   UNL d   1      52.834  35.076  54.373  0.00  0.00    -0.321 N 
ATOM      8  C   UNL d   1      53.359  34.583  54.774  0.00  0.00     0.258 C 
ATOM      9  O   UNL d   1      53.743  34.864  55.457  0.00  0.00    -0.267 OA
ATOM     10  H   UNL d   1      52.682  35.844  54.638  0.00  0.00     0.169 HD
BRANCH   8  11
ATOM     11  C   UNL d   1      53.520  33.813  54.520  0.00  0.00     0.067 C 
BRANCH  11  12
ATOM     12  C   UNL d   1      54.051  33.333  54.905  0.00  0.00     0.072 C 
BRANCH  12  13
ATOM     13  C   UNL d   1      54.082  32.534  54.733  0.00  0.00     0.178 C 
ATOM     14  O   UNL d   1      54.537  32.281  54.093  0.00  0.00    -0.646 OA
BRANCH  13  15
ATOM     15  O   UNL d   1      53.669  31.994  55.184  0.00  0.00    -0.773 OA
ATOM     16  H   UNL d   1      53.447  31.285  54.869  0.00  0.00     0.167 HD
ENDBRANCH  13  15
ENDBRANCH  12  13
ENDBRANCH  11  12
ENDBRANCH   8  11
ENDBRANCH   3   7
BRANCH   1  17
ATOM     17  C   UNL d   1      50.535  33.878  53.119  0.00  0.00     0.178 C 
ATOM     18  O   UNL d   1      49.898  34.296  52.793  0.00  0.00    -0.646 OA
BRANCH  17  19
ATOM     19  O   UNL d   1      50.416  33.168  53.495  0.00  0.00    -0.773 OA
ATOM     20  H   UNL d   1      50.567  32.452  53.111  0.00  0.00     0.167 HD
ENDBRANCH  17  19
ENDBRANCH   1  17
TORSDOF 7
ENDMDL
MODEL 4
REMARK VINA RESULT:      -7.4      1.570      2.409
REMARK  7 active torsions:
REMARK  status: ('A' for Active; 'I' for Inactive)
REMARK    1  A    between atoms: C_2  and  C_1 
REMARK    2  A    between atoms: O_12  and  C_1 
REMARK       I    between atoms: C_3  and  N_4 
REMARK    3  A    between atoms: C_11  and  C_3 
REMARK    4  A    between atoms: N_4  and  C_7 
REMARK    5  A    between atoms: C_5  and  C_13 
REMARK    6  A    between atoms: O_14  and  C_5 
REMARK    7  A    between atoms: C_13  and  C_11 
ROOT
ATOM      1  C   UNL d   1      54.273  33.249  54.580  0.00  0.00     0.063 A 
ATOM      2  C   UNL d   1      53.585  33.046  54.173  0.00  0.00     0.023 A 
ATOM      3  C   UNL d   1      53.612  32.774  53.394  0.00  0.00     0.059 A 
ATOM      4  C   UNL d   1      55.016  33.180  54.199  0.00  0.00     0.006 A 
ATOM      5  C   UNL d   1      55.043  32.906  53.415  0.00  0.00     0.002 A 
ATOM      6  C   UNL d   1      54.338  32.707  53.024  0.00  0.00     0.017 A 
ENDROOT
BRANCH   3   7
ATOM      7  N   UNL d   1      52.902  32.568  52.986  0.00  0.00    -0.321 N 
ATOM      8  C   UNL d   1      52.674  31.777  52.943  0.00  0.00     0.258 C 
ATOM      9  O   UNL d   1      51.974  31.574  52.542  0.00  0.00    -0.267 OA
ATOM     10  H   UNL d   1      52.447  33.163  52.637  0.00  0.00     0.169 HD
BRANCH   8  11
ATOM     11  C   UNL d   1      53.120  31.173  53.289  0.00  0.00     0.067 C 
BRANCH  11  12
ATOM     12  C   UNL d   1      52.943  30.387  53.177  0.00  0.00     0.072 C 
BRANCH  12  13
ATOM     13  C   UNL d   1      53.148  29.836  53.745  0.00  0.00     0.178 C 
ATOM     14  O   UNL d   1      53.913  29.528  53.744  0.00  0.00    -0.646 OA
BRANCH  13  15
ATOM     15  O   UNL d   1      52.607  29.592  54.305  0.00  0.00    -0.773 OA
ATOM     16  H   UNL d   1      52.475  30.037  54.965  0.00  0.00     0.167 HD
ENDBRANCH  13  15
ENDBRANCH  12  13
ENDBRANCH  11  12
ENDBRANCH   8  11
ENDBRANCH   3   7
BRANCH   1  17
ATOM     17  C   UNL d   1      54.229  33.520  55.358  0.00  0.00     0.178 C 
ATOM     18  O   UNL d   1      54.029  34.312  55.499  0.00  0.00    -0.646 OA
BRANCH  17  19
ATOM     19  O   UNL d   1      54.381  33.015  55.976  0.00  0.00    -0.773 OA
ATOM     20  H   UNL d   1      53.819  32.885  56.568  0.00  0.00     0.167 HD
ENDBRANCH  17  19
ENDBRANCH   1  17
TORSDOF 7
ENDMDL
MODEL 5
REMARK VINA RESULT:      -7.2      1.008      3.512
REMARK  7 active torsions:
REMARK  status: ('A' for Active; 'I' for Inactive)
REMARK    1  A    between atoms: C_2  and  C_1 
REMARK    2  A    between atoms: O_12  and  C_1 
REMARK       I    between atoms: C_3  and  N_4 
REMARK    3  A    between atoms: C_11  and  C_3 
REMARK    4  A    between atoms: N_4  and  C_7 
REMARK    5  A    between atoms: C_5  and  C_13 
REMARK    6  A    between atoms: O_14  and  C_5 
REMARK    7  A    between atoms: C_13  and  C_11 
ROOT
ATOM      1  C   UNL d   1      51.522  33.770  53.062  0.00  0.00     0.063 A 
ATOM      2  C   UNL d   1      52.008  33.110  53.150  0.00  0.00     0.023 A 
ATOM      3  C   UNL d   1      52.805  33.132  52.937  0.00  0.00     0.059 A 
ATOM      4  C   UNL d   1      51.840  34.480  52.750  0.00  0.00     0.006 A 
ATOM      5  C   UNL d   1      52.642  34.502  52.536  0.00  0.00     0.002 A 
ATOM      6  C   UNL d   1      53.114  33.825  52.633  0.00  0.00     0.017 A 
ENDROOT
BRANCH   3   7
ATOM      7  N   UNL d   1      53.294  32.450  53.032  0.00  0.00    -0.321 N 
ATOM      8  C   UNL d   1      53.840  32.426  53.649  0.00  0.00     0.258 C 
ATOM      9  O   UNL d   1      54.323  31.754  53.742  0.00  0.00    -0.267 OA
ATOM     10  H   UNL d   1      53.217  31.818  52.504  0.00  0.00     0.169 HD
BRANCH   8  11
ATOM     11  C   UNL d   1      53.927  33.051  54.183  0.00  0.00     0.067 C 
BRANCH  11  12
ATOM     12  C   UNL d   1      54.379  32.985  54.856  0.00  0.00     0.072 C 
BRANCH  12  13
ATOM     13  C   UNL d   1      54.649  33.656  55.236  0.00  0.00     0.178 C 
ATOM     14  O   UNL d   1      54.126  34.085  55.708  0.00  0.00    -0.646 OA
BRANCH  13  15
ATOM     15  O   UNL d   1      55.423  33.901  55.151  0.00  0.00    -0.773 OA
ATOM     16  H   UNL d   1      56.010  33.361  55.031  0.00  0.00     0.167 HD
ENDBRANCH  13  15
ENDBRANCH  12  13
ENDBRANCH  11  12
ENDBRANCH   8  11
ENDBRANCH   3   7
BRANCH   1  17
ATOM     17  C   UNL d   1      50.727  33.732  53.280  0.00  0.00     0.178 C 
ATOM     18  O   UNL d   1      50.159  34.091  52.795  0.00  0.00    -0.646 OA
BRANCH  17  19
ATOM     19  O   UNL d   1      50.507  33.347  53.961  0.00  0.00    -0.773 OA
ATOM     20  H   UNL d   1      50.736  33.630  54.702  0.00  0.00     0.167 HD
ENDBRANCH  17  19
ENDBRANCH   1  17
TORSDOF 7
ENDMDL
MODEL 6
REMARK VINA RESULT:      -7.1      1.771      2.692
REMARK  7 active torsions:
REMARK  status: ('A' for Active; 'I' for Inactive)
REMARK    1  A    between atoms: C_2  and  C_1 
REMARK    2  A    between atoms: O_12  and  C_1 
REMARK       I    between atoms: C_3  and  N_4 
REMARK    3  A    between atoms: C_11  and  C_3 
REMARK    4  A    between atoms: N_4  and  C_7 
REMARK    5  A    between atoms: C_5  and  C_13 
REMARK    6  A    between atoms: O_14  and  C_5 
REMARK    7  A    between atoms: C_13  and  C_11 
ROOT
ATOM      1  C   UNL d   1      52.956  34.713  54.269  0.00  0.00     0.063 A 
ATOM      2  C   UNL d   1      52.303  34.210  54.240  0.00  0.00     0.023 A 
ATOM      3  C   UNL d   1      51.916  34.049  53.530  0.00  0.00     0.059 A 
ATOM      4  C   UNL d   1      53.235  35.070  53.565  0.00  0.00     0.006 A 
ATOM      5  C   UNL d   1      52.845  34.909  52.849  0.00  0.00     0.002 A 
ATOM      6  C   UNL d   1      52.190  34.399  52.843  0.00  0.00     0.017 A 
ENDROOT
BRANCH   3   7
ATOM      7  N   UNL d   1      51.248  33.533  53.511  0.00  0.00    -0.321 N 
ATOM      8  C   UNL d   1      51.361  32.731  53.359  0.00  0.00     0.258 C 
ATOM      9  O   UNL d   1      50.703  32.221  53.340  0.00  0.00    -0.267 OA
ATOM     10  H   UNL d   1      50.493  33.840  53.647  0.00  0.00     0.169 HD
BRANCH   8  11
ATOM     11  C   UNL d   1      52.111  32.412  53.222  0.00  0.00     0.067 C 
BRANCH  11  12
ATOM     12  C   UNL d   1      52.243  31.609  53.204  0.00  0.00     0.072 C 
BRANCH  12  13
ATOM     13  C   UNL d   1      52.961  31.317  52.945  0.00  0.00     0.178 C 
ATOM     14  O   UNL d   1      53.571  31.217  53.492  0.00  0.00    -0.646 OA
BRANCH  13  15
ATOM     15  O   UNL d   1      53.075  31.126  52.161  0.00  0.00    -0.773 OA
ATOM     16  H   UNL d   1      53.820  31.102  51.851  0.00  0.00     0.167 HD
ENDBRANCH  13  15
ENDBRANCH  12  13
ENDBRANCH  11  12
ENDBRANCH   8  11
ENDBRANCH   3   7
BRANCH   1  17
ATOM     17  C   UNL d   1      53.332  34.864  54.988  0.00  0.00     0.178 C 
ATOM     18  O   UNL d   1      54.070  34.516  55.137  0.00  0.00    -0.646 OA
BRANCH  17  19
ATOM     19  O   UNL d   1      52.982  35.346  55.540  0.00  0.00    -0.773 OA
ATOM     20  H   UNL d   1      52.920  36.161  55.415  0.00  0.00     0.167 HD
ENDBRANCH  17  19
ENDBRANCH   1  17
TORSDOF 7
ENDMDL
MODEL 7
REMARK VINA RESULT:      -7.0      2.055      3.126
REMARK  7 active torsions:
REMARK  status: ('A' for Active; 'I' for Inactive)
REMARK    1  A    between atoms: C_2  and  C_1 
REMARK    2  A    between atoms: O_12  and  C_1 
REMARK       I    between atoms: C_3  and  N_4 
REMARK    3  A    between atoms: C_11  and  C_3 
REMARK    4  A    between atoms: N_4  and  C_7 
REMARK    5  A    between atoms: C_5  and  C_13 
REMARK    6  A    between atoms: O_14  and  C_5 
REMARK    7  A    between atoms: C_13  and  C_11 
ROOT
ATOM      1  C   UNL d   1      53.213  29.828  53.969  0.00  0.00     0.063 A 
ATOM      2  C   UNL d   1      53.689  30.501  53.960  0.00  0.00     0.023 A 
ATOM      3  C   UNL d   1      53.689  31.018  53.318  0.00  0.00     0.059 A 
ATOM      4  C   UNL d   1      52.717  29.662  53.315  0.00  0.00     0.006 A 
ATOM      5  C   UNL d   1      52.716  30.184  52.667  0.00  0.00     0.002 A 
ATOM      6  C   UNL d   1      53.204  30.855  52.679  0.00  0.00     0.017 A 
ENDROOT
BRANCH   3   7
ATOM      7  N   UNL d   1      54.181  31.705  53.318  0.00  0.00    -0.321 N 
ATOM      8  C   UNL d   1      53.834  32.451  53.368  0.00  0.00     0.258 C 
ATOM      9  O   UNL d   1      54.319  33.128  53.369  0.00  0.00    -0.267 OA
ATOM     10  H   UNL d   1      55.001  31.617  53.269  0.00  0.00     0.169 HD
BRANCH   8  11
ATOM     11  C   UNL d   1      53.015  32.552  53.418  0.00  0.00     0.067 C 
BRANCH  11  12
ATOM     12  C   UNL d   1      52.676  33.284  53.516  0.00  0.00     0.072 C 
BRANCH  12  13
ATOM     13  C   UNL d   1      51.868  33.376  53.431  0.00  0.00     0.178 C 
ATOM     14  O   UNL d   1      51.565  33.578  52.690  0.00  0.00    -0.646 OA
BRANCH  13  15
ATOM     15  O   UNL d   1      51.366  33.270  54.065  0.00  0.00    -0.773 OA
ATOM     16  H   UNL d   1      50.623  32.977  53.953  0.00  0.00     0.167 HD
ENDBRANCH  13  15
ENDBRANCH  12  13
ENDBRANCH  11  12
ENDBRANCH   8  11
ENDBRANCH   3   7
BRANCH   1  17
ATOM     17  C   UNL d   1      53.225  29.320  54.619  0.00  0.00     0.178 C 
ATOM     18  O   UNL d   1      53.436  28.526  54.507  0.00  0.00    -0.646 OA
BRANCH  17  19
ATOM     19  O   UNL d   1      53.032  29.597  55.359  0.00  0.00    -0.773 OA
ATOM     20  H   UNL d   1      52.524  29.172  55.853  0.00  0.00     0.167 HD
ENDBRANCH  17  19
ENDBRANCH   1  17
TORSDOF 7
ENDMDL
