MODEL 1
REMARK VINA RESULT:      30.8      0.000      0.000
REMARK  2 active torsions:
REMARK  status: ('A' for Active; 'I' for Inactive)
REMARK    1  A    between atoms: C_3  and  C_1 
REMARK       I    between atoms: N_7  and  C_3 
REMARK    2  A    between atoms: C_11  and  N_7 
ROOT
ATOM      1  C   UNL d   1      58.912  49.659  50.205  0.00  0.00     0.121 A 
ATOM      2  C   UNL d   1      58.871  49.675  49.379  0.00  0.00     0.305 A 
ATOM      3  C   UNL d   1      58.217  49.641  50.641  0.00  0.00     0.012 A 
ATOM      4  O   UNL d   1      58.145  49.675  48.990  0.00  0.00    -0.273 OA
ATOM      5  C   UNL d   1      57.483  49.640  50.264  0.00  0.00     0.023 A 
ATOM      6  C   UNL d   1      57.451  49.657  49.434  0.00  0.00     0.103 A 
ATOM      7  O   UNL d   1      59.579  49.694  48.930  0.00  0.00    -0.259 OA
ATOM      8  C   UNL d   1      56.784  49.622  50.700  0.00  0.00     0.002 A 
ATOM      9  C   UNL d   1      56.716  49.656  49.050  0.00  0.00     0.025 A 
ATOM     10  C   UNL d   1      56.068  49.621  50.324  0.00  0.00     0.000 A 
ATOM     11  C   UNL d   1      56.037  49.638  49.494  0.00  0.00     0.002 A 
ENDROOT
BRANCH   1  12
ATOM     12  C   UNL d   1      59.646  49.660  50.590  0.00  0.00     0.284 C 
ATOM     13  N   UNL d   1      59.669  49.703  51.418  0.00  0.00    -0.208 NA
ATOM     14  O   UNL d   1      60.332  49.618  50.147  0.00  0.00    -0.265 OA
BRANCH  13  15
ATOM     15  C   UNL d   1      60.409  49.704  51.793  0.00  0.00     0.085 A 
ATOM     16  C   UNL d   1      61.113  49.703  51.354  0.00  0.00     0.021 A 
ATOM     17  C   UNL d   1      61.836  49.703  51.736  0.00  0.00     0.031 A 
ATOM     18  C   UNL d   1      61.873  49.705  52.555  0.00  0.00     0.140 A 
ATOM     19  C   UNL d   1      61.173  49.706  53.002  0.00  0.00     0.031 A 
ATOM     20  F   UNL d   1      62.593  49.705  52.934  0.00  0.00    -0.204 F 
ATOM     21  C   UNL d   1      60.438  49.705  52.618  0.00  0.00     0.021 A 
ENDBRANCH  13  15
ENDBRANCH   1  12
TORSDOF 2
ENDMDL
