MODEL 1
REMARK VINA RESULT:      -6.4      0.000      0.000
REMARK  2 active torsions:
REMARK  status: ('A' for Active; 'I' for Inactive)
REMARK       I    between atoms: N_2  and  C_1 
REMARK    1  A    between atoms: C_3  and  C_1 
REMARK    2  A    between atoms: C_4  and  N_2 
ROOT
ATOM      1  C   UNL d   1     -41.501-122.723 -52.765  0.00  0.00     0.059 A 
ATOM      2  C   UNL d   1     -41.889-122.122 -53.174  0.00  0.00     0.025 A 
ATOM      3  C   UNL d   1     -41.900-122.128 -54.007  0.00  0.00     0.099 A 
ATOM      4  N   UNL d   1     -42.289-121.526 -54.419  0.00  0.00    -0.241 NA
ATOM      5  N   UNL d   1     -41.529-122.751 -55.241  0.00  0.00    -0.241 NA
ATOM      6  C   UNL d   1     -41.524-122.735 -54.421  0.00  0.00     0.099 A 
ATOM      7  C   UNL d   1     -41.123-123.332 -53.181  0.00  0.00     0.006 A 
ATOM      8  C   UNL d   1     -41.134-123.339 -54.005  0.00  0.00     0.021 A 
ATOM      9  C   UNL d   1     -42.296-121.538 -55.247  0.00  0.00     0.120 A 
ATOM     10  C   UNL d   1     -41.918-122.147 -55.657  0.00  0.00     0.120 A 
ENDROOT
BRANCH   1  11
ATOM     11  C   UNL d   1     -41.490-122.716 -51.942  0.00  0.00     0.281 C 
ATOM     12  N   UNL d   1     -41.846-123.328 -51.518  0.00  0.00    -0.189 NA
ATOM     13  O   UNL d   1     -41.123-122.096 -51.542  0.00  0.00    -0.265 OA
BRANCH  12  14
ATOM     14  C   UNL d   1     -41.834-123.320 -50.695  0.00  0.00     0.166 A 
ATOM     15  N   UNL d   1     -42.401-122.883 -50.283  0.00  0.00    -0.225 NA
ATOM     16  C   UNL d   1     -42.390-122.874 -49.456  0.00  0.00     0.107 A 
ATOM     17  C   UNL d   1     -41.815-123.301 -49.047  0.00  0.00     0.054 A 
ATOM     18  C   UNL d   1     -41.249-123.737 -49.465  0.00  0.00     0.011 A 
ATOM     19 BR   UNL d   1     -41.802-123.294 -48.223  0.00  0.00    -0.048 Br
ATOM     20  C   UNL d   1     -41.262-123.745 -50.288  0.00  0.00     0.039 A 
ENDBRANCH  12  14
ENDBRANCH   1  11
TORSDOF 2
ENDMDL
MODEL 2
REMARK VINA RESULT:      -6.1      1.877      4.581
REMARK  2 active torsions:
REMARK  status: ('A' for Active; 'I' for Inactive)
REMARK       I    between atoms: N_2  and  C_1 
REMARK    1  A    between atoms: C_3  and  C_1 
REMARK    2  A    between atoms: C_4  and  N_2 
ROOT
ATOM      1  C   UNL d   1     -41.665-122.813 -51.193  0.00  0.00     0.059 A 
ATOM      2  C   UNL d   1     -42.250-122.522 -50.691  0.00  0.00     0.025 A 
ATOM      3  C   UNL d   1     -42.295-122.794 -49.905  0.00  0.00     0.099 A 
ATOM      4  N   UNL d   1     -42.881-122.503 -49.400  0.00  0.00    -0.241 NA
ATOM      5  N   UNL d   1     -41.790-123.629 -48.858  0.00  0.00    -0.241 NA
ATOM      6  C   UNL d   1     -41.755-123.354 -49.630  0.00  0.00     0.099 A 
ATOM      7  C   UNL d   1     -41.123-123.376 -50.917  0.00  0.00     0.006 A 
ATOM      8  C   UNL d   1     -41.167-123.646 -50.140  0.00  0.00     0.021 A 
ATOM      9  C   UNL d   1     -42.920-122.778 -48.620  0.00  0.00     0.120 A 
ATOM     10  C   UNL d   1     -42.377-123.338 -48.349  0.00  0.00     0.120 A 
ENDROOT
BRANCH   1  11
ATOM     11  C   UNL d   1     -41.622-122.544 -51.970  0.00  0.00     0.281 C 
ATOM     12  N   UNL d   1     -41.902-123.013 -52.587  0.00  0.00    -0.189 NA
ATOM     13  O   UNL d   1     -41.297-121.803 -52.128  0.00  0.00    -0.265 OA
BRANCH  12  14
ATOM     14  C   UNL d   1     -41.858-122.742 -53.364  0.00  0.00     0.166 A 
ATOM     15  N   UNL d   1     -42.346-122.123 -53.608  0.00  0.00    -0.225 NA
ATOM     16  C   UNL d   1     -42.302-121.850 -54.388  0.00  0.00     0.107 A 
ATOM     17  C   UNL d   1     -41.772-122.198 -54.917  0.00  0.00     0.054 A 
ATOM     18  C   UNL d   1     -41.286-122.818 -54.666  0.00  0.00     0.011 A 
ATOM     19 BR   UNL d   1     -41.728-121.927 -55.694  0.00  0.00    -0.048 Br
ATOM     20  C   UNL d   1     -41.331-123.088 -53.890  0.00  0.00     0.039 A 
ENDBRANCH  12  14
ENDBRANCH   1  11
TORSDOF 2
ENDMDL
