MODEL 1
REMARK VINA RESULT:     146.7      0.000      0.000
REMARK  4 active torsions:
REMARK  status: ('A' for Active; 'I' for Inactive)
REMARK    1  A    between atoms: C_7  and  C_1 
REMARK    2  A    between atoms: C_12  and  C_6 
REMARK       I    between atoms: N_11  and  C_7 
REMARK    3  A    between atoms: C_20  and  N_11 
REMARK       I    between atoms: C_13  and  N_14 
REMARK    4  A    between atoms: N_14  and  C_21 
ROOT
ATOM      1  C   UNL d   1      58.904  49.063  50.402  0.00  0.00     0.108 A 
ATOM      2  C   UNL d   1      59.985  48.801  50.912  0.00  0.00     0.044 A 
ATOM      3  C   UNL d   1      59.484  48.628  50.384  0.00  0.00     0.116 A 
ATOM      4  C   UNL d   1      59.708  49.395  51.303  0.00  0.00     0.112 A 
ATOM      5  S   UNL d   1      59.030  49.566  50.988  0.00  0.00    -0.061 SA
ATOM      6  C   UNL d   1      60.674  48.498  51.104  0.00  0.00     0.005 A 
ATOM      7  N   UNL d   1      60.112  49.707  51.899  0.00  0.00    -0.239 NA
ATOM      8  C   UNL d   1      61.083  48.799  51.693  0.00  0.00     0.018 A 
ATOM      9  C   UNL d   1      60.806  49.393  52.083  0.00  0.00     0.082 A 
ATOM     10  N   UNL d   1      59.533  47.950  49.749  0.00  0.00    -0.147 N 
ATOM     11  C   UNL d   1      61.832  48.580  52.011  0.00  0.00     0.002 A 
ATOM     12  C   UNL d   1      61.303  49.625  52.666  0.00  0.00     0.019 A 
ATOM     13  C   UNL d   1      61.979  49.089  52.618  0.00  0.00     0.002 A 
ENDROOT
BRANCH   1  14
ATOM     14  C   UNL d   1      58.083  49.065  49.818  0.00  0.00     0.287 C 
ATOM     15  N   UNL d   1      57.196  48.659  49.656  0.00  0.00    -0.208 NA
ATOM     16  O   UNL d   1      58.205  49.706  49.168  0.00  0.00    -0.265 OA
BRANCH  15  17
ATOM     17  C   UNL d   1      56.913  48.049  50.157  0.00  0.00     0.085 A 
ATOM     18  C   UNL d   1      57.003  47.262  49.910  0.00  0.00     0.021 A 
ATOM     19  C   UNL d   1      56.726  46.637  50.399  0.00  0.00     0.021 A 
ATOM     20  C   UNL d   1      56.362  46.801  51.130  0.00  0.00     0.085 A 
ATOM     21  C   UNL d   1      56.276  47.587  51.368  0.00  0.00     0.021 A 
ATOM     22  C   UNL d   1      56.550  48.208  50.884  0.00  0.00     0.021 A 
BRANCH  20  23
ATOM     23  N   UNL d   1      56.037  46.035  51.699  0.00  0.00    -0.208 NA
ATOM     24  C   UNL d   1      56.677  45.027  51.562  0.00  0.00     0.279 C 
ATOM     25  O   UNL d   1      56.329  44.157  52.191  0.00  0.00    -0.265 OA
ATOM     26  C   UNL d   1      57.759  44.728  50.779  0.00  0.00     0.068 C 
ENDBRANCH  20  23
ENDBRANCH  15  17
ENDBRANCH   1  14
BRANCH   6  27
ATOM     27  C   UNL d   1      60.970  47.862  50.686  0.00  0.00     0.000 A 
ATOM     28  C   UNL d   1      60.795  47.101  50.934  0.00  0.00     0.000 A 
ATOM     29  C   UNL d   1      61.090  46.466  50.516  0.00  0.00     0.000 A 
ATOM     30  C   UNL d   1      61.560  46.562  49.852  0.00  0.00     0.000 A 
ATOM     31  C   UNL d   1      61.736  47.314  49.604  0.00  0.00     0.000 A 
ATOM     32  C   UNL d   1      62.015  45.650  49.209  0.00  0.00     0.000 C 
ATOM     33  C   UNL d   1      61.447  47.977  50.012  0.00  0.00     0.000 A 
ENDBRANCH   6  27
TORSDOF 4
ENDMDL
MODEL 2
REMARK VINA RESULT:     149.1      2.042      3.941
REMARK  4 active torsions:
REMARK  status: ('A' for Active; 'I' for Inactive)
REMARK    1  A    between atoms: C_7  and  C_1 
REMARK    2  A    between atoms: C_12  and  C_6 
REMARK       I    between atoms: N_11  and  C_7 
REMARK    3  A    between atoms: C_20  and  N_11 
REMARK       I    between atoms: C_13  and  N_14 
REMARK    4  A    between atoms: N_14  and  C_21 
ROOT
ATOM      1  C   UNL d   1      60.808  48.224  50.326  0.00  0.00     0.108 A 
ATOM      2  C   UNL d   1      60.070  48.716  51.169  0.00  0.00     0.044 A 
ATOM      3  C   UNL d   1      60.140  48.468  50.466  0.00  0.00     0.116 A 
ATOM      4  C   UNL d   1      60.746  48.625  51.511  0.00  0.00     0.112 A 
ATOM      5  S   UNL d   1      61.214  48.317  50.988  0.00  0.00    -0.061 SA
ATOM      6  C   UNL d   1      59.473  49.020  51.564  0.00  0.00     0.005 A 
ATOM      7  N   UNL d   1      60.849  48.836  52.259  0.00  0.00    -0.239 NA
ATOM      8  C   UNL d   1      59.565  49.233  52.306  0.00  0.00     0.018 A 
ATOM      9  C   UNL d   1      60.241  49.142  52.648  0.00  0.00     0.082 A 
ATOM     10  N   UNL d   1      59.490  48.446  49.800  0.00  0.00    -0.147 N 
ATOM     11  C   UNL d   1      59.019  49.571  52.852  0.00  0.00     0.002 A 
ATOM     12  C   UNL d   1      60.227  49.391  53.408  0.00  0.00     0.019 A 
ATOM     13  C   UNL d   1      59.422  49.674  53.542  0.00  0.00     0.002 A 
ENDROOT
BRANCH   1  14
ATOM     14  C   UNL d   1      61.186  47.838  49.476  0.00  0.00     0.287 C 
ATOM     15  N   UNL d   1      61.534  47.025  49.032  0.00  0.00    -0.208 NA
ATOM     16  O   UNL d   1      61.225  48.517  48.854  0.00  0.00    -0.265 OA
BRANCH  15  17
ATOM     17  C   UNL d   1      61.574  46.300  49.452  0.00  0.00     0.085 A 
ATOM     18  C   UNL d   1      62.138  45.739  49.219  0.00  0.00     0.021 A 
ATOM     19  C   UNL d   1      62.193  45.007  49.627  0.00  0.00     0.021 A 
ATOM     20  C   UNL d   1      61.684  44.839  50.265  0.00  0.00     0.085 A 
ATOM     21  C   UNL d   1      61.125  45.403  50.491  0.00  0.00     0.021 A 
ATOM     22  C   UNL d   1      61.070  46.130  50.086  0.00  0.00     0.021 A 
BRANCH  20  23
ATOM     23  N   UNL d   1      61.769  43.954  50.740  0.00  0.00    -0.208 NA
ATOM     24  C   UNL d   1      61.642  44.032  51.932  0.00  0.00     0.279 C 
ATOM     25  O   UNL d   1      61.734  43.050  52.482  0.00  0.00    -0.265 OA
ATOM     26  C   UNL d   1      61.407  45.096  52.762  0.00  0.00     0.068 C 
ENDBRANCH  20  23
ENDBRANCH  15  17
ENDBRANCH   1  14
BRANCH   6  27
ATOM     27  C   UNL d   1      58.750  49.117  51.198  0.00  0.00     0.000 A 
ATOM     28  C   UNL d   1      58.075  48.830  51.562  0.00  0.00     0.000 A 
ATOM     29  C   UNL d   1      57.351  48.926  51.196  0.00  0.00     0.000 A 
ATOM     30  C   UNL d   1      57.276  49.304  50.473  0.00  0.00     0.000 A 
ATOM     31  C   UNL d   1      57.943  49.590  50.111  0.00  0.00     0.000 A 
ATOM     32  C   UNL d   1      56.227  49.466  49.902  0.00  0.00     0.000 C 
ATOM     33  C   UNL d   1      58.690  49.504  50.462  0.00  0.00     0.000 A 
ENDBRANCH   6  27
TORSDOF 4
ENDMDL
