MODEL 1
REMARK VINA RESULT:      -8.5      0.000      0.000
REMARK  8 active torsions:
REMARK  status: ('A' for Active; 'I' for Inactive)
REMARK    1  A    between atoms: C_3  and  C_1 
REMARK    2  A    between atoms: N_4  and  C_2 
REMARK    3  A    between atoms: O_21  and  C_3 
REMARK       I    between atoms: C_11  and  N_4 
REMARK    4  A    between atoms: C_6  and  C_7 
REMARK    5  A    between atoms: O_22  and  C_6 
REMARK    6  A    between atoms: C_10  and  C_20 
REMARK    7  A    between atoms: C_19  and  C_11 
REMARK    8  A    between atoms: C_20  and  C_19 
ROOT
ATOM      1  C   UNL d   1      53.415  33.794  53.844  0.00  0.00     0.081 A 
ATOM      2  C   UNL d   1      52.990  33.160  53.535  0.00  0.00     0.090 A 
ATOM      3  C   UNL d   1      52.017  34.053  53.005  0.00  0.00     0.065 A 
ATOM      4  C   UNL d   1      52.294  33.284  53.117  0.00  0.00     0.025 A 
ATOM      5  C   UNL d   1      53.139  34.563  53.732  0.00  0.00     0.007 A 
ATOM      6  C   UNL d   1      52.439  34.692  53.313  0.00  0.00     0.006 A 
ENDROOT
BRANCH   2   7
ATOM      7  N   UNL d   1      53.270  32.395  53.649  0.00  0.00    -0.208 NA
ATOM      8  C   UNL d   1      53.055  31.794  53.119  0.00  0.00     0.279 C 
ATOM      9  O   UNL d   1      52.561  31.971  52.481  0.00  0.00    -0.265 OA
BRANCH   8  10
ATOM     10  C   UNL d   1      53.334  31.030  53.231  0.00  0.00     0.065 C 
BRANCH  10  11
ATOM     11  C   UNL d   1      52.805  30.422  53.424  0.00  0.00     0.030 C 
BRANCH  11  12
ATOM     12  C   UNL d   1      53.068  29.769  53.847  0.00  0.00     0.100 A 
ATOM     13  O   UNL d   1      52.872  29.581  54.628  0.00  0.00    -0.307 OA
ATOM     14  C   UNL d   1      53.257  28.889  54.821  0.00  0.00     0.100 A 
ATOM     15  C   UNL d   1      53.216  28.501  55.549  0.00  0.00     0.027 C 
ATOM     16  C   UNL d   1      53.692  28.638  54.174  0.00  0.00     0.027 A 
ATOM     17  C   UNL d   1      53.581  29.174  53.572  0.00  0.00     0.027 A 
ENDBRANCH  11  12
ENDBRANCH  10  11
ENDBRANCH   8  10
ENDBRANCH   2   7
BRANCH   1  18
ATOM     18  C   UNL d   1      54.112  33.657  54.261  0.00  0.00     0.297 C 
ATOM     19  O   UNL d   1      54.820  33.553  53.862  0.00  0.00    -0.259 OA
BRANCH  18  20
ATOM     20  O   UNL d   1      54.097  33.623  55.085  0.00  0.00    -0.296 OA
ATOM     21  C   UNL d   1      54.809  33.640  55.509  0.00  0.00     0.185 C 
ENDBRANCH  18  20
ENDBRANCH   1  18
BRANCH   3  22
ATOM     22  C   UNL d   1      51.317  34.183  52.586  0.00  0.00     0.296 C 
ATOM     23  O   UNL d   1      51.338  34.328  51.773  0.00  0.00    -0.259 OA
BRANCH  22  24
ATOM     24  O   UNL d   1      50.590  34.169  52.978  0.00  0.00    -0.296 OA
ATOM     25  C   UNL d   1      49.901  34.388  52.582  0.00  0.00     0.185 C 
ENDBRANCH  22  24
ENDBRANCH   3  22
TORSDOF 8
ENDMDL
MODEL 2
REMARK VINA RESULT:      -8.1      1.315      4.767
REMARK  8 active torsions:
REMARK  status: ('A' for Active; 'I' for Inactive)
REMARK    1  A    between atoms: C_3  and  C_1 
REMARK    2  A    between atoms: N_4  and  C_2 
REMARK    3  A    between atoms: O_21  and  C_3 
REMARK       I    between atoms: C_11  and  N_4 
REMARK    4  A    between atoms: C_6  and  C_7 
REMARK    5  A    between atoms: O_22  and  C_6 
REMARK    6  A    between atoms: C_10  and  C_20 
REMARK    7  A    between atoms: C_19  and  C_11 
REMARK    8  A    between atoms: C_20  and  C_19 
ROOT
ATOM      1  C   UNL d   1      53.208  31.673  53.439  0.00  0.00     0.081 A 
ATOM      2  C   UNL d   1      52.859  32.390  53.645  0.00  0.00     0.090 A 
ATOM      3  C   UNL d   1      54.005  32.744  54.411  0.00  0.00     0.065 A 
ATOM      4  C   UNL d   1      53.252  32.926  54.129  0.00  0.00     0.025 A 
ATOM      5  C   UNL d   1      53.961  31.491  53.721  0.00  0.00     0.007 A 
ATOM      6  C   UNL d   1      54.360  32.027  54.207  0.00  0.00     0.006 A 
ENDROOT
BRANCH   2   7
ATOM      7  N   UNL d   1      52.108  32.567  53.361  0.00  0.00    -0.208 NA
ATOM      8  C   UNL d   1      51.881  33.358  53.260  0.00  0.00     0.279 C 
ATOM      9  O   UNL d   1      52.414  33.962  53.446  0.00  0.00    -0.265 OA
BRANCH   8  10
ATOM     10  C   UNL d   1      51.132  33.537  52.976  0.00  0.00     0.065 C 
BRANCH  10  11
ATOM     11  C   UNL d   1      50.958  34.308  52.726  0.00  0.00     0.030 C 
BRANCH  11  12
ATOM     12  C   UNL d   1      50.214  34.483  52.425  0.00  0.00     0.100 A 
ATOM     13  O   UNL d   1      49.960  34.361  51.648  0.00  0.00    -0.307 OA
ATOM     14  C   UNL d   1      49.187  34.614  51.597  0.00  0.00     0.100 A 
ATOM     15  C   UNL d   1      48.716  34.592  50.918  0.00  0.00     0.027 C 
ATOM     16  C   UNL d   1      48.950  34.894  52.329  0.00  0.00     0.027 A 
ATOM     17  C   UNL d   1      49.576  34.817  52.843  0.00  0.00     0.027 A 
ENDBRANCH  11  12
ENDBRANCH  10  11
ENDBRANCH   8  10
ENDBRANCH   2   7
BRANCH   1  18
ATOM     18  C   UNL d   1      52.804  31.145  52.953  0.00  0.00     0.297 C 
ATOM     19  O   UNL d   1      52.807  31.244  52.140  0.00  0.00    -0.259 OA
BRANCH  18  20
ATOM     20  O   UNL d   1      52.394  30.512  53.287  0.00  0.00    -0.296 OA
ATOM     21  C   UNL d   1      52.371  29.784  52.893  0.00  0.00     0.185 C 
ENDBRANCH  18  20
ENDBRANCH   1  18
BRANCH   3  22
ATOM     22  C   UNL d   1      54.404  33.279  54.898  0.00  0.00     0.296 C 
ATOM     23  O   UNL d   1      54.134  33.429  55.663  0.00  0.00    -0.259 OA
BRANCH  22  24
ATOM     24  O   UNL d   1      55.078  33.667  54.620  0.00  0.00    -0.296 OA
ATOM     25  C   UNL d   1      55.529  34.132  55.131  0.00  0.00     0.185 C 
ENDBRANCH  22  24
ENDBRANCH   3  22
TORSDOF 8
ENDMDL
MODEL 3
REMARK VINA RESULT:      -8.0      1.346      4.716
REMARK  8 active torsions:
REMARK  status: ('A' for Active; 'I' for Inactive)
REMARK    1  A    between atoms: C_3  and  C_1 
REMARK    2  A    between atoms: N_4  and  C_2 
REMARK    3  A    between atoms: O_21  and  C_3 
REMARK       I    between atoms: C_11  and  N_4 
REMARK    4  A    between atoms: C_6  and  C_7 
REMARK    5  A    between atoms: O_22  and  C_6 
REMARK    6  A    between atoms: C_10  and  C_20 
REMARK    7  A    between atoms: C_19  and  C_11 
REMARK    8  A    between atoms: C_20  and  C_19 
ROOT
ATOM      1  C   UNL d   1      53.139  33.725  53.795  0.00  0.00     0.081 A 
ATOM      2  C   UNL d   1      52.511  33.498  53.312  0.00  0.00     0.090 A 
ATOM      3  C   UNL d   1      53.018  32.170  53.254  0.00  0.00     0.065 A 
ATOM      4  C   UNL d   1      52.447  32.725  53.041  0.00  0.00     0.025 A 
ATOM      5  C   UNL d   1      53.710  33.170  54.008  0.00  0.00     0.007 A 
ATOM      6  C   UNL d   1      53.650  32.392  53.738  0.00  0.00     0.006 A 
ENDROOT
BRANCH   2   7
ATOM      7  N   UNL d   1      51.944  34.055  53.102  0.00  0.00    -0.208 NA
ATOM      8  C   UNL d   1      51.142  33.843  53.088  0.00  0.00     0.279 C 
ATOM      9  O   UNL d   1      50.922  33.071  53.286  0.00  0.00    -0.265 OA
BRANCH   8  10
ATOM     10  C   UNL d   1      50.575  34.397  52.878  0.00  0.00     0.065 C 
BRANCH  10  11
ATOM     11  C   UNL d   1      49.856  34.148  52.549  0.00  0.00     0.030 C 
BRANCH  11  12
ATOM     12  C   UNL d   1      49.259  34.695  52.408  0.00  0.00     0.100 A 
ATOM     13  O   UNL d   1      48.926  35.209  52.962  0.00  0.00    -0.307 OA
ATOM     14  C   UNL d   1      48.355  35.650  52.582  0.00  0.00     0.100 A 
ATOM     15  C   UNL d   1      47.884  36.232  52.929  0.00  0.00     0.027 C 
ATOM     16  C   UNL d   1      48.324  35.420  51.796  0.00  0.00     0.027 A 
ATOM     17  C   UNL d   1      48.876  34.834  51.682  0.00  0.00     0.027 A 
ENDBRANCH  11  12
ENDBRANCH  10  11
ENDBRANCH   8  10
ENDBRANCH   2   7
BRANCH   1  18
ATOM     18  C   UNL d   1      53.191  34.503  54.060  0.00  0.00     0.297 C 
ATOM     19  O   UNL d   1      53.325  35.114  53.530  0.00  0.00    -0.259 OA
BRANCH  18  20
ATOM     20  O   UNL d   1      53.110  34.669  54.864  0.00  0.00    -0.296 OA
ATOM     21  C   UNL d   1      53.314  35.419  55.150  0.00  0.00     0.185 C 
ENDBRANCH  18  20
ENDBRANCH   1  18
BRANCH   3  22
ATOM     22  C   UNL d   1      52.959  31.391  52.985  0.00  0.00     0.296 C 
ATOM     23  O   UNL d   1      52.939  31.230  52.175  0.00  0.00    -0.259 OA
BRANCH  22  24
ATOM     24  O   UNL d   1      52.920  30.768  53.525  0.00  0.00    -0.296 OA
ATOM     25  C   UNL d   1      52.851  29.990  53.258  0.00  0.00     0.185 C 
ENDBRANCH  22  24
ENDBRANCH   3  22
TORSDOF 8
ENDMDL
MODEL 4
REMARK VINA RESULT:      -7.7      0.760      2.683
REMARK  8 active torsions:
REMARK  status: ('A' for Active; 'I' for Inactive)
REMARK    1  A    between atoms: C_3  and  C_1 
REMARK    2  A    between atoms: N_4  and  C_2 
REMARK    3  A    between atoms: O_21  and  C_3 
REMARK       I    between atoms: C_11  and  N_4 
REMARK    4  A    between atoms: C_6  and  C_7 
REMARK    5  A    between atoms: O_22  and  C_6 
REMARK    6  A    between atoms: C_10  and  C_20 
REMARK    7  A    between atoms: C_19  and  C_11 
REMARK    8  A    between atoms: C_20  and  C_19 
ROOT
ATOM      1  C   UNL d   1      52.090  34.213  53.180  0.00  0.00     0.081 A 
ATOM      2  C   UNL d   1      52.472  33.577  53.538  0.00  0.00     0.090 A 
ATOM      3  C   UNL d   1      53.242  34.470  54.335  0.00  0.00     0.065 A 
ATOM      4  C   UNL d   1      53.046  33.700  54.113  0.00  0.00     0.025 A 
ATOM      5  C   UNL d   1      52.287  34.982  53.401  0.00  0.00     0.007 A 
ATOM      6  C   UNL d   1      52.863  35.111  53.979  0.00  0.00     0.006 A 
ENDROOT
BRANCH   2   7
ATOM      7  N   UNL d   1      52.273  32.811  53.314  0.00  0.00    -0.208 NA
ATOM      8  C   UNL d   1      52.870  32.250  53.188  0.00  0.00     0.279 C 
ATOM      9  O   UNL d   1      53.662  32.467  53.289  0.00  0.00    -0.265 OA
BRANCH   8  10
ATOM     10  C   UNL d   1      52.674  31.485  52.964  0.00  0.00     0.065 C 
BRANCH  10  11
ATOM     11  C   UNL d   1      53.254  30.892  52.964  0.00  0.00     0.030 C 
BRANCH  11  12
ATOM     12  C   UNL d   1      53.110  30.178  53.343  0.00  0.00     0.100 A 
ATOM     13  O   UNL d   1      53.509  29.887  54.005  0.00  0.00    -0.307 OA
ATOM     14  C   UNL d   1      53.185  29.163  54.193  0.00  0.00     0.100 A 
ATOM     15  C   UNL d   1      53.419  28.677  54.818  0.00  0.00     0.027 C 
ATOM     16  C   UNL d   1      52.588  28.994  53.658  0.00  0.00     0.027 A 
ATOM     17  C   UNL d   1      52.535  29.613  53.134  0.00  0.00     0.027 A 
ENDBRANCH  11  12
ENDBRANCH  10  11
ENDBRANCH   8  10
ENDBRANCH   2   7
BRANCH   1  18
ATOM     18  C   UNL d   1      51.517  34.076  52.604  0.00  0.00     0.297 C 
ATOM     19  O   UNL d   1      51.728  34.023  51.814  0.00  0.00    -0.259 OA
BRANCH  18  20
ATOM     20  O   UNL d   1      50.727  33.993  52.824  0.00  0.00    -0.296 OA
ATOM     21  C   UNL d   1      50.128  34.207  52.292  0.00  0.00     0.185 C 
ENDBRANCH  18  20
ENDBRANCH   1  18
BRANCH   3  22
ATOM     22  C   UNL d   1      53.818  34.599  54.913  0.00  0.00     0.296 C 
ATOM     23  O   UNL d   1      53.605  34.884  55.658  0.00  0.00    -0.259 OA
BRANCH  22  24
ATOM     24  O   UNL d   1      54.612  34.444  54.747  0.00  0.00    -0.296 OA
ATOM     25  C   UNL d   1      55.136  34.265  55.359  0.00  0.00     0.185 C 
ENDBRANCH  22  24
ENDBRANCH   3  22
TORSDOF 8
ENDMDL
