MODEL 1
REMARK VINA RESULT:      69.5      0.000      0.000
REMARK  8 active torsions:
REMARK  status: ('A' for Active; 'I' for Inactive)
REMARK    1  A    between atoms: N_9  and  C_1 
REMARK    2  A    between atoms: C_4  and  S_15 
REMARK    3  A    between atoms: C_18  and  C_8 
REMARK       I    between atoms: C_13  and  N_9 
REMARK       I    between atoms: C_10  and  N_14 
REMARK    4  A    between atoms: C_16  and  C_10 
REMARK    5  A    between atoms: C_22  and  C_13 
REMARK    6  A    between atoms: N_14  and  C_18 
REMARK    7  A    between atoms: S_15  and  C_22 
REMARK    8  A    between atoms: O_26  and  C_23 
ROOT
ATOM      1  O   UNL d   1     -50.191  26.148  33.744  0.00  0.00    -0.262 OA
ATOM      2  C   UNL d   1     -49.631  26.761  33.810  0.00  0.00     0.236 A 
ATOM      3  N   UNL d   1     -48.907  26.467  33.565  0.00  0.00    -0.114 NA
ATOM      4  N   UNL d   1     -49.011  25.678  33.348  0.00  0.00    -0.119 NA
ATOM      5  C   UNL d   1     -49.801  25.482  33.459  0.00  0.00     0.224 A 
ENDROOT
BRANCH   2   6
ATOM      6  S   UNL d   1     -49.788  27.529  34.076  0.00  0.00    -0.036 SA
BRANCH   6   7
ATOM      7  C   UNL d   1     -49.365  27.842  34.701  0.00  0.00     0.101 C 
BRANCH   7   8
ATOM      8  C   UNL d   1     -49.133  28.650  34.692  0.00  0.00     0.288 C 
ATOM      9  N   UNL d   1     -48.353  28.854  34.874  0.00  0.00    -0.182 NA
ATOM     10  O   UNL d   1     -49.679  29.230  34.504  0.00  0.00    -0.265 OA
BRANCH   9  11
ATOM     11  C   UNL d   1     -48.114  29.651  34.868  0.00  0.00     0.197 A 
ATOM     12  N   UNL d   1     -48.462  30.252  34.412  0.00  0.00    -0.221 NA
ATOM     13  C   UNL d   1     -48.059  30.956  34.572  0.00  0.00     0.090 A 
ATOM     14  C   UNL d   1     -48.151  31.720  34.292  0.00  0.00     0.020 A 
ATOM     15  C   UNL d   1     -47.458  30.787  35.130  0.00  0.00     0.050 A 
ATOM     16  C   UNL d   1     -47.656  32.332  34.554  0.00  0.00     0.002 A 
ATOM     17  C   UNL d   1     -47.061  32.158  35.109  0.00  0.00     0.001 A 
ATOM     18  C   UNL d   1     -46.968  31.395  35.390  0.00  0.00     0.008 A 
ATOM     19  S   UNL d   1     -47.494  29.978  35.313  0.00  0.00    -0.047 SA
ENDBRANCH   9  11
ENDBRANCH   7   8
ENDBRANCH   6   7
ENDBRANCH   2   6
BRANCH   5  20
ATOM     20  C   UNL d   1     -50.143  24.745  33.309  0.00  0.00     0.149 C 
BRANCH  20  21
ATOM     21  N   UNL d   1     -50.949  24.627  33.430  0.00  0.00    -0.203 NA
ATOM     22  C   UNL d   1     -51.222  23.893  33.702  0.00  0.00     0.279 C 
ATOM     23  O   UNL d   1     -50.693  23.280  33.853  0.00  0.00    -0.265 OA
BRANCH  22  24
ATOM     24  C   UNL d   1     -52.034  23.780  33.822  0.00  0.00     0.058 A 
ATOM     25  C   UNL d   1     -52.468  23.301  33.307  0.00  0.00     0.007 A 
ATOM     26  C   UNL d   1     -53.275  23.194  33.432  0.00  0.00     0.024 A 
ATOM     27  C   UNL d   1     -53.636  23.567  34.071  0.00  0.00     0.094 A 
ATOM     28  C   UNL d   1     -53.211  24.036  34.576  0.00  0.00     0.024 A 
ATOM     29  C   UNL d   1     -52.404  24.143  34.451  0.00  0.00     0.007 A 
BRANCH  27  30
ATOM     30  O   UNL d   1     -54.449  23.458  34.196  0.00  0.00    -0.328 OA
ATOM     31  C   UNL d   1     -54.733  23.188  34.933  0.00  0.00     0.181 C 
ENDBRANCH  27  30
ENDBRANCH  22  24
ENDBRANCH  20  21
ENDBRANCH   5  20
TORSDOF 8
ENDMDL
