MODEL 1
REMARK VINA RESULT:      -5.1      0.000      0.000
REMARK  1 active torsions:
REMARK  status: ('A' for Active; 'I' for Inactive)
REMARK    1  A    between atoms: C_11  and  C_4 
ROOT
ATOM      1  O   UNL d   1     -41.659-123.110 -54.591  0.00  0.00    -0.304 OA
ATOM      2  C   UNL d   1     -41.604-122.427 -53.439  0.00  0.00     0.025 A 
ATOM      3  C   UNL d   1     -41.835-121.906 -54.043  0.00  0.00     0.030 A 
ATOM      4  C   UNL d   1     -41.869-122.326 -54.752  0.00  0.00     0.142 A 
ATOM      5  C   UNL d   1     -41.498-123.168 -53.786  0.00  0.00     0.100 A 
ATOM      6  C   UNL d   1     -41.483-122.317 -52.641  0.00  0.00     0.009 A 
ATOM      7  C   UNL d   1     -41.265-123.807 -53.322  0.00  0.00     0.025 A 
ATOM      8  C   UNL d   1     -41.248-122.954 -52.164  0.00  0.00     0.035 A 
ATOM      9  C   UNL d   1     -41.140-123.701 -52.508  0.00  0.00     0.009 A 
ATOM     10 BR   UNL d   1     -41.124-122.851 -51.357  0.00  0.00    -0.049 Br
ENDROOT
BRANCH   4  11
ATOM     11  C   UNL d   1     -42.075-122.021 -55.489  0.00  0.00     0.259 C 
ATOM     12  O   UNL d   1     -42.862-121.938 -55.692  0.00  0.00    -0.281 OA
ENDBRANCH   4  11
TORSDOF 1
ENDMDL
MODEL 2
REMARK VINA RESULT:      -5.1      0.919      1.493
REMARK  1 active torsions:
REMARK  status: ('A' for Active; 'I' for Inactive)
REMARK    1  A    between atoms: C_11  and  C_4 
ROOT
ATOM      1  O   UNL d   1     -41.230-122.137 -53.423  0.00  0.00    -0.304 OA
ATOM      2  C   UNL d   1     -41.222-123.269 -52.705  0.00  0.00     0.025 A 
ATOM      3  C   UNL d   1     -41.270-123.469 -53.510  0.00  0.00     0.030 A 
ATOM      4  C   UNL d   1     -41.275-122.772 -53.952  0.00  0.00     0.142 A 
ATOM      5  C   UNL d   1     -41.197-122.445 -52.661  0.00  0.00     0.100 A 
ATOM      6  C   UNL d   1     -41.198-123.725 -52.030  0.00  0.00     0.009 A 
ATOM      7  C   UNL d   1     -41.148-122.076 -51.926  0.00  0.00     0.025 A 
ATOM      8  C   UNL d   1     -41.148-123.364 -51.285  0.00  0.00     0.035 A 
ATOM      9  C   UNL d   1     -41.123-122.536 -51.235  0.00  0.00     0.009 A 
ATOM     10 BR   UNL d   1     -41.123-123.817 -50.599  0.00  0.00    -0.049 Br
ENDROOT
BRANCH   4  11
ATOM     11  C   UNL d   1     -41.318-122.717 -54.773  0.00  0.00     0.259 C 
ATOM     12  O   UNL d   1     -41.438-121.992 -55.128  0.00  0.00    -0.281 OA
ENDBRANCH   4  11
TORSDOF 1
ENDMDL
MODEL 3
REMARK VINA RESULT:      -4.8      1.805      2.787
REMARK  1 active torsions:
REMARK  status: ('A' for Active; 'I' for Inactive)
REMARK    1  A    between atoms: C_11  and  C_4 
ROOT
ATOM      1  O   UNL d   1     -41.123-123.360 -52.740  0.00  0.00    -0.304 OA
ATOM      2  C   UNL d   1     -41.625-122.337 -53.445  0.00  0.00     0.025 A 
ATOM      3  C   UNL d   1     -41.575-122.108 -52.648  0.00  0.00     0.030 A 
ATOM      4  C   UNL d   1     -41.266-122.737 -52.214  0.00  0.00     0.142 A 
ATOM      5  C   UNL d   1     -41.343-123.112 -53.492  0.00  0.00     0.100 A 
ATOM      6  C   UNL d   1     -41.885-121.945 -54.110  0.00  0.00     0.009 A 
ATOM      7  C   UNL d   1     -41.324-123.496 -54.220  0.00  0.00     0.025 A 
ATOM      8  C   UNL d   1     -41.870-122.322 -54.849  0.00  0.00     0.035 A 
ATOM      9  C   UNL d   1     -41.588-123.100 -54.902  0.00  0.00     0.009 A 
ATOM     10 BR   UNL d   1     -42.130-121.932 -55.525  0.00  0.00    -0.049 Br
ENDROOT
BRANCH   4  11
ATOM     11  C   UNL d   1     -41.124-122.746 -51.402  0.00  0.00     0.259 C 
ATOM     12  O   UNL d   1     -41.739-122.881 -50.882  0.00  0.00    -0.281 OA
ENDBRANCH   4  11
TORSDOF 1
ENDMDL
MODEL 4
REMARK VINA RESULT:      -4.3      2.801      3.744
REMARK  1 active torsions:
REMARK  status: ('A' for Active; 'I' for Inactive)
REMARK    1  A    between atoms: C_11  and  C_4 
ROOT
ATOM      1  O   UNL d   1     -42.349-122.274 -50.840  0.00  0.00    -0.304 OA
ATOM      2  C   UNL d   1     -41.599-122.897 -49.921  0.00  0.00     0.025 A 
ATOM      3  C   UNL d   1     -41.130-122.757 -50.592  0.00  0.00     0.030 A 
ATOM      4  C   UNL d   1     -41.592-122.373 -51.158  0.00  0.00     0.142 A 
ATOM      5  C   UNL d   1     -42.350-122.596 -50.083  0.00  0.00     0.100 A 
ATOM      6  C   UNL d   1     -41.436-123.252 -49.206  0.00  0.00     0.009 A 
ATOM      7  C   UNL d   1     -42.945-122.653 -49.516  0.00  0.00     0.025 A 
ATOM      8  C   UNL d   1     -42.027-123.315 -48.628  0.00  0.00     0.035 A 
ATOM      9  C   UNL d   1     -42.784-123.013 -48.785  0.00  0.00     0.009 A 
ATOM     10 BR   UNL d   1     -41.870-123.672 -47.903  0.00  0.00    -0.049 Br
ENDROOT
BRANCH   4  11
ATOM     11  C   UNL d   1     -41.344-122.132 -51.906  0.00  0.00     0.259 C 
ATOM     12  O   UNL d   1     -41.680-122.461 -52.574  0.00  0.00    -0.281 OA
ENDBRANCH   4  11
TORSDOF 1
ENDMDL
MODEL 5
REMARK VINA RESULT:      -3.9      2.426      3.721
REMARK  1 active torsions:
REMARK  status: ('A' for Active; 'I' for Inactive)
REMARK    1  A    between atoms: C_11  and  C_4 
ROOT
ATOM      1  O   UNL d   1     -41.155-122.431 -50.643  0.00  0.00    -0.304 OA
ATOM      2  C   UNL d   1     -41.151-123.447 -51.517  0.00  0.00     0.025 A 
ATOM      3  C   UNL d   1     -41.135-123.762 -50.749  0.00  0.00     0.030 A 
ATOM      4  C   UNL d   1     -41.137-123.136 -50.211  0.00  0.00     0.142 A 
ATOM      5  C   UNL d   1     -41.163-122.625 -51.442  0.00  0.00     0.100 A 
ATOM      6  C   UNL d   1     -41.157-123.801 -52.251  0.00  0.00     0.009 A 
ATOM      7  C   UNL d   1     -41.181-122.153 -52.117  0.00  0.00     0.025 A 
ATOM      8  C   UNL d   1     -41.174-123.335 -52.938  0.00  0.00     0.035 A 
ATOM      9  C   UNL d   1     -41.186-122.508 -52.868  0.00  0.00     0.009 A 
ATOM     10 BR   UNL d   1     -41.179-123.685 -53.683  0.00  0.00    -0.049 Br
ENDROOT
BRANCH   4  11
ATOM     11  C   UNL d   1     -41.124-123.201 -49.389  0.00  0.00     0.259 C 
ATOM     12  O   UNL d   1     -41.821-123.158 -48.965  0.00  0.00    -0.281 OA
ENDBRANCH   4  11
TORSDOF 1
ENDMDL
MODEL 6
REMARK VINA RESULT:      -3.7      3.193      4.347
REMARK  1 active torsions:
REMARK  status: ('A' for Active; 'I' for Inactive)
REMARK    1  A    between atoms: C_11  and  C_4 
ROOT
ATOM      1  O   UNL d   1     -42.023-123.680 -49.526  0.00  0.00    -0.304 OA
ATOM      2  C   UNL d   1     -41.989-122.647 -50.378  0.00  0.00     0.025 A 
ATOM      3  C   UNL d   1     -42.410-122.415 -49.702  0.00  0.00     0.030 A 
ATOM      4  C   UNL d   1     -42.431-123.051 -49.176  0.00  0.00     0.142 A 
ATOM      5  C   UNL d   1     -41.753-123.429 -50.261  0.00  0.00     0.100 A 
ATOM      6  C   UNL d   1     -41.798-122.251 -51.064  0.00  0.00     0.009 A 
ATOM      7  C   UNL d   1     -41.320-123.817 -50.844  0.00  0.00     0.025 A 
ATOM      8  C   UNL d   1     -41.362-122.632 -51.658  0.00  0.00     0.035 A 
ATOM      9  C   UNL d   1     -41.123-123.419 -51.545  0.00  0.00     0.009 A 
ATOM     10 BR   UNL d   1     -41.165-122.239 -52.354  0.00  0.00    -0.049 Br
ENDROOT
BRANCH   4  11
ATOM     11  C   UNL d   1     -42.794-123.059 -48.437  0.00  0.00     0.259 C 
ATOM     12  O   UNL d   1     -42.342-122.994 -47.759  0.00  0.00    -0.281 OA
ENDBRANCH   4  11
TORSDOF 1
ENDMDL
