MODEL 1
REMARK VINA RESULT:      63.2      0.000      0.000
REMARK  10 active torsions:
REMARK  status: ('A' for Active; 'I' for Inactive)
REMARK    1  A    between atoms: C_5  and  C_1 
REMARK    2  A    between atoms: N_6  and  C_2 
REMARK    3  A    between atoms: C_7  and  C_5 
REMARK    4  A    between atoms: C_8  and  C_5 
REMARK    5  A    between atoms: O_18  and  C_7 
REMARK    6  A    between atoms: C_22  and  O_18 
REMARK    7  A    between atoms: C_23  and  C_22 
REMARK    8  A    between atoms: C_26  and  C_23 
REMARK    9  A    between atoms: C_24  and  C_25 
REMARK   10  A    between atoms: C_25  and  C_26 
ROOT
ATOM      1  C   UNL d   1     -51.843  24.967  33.901  0.00  0.00     0.122 A 
ATOM      2  C   UNL d   1     -51.568  24.212  33.706  0.00  0.00     0.166 A 
ATOM      3  N   UNL d   1     -52.113  23.626  33.510  0.00  0.00    -0.225 NA
ATOM      4  N   UNL d   1     -52.654  25.134  33.900  0.00  0.00    -0.241 NA
ATOM      5  C   UNL d   1     -52.917  23.782  33.506  0.00  0.00     0.101 A 
ATOM      6  C   UNL d   1     -53.191  24.542  33.702  0.00  0.00     0.099 A 
ATOM      7  C   UNL d   1     -53.996  24.703  33.699  0.00  0.00     0.021 A 
ATOM      8  C   UNL d   1     -53.461  23.189  33.308  0.00  0.00     0.021 A 
ATOM      9  C   UNL d   1     -54.272  23.355  33.306  0.00  0.00     0.002 A 
ATOM     10  C   UNL d   1     -54.539  24.109  33.501  0.00  0.00     0.002 A 
ENDROOT
BRANCH   1  11
ATOM     11  C   UNL d   1     -51.303  25.573  34.103  0.00  0.00     0.105 C 
BRANCH  11  12
ATOM     12  C   UNL d   1     -51.222  26.240  33.627  0.00  0.00     0.303 C 
ATOM     13  O   UNL d   1     -51.890  26.683  33.423  0.00  0.00    -0.259 OA
BRANCH  12  14
ATOM     14  O   UNL d   1     -50.477  26.463  33.357  0.00  0.00    -0.271 OA
BRANCH  14  15
ATOM     15  C   UNL d   1     -50.291  27.271  33.306  0.00  0.00     0.126 C 
BRANCH  15  16
ATOM     16  C   UNL d   1     -49.587  27.545  33.630  0.00  0.00     0.027 C 
BRANCH  16  17
ATOM     17  C   UNL d   1     -49.575  27.821  34.405  0.00  0.00     0.002 C 
BRANCH  17  18
ATOM     18  C   UNL d   1     -48.890  27.746  34.853  0.00  0.00     0.000 C 
BRANCH  18  19
ATOM     19  C   UNL d   1     -48.199  28.132  34.620  0.00  0.00     0.000 C 
ATOM     20  C   UNL d   1     -47.938  28.781  35.044  0.00  0.00     0.000 C 
ENDBRANCH  18  19
ENDBRANCH  17  18
ENDBRANCH  16  17
ENDBRANCH  15  16
ENDBRANCH  14  15
ENDBRANCH  12  14
ENDBRANCH  11  12
BRANCH  11  21
ATOM     21  C   UNL d   1     -50.839  25.500  34.798  0.00  0.00     0.129 C 
ATOM     22  N   UNL d   1     -51.118  25.848  35.640  0.00  0.00    -0.146 N 
ENDBRANCH  11  21
ENDBRANCH   1  11
BRANCH   2  23
ATOM     23  N   UNL d   1     -50.758  24.053  33.710  0.00  0.00    -0.285 N 
ATOM     24  C   UNL d   1     -50.238  24.564  33.313  0.00  0.00     0.101 A 
ATOM     25  C   UNL d   1     -49.430  24.416  33.310  0.00  0.00     0.100 A 
ATOM     26  N   UNL d   1     -49.135  23.749  33.707  0.00  0.00    -0.299 N 
ATOM     27  C   UNL d   1     -49.655  23.238  34.104  0.00  0.00     0.100 A 
ATOM     28  C   UNL d   1     -48.313  23.591  33.709  0.00  0.00     0.100 C 
ATOM     29  C   UNL d   1     -50.470  23.391  34.104  0.00  0.00     0.101 A 
ENDBRANCH   2  23
TORSDOF 10
ENDMDL
