MODEL 1
REMARK VINA RESULT:      -0.9      0.000      0.000
REMARK  5 active torsions:
REMARK  status: ('A' for Active; 'I' for Inactive)
REMARK    1  A    between atoms: C_4  and  C_1 
REMARK       I    between atoms: N_8  and  C_4 
REMARK    2  A    between atoms: C_17  and  N_8 
REMARK    3  A    between atoms: C_18  and  N_8 
REMARK    4  A    between atoms: C_15  and  C_11 
REMARK    5  A    between atoms: C_12  and  C_15 
ROOT
ATOM      1  C   UNL d   1      31.965  18.239 -24.505  0.00  0.00     0.120 A 
ATOM      2  C   UNL d   1      31.135  18.238 -24.365  0.00  0.00     0.305 A 
ATOM      3  O   UNL d   1      30.714  17.534 -24.446  0.00  0.00    -0.273 OA
ATOM      4  C   UNL d   1      32.345  17.535 -24.723  0.00  0.00     0.012 A 
ATOM      5  C   UNL d   1      31.100  16.834 -24.663  0.00  0.00     0.103 A 
ATOM      6  C   UNL d   1      31.915  16.834 -24.802  0.00  0.00     0.023 A 
ATOM      7  O   UNL d   1      30.722  18.938 -24.142  0.00  0.00    -0.259 OA
ATOM      8  C   UNL d   1      30.665  16.153 -24.737  0.00  0.00     0.023 A 
ATOM      9  C   UNL d   1      32.295  16.153 -25.014  0.00  0.00     0.002 A 
ATOM     10  C   UNL d   1      31.866  15.453 -25.093  0.00  0.00     0.000 A 
ATOM     11  C   UNL d   1      31.036  15.453 -24.952  0.00  0.00     0.002 A 
ENDROOT
BRANCH   1  12
ATOM     12  C   UNL d   1      32.428  18.939 -24.432  0.00  0.00     0.270 C 
ATOM     13  N   UNL d   1      32.784  19.101 -23.714  0.00  0.00    -0.272 N 
ATOM     14  O   UNL d   1      32.520  19.463 -25.095  0.00  0.00    -0.266 OA
BRANCH  13  15
ATOM     15  C   UNL d   1      32.690  18.588 -23.078  0.00  0.00     0.083 C 
ATOM     16  C   UNL d   1      33.186  18.633 -22.434  0.00  0.00     0.021 C 
ENDBRANCH  13  15
BRANCH  13  17
ATOM     17  C   UNL d   1      33.241  19.780 -23.620  0.00  0.00     0.083 C 
ATOM     18  C   UNL d   1      33.223  20.188 -22.910  0.00  0.00     0.021 C 
ENDBRANCH  13  17
ENDBRANCH   1  12
BRANCH   8  19
ATOM     19  C   UNL d   1      29.853  16.160 -24.598  0.00  0.00     0.002 C 
BRANCH  19  20
ATOM     20  C   UNL d   1      29.443  15.463 -24.523  0.00  0.00     0.000 C 
ATOM     21  C   UNL d   1      28.607  15.467 -24.455  0.00  0.00     0.000 C 
ENDBRANCH  19  20
ENDBRANCH   8  19
TORSDOF 5
ENDMDL
MODEL 2
REMARK VINA RESULT:      -0.5      1.361      1.965
REMARK  5 active torsions:
REMARK  status: ('A' for Active; 'I' for Inactive)
REMARK    1  A    between atoms: C_4  and  C_1 
REMARK       I    between atoms: N_8  and  C_4 
REMARK    2  A    between atoms: C_17  and  N_8 
REMARK    3  A    between atoms: C_18  and  N_8 
REMARK    4  A    between atoms: C_15  and  C_11 
REMARK    5  A    between atoms: C_12  and  C_15 
ROOT
ATOM      1  C   UNL d   1      31.344  17.115 -24.175  0.00  0.00     0.120 A 
ATOM      2  C   UNL d   1      30.628  17.428 -24.489  0.00  0.00     0.305 A 
ATOM      3  O   UNL d   1      29.907  17.157 -24.193  0.00  0.00    -0.273 OA
ATOM      4  C   UNL d   1      31.314  16.542 -23.577  0.00  0.00     0.012 A 
ATOM      5  C   UNL d   1      29.885  16.585 -23.594  0.00  0.00     0.103 A 
ATOM      6  C   UNL d   1      30.588  16.277 -23.287  0.00  0.00     0.023 A 
ATOM      7  O   UNL d   1      30.627  18.011 -25.097  0.00  0.00    -0.259 OA
ATOM      8  C   UNL d   1      29.164  16.333 -23.318  0.00  0.00     0.023 A 
ATOM      9  C   UNL d   1      30.570  15.718 -22.703  0.00  0.00     0.002 A 
ATOM     10  C   UNL d   1      29.845  15.453 -22.412  0.00  0.00     0.000 A 
ATOM     11  C   UNL d   1      29.129  15.766 -22.726  0.00  0.00     0.002 A 
ENDROOT
BRANCH   1  12
ATOM     12  C   UNL d   1      32.098  17.367 -24.453  0.00  0.00     0.270 C 
ATOM     13  N   UNL d   1      32.456  18.008 -24.092  0.00  0.00    -0.272 N 
ATOM     14  O   UNL d   1      32.476  16.960 -25.097  0.00  0.00    -0.266 OA
BRANCH  13  15
ATOM     15  C   UNL d   1      32.082  18.395 -23.469  0.00  0.00     0.083 C 
ATOM     16  C   UNL d   1      32.521  18.757 -22.886  0.00  0.00     0.021 C 
ENDBRANCH  13  15
BRANCH  13  17
ATOM     17  C   UNL d   1      33.193  18.272 -24.347  0.00  0.00     0.083 C 
ATOM     18  C   UNL d   1      33.241  18.887 -24.885  0.00  0.00     0.021 C 
ENDBRANCH  13  17
ENDBRANCH   1  12
BRANCH   8  19
ATOM     19  C   UNL d   1      28.467  16.644 -23.630  0.00  0.00     0.002 C 
BRANCH  19  20
ATOM     20  C   UNL d   1      27.771  16.588 -23.216  0.00  0.00     0.000 C 
ATOM     21  C   UNL d   1      27.078  16.301 -23.588  0.00  0.00     0.000 C 
ENDBRANCH  19  20
ENDBRANCH   8  19
TORSDOF 5
ENDMDL
MODEL 3
REMARK VINA RESULT:      -0.1      1.773      4.012
REMARK  5 active torsions:
REMARK  status: ('A' for Active; 'I' for Inactive)
REMARK    1  A    between atoms: C_4  and  C_1 
REMARK       I    between atoms: N_8  and  C_4 
REMARK    2  A    between atoms: C_17  and  N_8 
REMARK    3  A    between atoms: C_18  and  N_8 
REMARK    4  A    between atoms: C_15  and  C_11 
REMARK    5  A    between atoms: C_12  and  C_15 
ROOT
ATOM      1  C   UNL d   1      30.111  16.464 -24.341  0.00  0.00     0.120 A 
ATOM      2  C   UNL d   1      30.723  16.173 -23.842  0.00  0.00     0.305 A 
ATOM      3  O   UNL d   1      31.426  16.600 -23.777  0.00  0.00    -0.273 OA
ATOM      4  C   UNL d   1      30.223  17.172 -24.757  0.00  0.00     0.012 A 
ATOM      5  C   UNL d   1      31.530  17.307 -24.196  0.00  0.00     0.103 A 
ATOM      6  C   UNL d   1      30.929  17.593 -24.686  0.00  0.00     0.023 A 
ATOM      7  O   UNL d   1      30.638  15.456 -23.407  0.00  0.00    -0.259 OA
ATOM      8  C   UNL d   1      32.230  17.710 -24.116  0.00  0.00     0.023 A 
ATOM      9  C   UNL d   1      31.027  18.283 -25.097  0.00  0.00     0.002 A 
ATOM     10  C   UNL d   1      31.734  18.704 -25.026  0.00  0.00     0.000 A 
ATOM     11  C   UNL d   1      32.346  18.412 -24.526  0.00  0.00     0.002 A 
ENDROOT
BRANCH   1  12
ATOM     12  C   UNL d   1      29.380  16.055 -24.433  0.00  0.00     0.270 C 
ATOM     13  N   UNL d   1      28.756  16.249 -23.940  0.00  0.00    -0.272 N 
ATOM     14  O   UNL d   1      29.297  15.453 -25.027  0.00  0.00    -0.266 OA
BRANCH  13  15
ATOM     15  C   UNL d   1      28.846  16.834 -23.368  0.00  0.00     0.083 C 
ATOM     16  C   UNL d   1      28.260  17.386 -23.248  0.00  0.00     0.021 C 
ENDBRANCH  13  15
BRANCH  13  17
ATOM     17  C   UNL d   1      28.033  15.862 -24.012  0.00  0.00     0.083 C 
ATOM     18  C   UNL d   1      27.584  15.711 -23.344  0.00  0.00     0.021 C 
ENDBRANCH  13  17
ENDBRANCH   1  12
BRANCH   8  19
ATOM     19  C   UNL d   1      32.825  17.419 -23.626  0.00  0.00     0.002 C 
BRANCH  19  20
ATOM     20  C   UNL d   1      33.240  17.921 -23.141  0.00  0.00     0.000 C 
ATOM     21  C   UNL d   1      33.213  17.826 -22.309  0.00  0.00     0.000 C 
ENDBRANCH  19  20
ENDBRANCH   8  19
TORSDOF 5
ENDMDL
MODEL 4
REMARK VINA RESULT:       1.0      2.140      5.232
REMARK  5 active torsions:
REMARK  status: ('A' for Active; 'I' for Inactive)
REMARK    1  A    between atoms: C_4  and  C_1 
REMARK       I    between atoms: N_8  and  C_4 
REMARK    2  A    between atoms: C_17  and  N_8 
REMARK    3  A    between atoms: C_18  and  N_8 
REMARK    4  A    between atoms: C_15  and  C_11 
REMARK    5  A    between atoms: C_12  and  C_15 
ROOT
ATOM      1  C   UNL d   1      32.969  19.759 -22.854  0.00  0.00     0.120 A 
ATOM      2  C   UNL d   1      32.846  20.086 -22.088  0.00  0.00     0.305 A 
ATOM      3  O   UNL d   1      32.856  20.905 -21.994  0.00  0.00    -0.273 OA
ATOM      4  C   UNL d   1      33.098  20.263 -23.499  0.00  0.00     0.012 A 
ATOM      5  C   UNL d   1      32.985  21.403 -22.644  0.00  0.00     0.103 A 
ATOM      6  C   UNL d   1      33.106  21.082 -23.397  0.00  0.00     0.023 A 
ATOM      7  O   UNL d   1      32.713  19.599 -21.414  0.00  0.00    -0.259 OA
ATOM      8  C   UNL d   1      32.990  22.207 -22.528  0.00  0.00     0.023 A 
ATOM      9  C   UNL d   1      33.232  21.565 -24.033  0.00  0.00     0.002 A 
ATOM     10  C   UNL d   1      33.240  22.383 -23.930  0.00  0.00     0.000 A 
ATOM     11  C   UNL d   1      33.117  22.710 -23.164  0.00  0.00     0.002 A 
ENDROOT
BRANCH   1  12
ATOM     12  C   UNL d   1      32.966  18.928 -22.988  0.00  0.00     0.270 C 
ATOM     13  N   UNL d   1      32.700  18.646 -23.707  0.00  0.00    -0.272 N 
ATOM     14  O   UNL d   1      33.237  18.395 -22.382  0.00  0.00    -0.266 OA
BRANCH  13  15
ATOM     15  C   UNL d   1      32.440  19.169 -24.287  0.00  0.00     0.083 C 
ATOM     16  C   UNL d   1      32.320  18.911 -25.051  0.00  0.00     0.021 C 
ENDBRANCH  13  15
BRANCH  13  17
ATOM     17  C   UNL d   1      32.688  17.836 -23.859  0.00  0.00     0.083 C 
ATOM     18  C   UNL d   1      32.067  17.379 -23.583  0.00  0.00     0.021 C 
ENDBRANCH  13  17
ENDBRANCH   1  12
BRANCH   8  19
ATOM     19  C   UNL d   1      32.868  22.519 -21.775  0.00  0.00     0.002 C 
BRANCH  19  20
ATOM     20  C   UNL d   1      33.047  23.296 -21.620  0.00  0.00     0.000 C 
ATOM     21  C   UNL d   1      33.156  23.557 -20.831  0.00  0.00     0.000 C 
ENDBRANCH  19  20
ENDBRANCH   8  19
TORSDOF 5
ENDMDL
MODEL 5
REMARK VINA RESULT:       1.6      1.646      3.915
REMARK  5 active torsions:
REMARK  status: ('A' for Active; 'I' for Inactive)
REMARK    1  A    between atoms: C_4  and  C_1 
REMARK       I    between atoms: N_8  and  C_4 
REMARK    2  A    between atoms: C_17  and  N_8 
REMARK    3  A    between atoms: C_18  and  N_8 
REMARK    4  A    between atoms: C_15  and  C_11 
REMARK    5  A    between atoms: C_12  and  C_15 
ROOT
ATOM      1  C   UNL d   1      30.223  16.476 -24.150  0.00  0.00     0.120 A 
ATOM      2  C   UNL d   1      30.302  17.309 -24.248  0.00  0.00     0.305 A 
ATOM      3  O   UNL d   1      31.029  17.665 -24.094  0.00  0.00    -0.273 OA
ATOM      4  C   UNL d   1      30.875  16.030 -23.900  0.00  0.00     0.012 A 
ATOM      5  C   UNL d   1      31.676  17.212 -23.844  0.00  0.00     0.103 A 
ATOM      6  C   UNL d   1      31.599  16.394 -23.748  0.00  0.00     0.023 A 
ATOM      7  O   UNL d   1      29.657  17.789 -24.501  0.00  0.00    -0.259 OA
ATOM      8  C   UNL d   1      32.383  17.584 -23.698  0.00  0.00     0.023 A 
ATOM      9  C   UNL d   1      32.229  15.949 -23.504  0.00  0.00     0.002 A 
ATOM     10  C   UNL d   1      32.953  16.313 -23.352  0.00  0.00     0.000 A 
ATOM     11  C   UNL d   1      33.032  17.146 -23.451  0.00  0.00     0.002 A 
ENDROOT
BRANCH   1  12
ATOM     12  C   UNL d   1      29.496  16.078 -24.298  0.00  0.00     0.270 C 
ATOM     13  N   UNL d   1      29.039  15.843 -23.662  0.00  0.00    -0.272 N 
ATOM     14  O   UNL d   1      29.246  15.926 -25.097  0.00  0.00    -0.266 OA
BRANCH  13  15
ATOM     15  C   UNL d   1      29.290  15.995 -22.893  0.00  0.00     0.083 C 
ATOM     16  C   UNL d   1      29.078  15.497 -22.285  0.00  0.00     0.021 C 
ENDBRANCH  13  15
BRANCH  13  17
ATOM     17  C   UNL d   1      28.324  15.452 -23.784  0.00  0.00     0.083 C 
ATOM     18  C   UNL d   1      27.662  15.672 -23.355  0.00  0.00     0.021 C 
ENDBRANCH  13  17
ENDBRANCH   1  12
BRANCH   8  19
ATOM     19  C   UNL d   1      32.452  18.399 -23.797  0.00  0.00     0.002 C 
BRANCH  19  20
ATOM     20  C   UNL d   1      33.180  18.758 -23.753  0.00  0.00     0.000 C 
ATOM     21  C   UNL d   1      33.239  19.590 -23.672  0.00  0.00     0.000 C 
ENDBRANCH  19  20
ENDBRANCH   8  19
TORSDOF 5
ENDMDL
