MODEL 1
REMARK VINA RESULT:       9.8      0.000      0.000
REMARK  6 active torsions:
REMARK  status: ('A' for Active; 'I' for Inactive)
REMARK    1  A    between atoms: C_6  and  N_2 
REMARK    2  A    between atoms: C_7  and  C_3 
REMARK    3  A    between atoms: C_8  and  C_6 
REMARK    4  A    between atoms: C_14  and  C_8 
REMARK    5  A    between atoms: C_9  and  O_12 
REMARK    6  A    between atoms: O_12  and  C_14 
ROOT
ATOM      1  N   UNL d   1      46.154 -19.997  42.695  0.00  0.00    -0.224 NA
ATOM      2  N   UNL d   1      46.353 -18.799  43.257  0.00  0.00    -0.286 N 
ATOM      3  C   UNL d   1      46.178 -19.599  43.432  0.00  0.00     0.191 A 
ATOM      4  C   UNL d   1      46.433 -18.711  42.448  0.00  0.00     0.083 A 
ATOM      5  C   UNL d   1      46.304 -19.486  42.084  0.00  0.00     0.099 A 
ATOM      6  C   UNL d   1      46.600 -18.058  41.992  0.00  0.00     0.019 A 
ATOM      7  C   UNL d   1      46.363 -19.509  41.252  0.00  0.00     0.021 A 
ATOM      8  C   UNL d   1      46.641 -18.156  41.190  0.00  0.00     0.002 A 
ATOM      9  C   UNL d   1      46.521 -18.879  40.850  0.00  0.00     0.002 A 
ENDROOT
BRANCH   2  10
ATOM     10  C   UNL d   1      46.399 -18.329  43.902  0.00  0.00     0.084 C 
BRANCH  10  11
ATOM     11  C   UNL d   1      46.377 -17.506  43.857  0.00  0.00     0.046 C 
BRANCH  11  12
ATOM     12  C   UNL d   1      45.977 -17.035  44.393  0.00  0.00     0.124 C 
BRANCH  12  13
ATOM     13  O   UNL d   1      46.254 -16.309  44.643  0.00  0.00    -0.305 OA
BRANCH  13  14
ATOM     14  C   UNL d   1      45.778 -15.638  44.705  0.00  0.00     0.100 A 
ATOM     15  C   UNL d   1      44.975 -15.663  44.890  0.00  0.00     0.025 A 
ATOM     16  C   UNL d   1      44.501 -14.993  44.952  0.00  0.00     0.002 A 
ATOM     17  C   UNL d   1      44.853 -14.245  44.819  0.00  0.00     0.000 A 
ATOM     18  C   UNL d   1      45.667 -14.193  44.630  0.00  0.00     0.002 A 
ATOM     19  C   UNL d   1      46.131 -14.889  44.573  0.00  0.00     0.025 A 
ENDBRANCH  13  14
ENDBRANCH  12  13
ENDBRANCH  11  12
ENDBRANCH  10  11
ENDBRANCH   2  10
BRANCH   3  20
ATOM     20  C   UNL d   1      46.136 -19.501  44.235  0.00  0.00     0.271 C 
ATOM     21  O   UNL d   1      45.893 -20.148  44.711  0.00  0.00    -0.280 OA
ENDBRANCH   3  20
TORSDOF 6
ENDMDL
