MODEL 1
REMARK VINA RESULT:      53.2      0.000      0.000
REMARK  4 active torsions:
REMARK  status: ('A' for Active; 'I' for Inactive)
REMARK       I    between atoms: N_3  and  C_1 
REMARK       I    between atoms: N_7  and  C_1 
REMARK    1  A    between atoms: C_2  and  N_3 
REMARK    2  A    between atoms: C_4  and  C_5 
REMARK    3  A    between atoms: O_13  and  C_4 
REMARK    4  A    between atoms: C_15  and  N_7 
ROOT
ATOM      1  C   UNL d   1      60.810  48.963  50.780  0.00  0.00     0.097 A 
ATOM      2  C   UNL d   1      59.470  49.452  50.732  0.00  0.00     0.065 A 
ATOM      3  C   UNL d   1      60.109  49.083  50.364  0.00  0.00     0.025 A 
ATOM      4  C   UNL d   1      60.873  49.212  51.565  0.00  0.00     0.075 A 
ATOM      5  C   UNL d   1      59.534  49.703  51.525  0.00  0.00     0.006 A 
ATOM      6  C   UNL d   1      60.235  49.581  51.934  0.00  0.00     0.013 A 
ATOM      7 CL   UNL d   1      61.578  49.091  51.982  0.00  0.00    -0.081 Cl
ENDROOT
BRANCH   1   8
ATOM      8  N   UNL d   1      61.449  48.594  50.412  0.00  0.00    -0.190 NA
ATOM      9  C   UNL d   1      61.403  47.796  50.213  0.00  0.00     0.369 C 
ATOM     10  N   UNL d   1      62.045  47.428  49.844  0.00  0.00    -0.191 NA
ATOM     11  O   UNL d   1      60.719  47.365  50.383  0.00  0.00    -0.242 OA
BRANCH  10  12
ATOM     12  C   UNL d   1      62.001  46.627  49.644  0.00  0.00     0.086 A 
ATOM     13  C   UNL d   1      62.504  46.324  49.058  0.00  0.00     0.019 A 
ATOM     14  C   UNL d   1      62.452  45.523  48.867  0.00  0.00     0.002 A 
ATOM     15  C   UNL d   1      61.909  45.032  49.251  0.00  0.00     0.000 A 
ATOM     16  C   UNL d   1      61.420  45.342  49.825  0.00  0.00     0.002 A 
ATOM     17  C   UNL d   1      61.459  46.136  50.028  0.00  0.00     0.019 A 
ENDBRANCH  10  12
ENDBRANCH   1   8
BRANCH   2  18
ATOM     18  C   UNL d   1      58.761  49.575  50.316  0.00  0.00     0.296 C 
ATOM     19  O   UNL d   1      58.763  49.563  49.490  0.00  0.00    -0.259 OA
BRANCH  18  20
ATOM     20  O   UNL d   1      58.058  49.707  50.725  0.00  0.00    -0.296 OA
ATOM     21  C   UNL d   1      57.338  49.708  50.321  0.00  0.00     0.185 C 
ENDBRANCH  18  20
ENDBRANCH   2  18
TORSDOF 4
ENDMDL
