MODEL 1
REMARK VINA RESULT:      50.9      0.000      0.000
REMARK  2 active torsions:
REMARK  status: ('A' for Active; 'I' for Inactive)
REMARK    1  A    between atoms: C_7  and  N_2 
REMARK    2  A    between atoms: C_9  and  C_5 
ROOT
ATOM      1  C   UNL d   1     -51.632  26.110  33.464  0.00  0.00     0.208 A 
ATOM      2  N   UNL d   1     -51.492  25.294  33.480  0.00  0.00    -0.266 N 
ATOM      3  N   UNL d   1     -51.000  26.632  33.507  0.00  0.00    -0.199 NA
ATOM      4  N   UNL d   1     -50.085  25.538  33.582  0.00  0.00    -0.206 NA
ATOM      5  C   UNL d   1     -50.226  26.354  33.566  0.00  0.00     0.167 A 
ATOM      6  C   UNL d   1     -50.723  25.018  33.538  0.00  0.00     0.186 A 
ATOM      7  S   UNL d   1     -52.398  26.411  33.406  0.00  0.00    -0.038 SA
ENDROOT
BRANCH   2   8
ATOM      8  C   UNL d   1     -52.117  24.776  33.437  0.00  0.00     0.068 A 
ATOM      9  C   UNL d   1     -52.868  25.055  33.372  0.00  0.00     0.018 A 
ATOM     10  C   UNL d   1     -53.531  24.531  33.327  0.00  0.00     0.002 A 
ATOM     11  C   UNL d   1     -53.393  23.724  33.350  0.00  0.00     0.000 A 
ATOM     12  C   UNL d   1     -52.623  23.435  33.417  0.00  0.00     0.002 A 
ATOM     13  C   UNL d   1     -54.035  23.190  33.307  0.00  0.00     0.000 C 
ATOM     14  C   UNL d   1     -51.979  23.969  33.461  0.00  0.00     0.018 A 
ENDBRANCH   2   8
BRANCH   5  15
ATOM     15  C   UNL d   1     -49.613  26.872  33.608  0.00  0.00     0.036 A 
ATOM     16  C   UNL d   1     -48.876  26.626  33.895  0.00  0.00     0.003 A 
ATOM     17  C   UNL d   1     -48.245  27.148  33.941  0.00  0.00     0.000 A 
ATOM     18  C   UNL d   1     -48.346  27.944  33.694  0.00  0.00     0.000 A 
ATOM     19  C   UNL d   1     -49.073  28.196  33.407  0.00  0.00     0.000 A 
ATOM     20  C   UNL d   1     -49.713  27.669  33.360  0.00  0.00     0.003 A 
ENDBRANCH   5  15
TORSDOF 2
ENDMDL
