MODEL 1
REMARK VINA RESULT:      90.2      0.000      0.000
REMARK  7 active torsions:
REMARK  status: ('A' for Active; 'I' for Inactive)
REMARK    1  A    between atoms: C_5  and  N_1 
REMARK    2  A    between atoms: S_12  and  C_2 
REMARK       I    between atoms: N_3  and  C_9 
REMARK    3  A    between atoms: C_15  and  C_4 
REMARK    4  A    between atoms: C_9  and  C_20 
REMARK       I    between atoms: C_10  and  N_14 
REMARK    5  A    between atoms: C_11  and  C_10 
REMARK    6  A    between atoms: C_20  and  S_12 
REMARK    7  A    between atoms: N_14  and  C_15 
ROOT
ATOM      1  N   UNL d   1      14.379  15.439  -4.004  0.00  0.00    -0.268 N 
ATOM      2  C   UNL d   1      14.638  16.220  -3.924  0.00  0.00     0.201 A 
ATOM      3  C   UNL d   1      14.334  15.102  -3.246  0.00  0.00     0.190 A 
ATOM      4  N   UNL d   1      14.755  16.372  -3.113  0.00  0.00    -0.121 NA
ATOM      5  N   UNL d   1      14.568  15.683  -2.695  0.00  0.00    -0.126 NA
ENDROOT
BRANCH   2   6
ATOM      6  S   UNL d   1      14.758  16.752  -4.531  0.00  0.00    -0.043 SA
BRANCH   6   7
ATOM      7  C   UNL d   1      14.361  17.478  -4.540  0.00  0.00     0.099 C 
BRANCH   7   8
ATOM      8  C   UNL d   1      14.715  18.142  -4.856  0.00  0.00     0.271 C 
ATOM      9  N   UNL d   1      14.268  18.697  -5.263  0.00  0.00    -0.273 N 
ATOM     10  C   UNL d   1      14.554  19.389  -5.608  0.00  0.00     0.067 A 
ATOM     11  C   UNL d   1      13.457  18.656  -5.396  0.00  0.00     0.083 A 
ATOM     12  C   UNL d   1      13.911  19.777  -5.957  0.00  0.00     0.018 A 
ATOM     13  C   UNL d   1      15.316  19.706  -5.645  0.00  0.00     0.018 A 
ATOM     14  C   UNL d   1      14.036  20.491  -6.345  0.00  0.00     0.002 A 
ATOM     15  C   UNL d   1      13.245  19.327  -5.824  0.00  0.00     0.021 A 
ATOM     16  C   UNL d   1      14.801  20.820  -6.389  0.00  0.00     0.000 A 
ATOM     17  C   UNL d   1      15.435  20.428  -6.040  0.00  0.00     0.002 A 
ATOM     18  O   UNL d   1      15.531  18.257  -4.766  0.00  0.00    -0.266 OA
ENDBRANCH   7   8
ENDBRANCH   6   7
ENDBRANCH   2   6
BRANCH   1  19
ATOM     19  C   UNL d   1      14.199  15.063  -4.704  0.00  0.00     0.067 A 
ATOM     20  C   UNL d   1      13.415  14.959  -4.925  0.00  0.00     0.016 A 
ATOM     21  C   UNL d   1      13.232  14.577  -5.635  0.00  0.00     0.001 A 
ATOM     22  C   UNL d   1      12.808  15.231  -4.446  0.00  0.00     0.002 C 
ATOM     23  C   UNL d   1      13.835  14.304  -6.117  0.00  0.00     0.000 A 
ATOM     24  C   UNL d   1      14.629  14.411  -5.890  0.00  0.00     0.001 A 
ATOM     25  C   UNL d   1      14.813  14.786  -5.192  0.00  0.00     0.018 A 
ATOM     26  C   UNL d   1      15.229  14.131  -6.384  0.00  0.00     0.000 C 
ENDBRANCH   1  19
BRANCH   3  27
ATOM     27  C   UNL d   1      14.101  14.332  -3.068  0.00  0.00     0.141 C 
BRANCH  27  28
ATOM     28  N   UNL d   1      14.373  13.969  -2.380  0.00  0.00    -0.202 NA
ATOM     29  C   UNL d   1      14.172  13.181  -2.230  0.00  0.00     0.302 C 
ATOM     30  O   UNL d   1      13.703  12.767  -2.770  0.00  0.00    -0.263 OA
BRANCH  29  31
ATOM     31  C   UNL d   1      14.437  12.804  -1.543  0.00  0.00     0.158 A 
ATOM     32  O   UNL d   1      15.134  12.378  -1.481  0.00  0.00    -0.300 OA
ATOM     33  C   UNL d   1      15.191  12.095  -0.709  0.00  0.00     0.123 A 
ATOM     34  C   UNL d   1      14.517  12.356  -0.300  0.00  0.00     0.029 A 
ATOM     35  C   UNL d   1      14.053  12.794  -0.821  0.00  0.00     0.032 A 
ENDBRANCH  29  31
ENDBRANCH  27  28
ENDBRANCH   3  27
TORSDOF 7
ENDMDL
MODEL 2
REMARK VINA RESULT:      90.3      1.425      2.433
REMARK  7 active torsions:
REMARK  status: ('A' for Active; 'I' for Inactive)
REMARK    1  A    between atoms: C_5  and  N_1 
REMARK    2  A    between atoms: S_12  and  C_2 
REMARK       I    between atoms: N_3  and  C_9 
REMARK    3  A    between atoms: C_15  and  C_4 
REMARK    4  A    between atoms: C_9  and  C_20 
REMARK       I    between atoms: C_10  and  N_14 
REMARK    5  A    between atoms: C_11  and  C_10 
REMARK    6  A    between atoms: C_20  and  S_12 
REMARK    7  A    between atoms: N_14  and  C_15 
ROOT
ATOM      1  N   UNL d   1      14.695  15.948  -2.832  0.00  0.00    -0.268 N 
ATOM      2  C   UNL d   1      14.798  16.146  -3.628  0.00  0.00     0.201 A 
ATOM      3  C   UNL d   1      14.327  15.204  -2.796  0.00  0.00     0.190 A 
ATOM      4  N   UNL d   1      14.493  15.524  -4.091  0.00  0.00    -0.121 NA
ATOM      5  N   UNL d   1      14.203  14.943  -3.578  0.00  0.00    -0.126 NA
ENDROOT
BRANCH   2   6
ATOM      6  S   UNL d   1      15.138  16.831  -3.913  0.00  0.00    -0.043 SA
BRANCH   6   7
ATOM      7  C   UNL d   1      15.008  17.073  -4.693  0.00  0.00     0.099 C 
BRANCH   7   8
ATOM      8  C   UNL d   1      15.053  17.862  -4.898  0.00  0.00     0.271 C 
ATOM      9  N   UNL d   1      14.469  18.204  -5.362  0.00  0.00    -0.273 N 
ATOM     10  C   UNL d   1      14.446  18.991  -5.608  0.00  0.00     0.067 A 
ATOM     11  C   UNL d   1      13.806  17.820  -5.661  0.00  0.00     0.083 A 
ATOM     12  C   UNL d   1      13.762  19.090  -6.063  0.00  0.00     0.018 A 
ATOM     13  C   UNL d   1      14.964  19.621  -5.471  0.00  0.00     0.018 A 
ATOM     14  C   UNL d   1      13.597  19.829  -6.383  0.00  0.00     0.002 A 
ATOM     15  C   UNL d   1      13.375  18.374  -6.092  0.00  0.00     0.021 A 
ATOM     16  C   UNL d   1      14.112  20.472  -6.252  0.00  0.00     0.000 A 
ATOM     17  C   UNL d   1      14.790  20.364  -5.799  0.00  0.00     0.002 A 
ATOM     18  O   UNL d   1      15.691  18.320  -4.636  0.00  0.00    -0.266 OA
ENDBRANCH   7   8
ENDBRANCH   6   7
ENDBRANCH   2   6
BRANCH   1  19
ATOM     19  C   UNL d   1      14.915  16.402  -2.192  0.00  0.00     0.067 A 
ATOM     20  C   UNL d   1      14.543  17.119  -2.049  0.00  0.00     0.016 A 
ATOM     21  C   UNL d   1      14.767  17.580  -1.400  0.00  0.00     0.001 A 
ATOM     22  C   UNL d   1      13.947  17.385  -2.546  0.00  0.00     0.002 C 
ATOM     23  C   UNL d   1      15.360  17.319  -0.901  0.00  0.00     0.000 A 
ATOM     24  C   UNL d   1      15.736  16.591  -1.049  0.00  0.00     0.001 A 
ATOM     25  C   UNL d   1      15.519  16.134  -1.686  0.00  0.00     0.018 A 
ATOM     26  C   UNL d   1      16.334  16.337  -0.539  0.00  0.00     0.000 C 
ENDBRANCH   1  19
BRANCH   3  27
ATOM     27  C   UNL d   1      14.120  14.795  -2.110  0.00  0.00     0.141 C 
BRANCH  27  28
ATOM     28  N   UNL d   1      14.432  14.046  -1.970  0.00  0.00    -0.202 NA
ATOM     29  C   UNL d   1      14.405  13.732  -1.204  0.00  0.00     0.302 C 
ATOM     30  O   UNL d   1      14.066  14.172  -0.593  0.00  0.00    -0.263 OA
BRANCH  29  31
ATOM     31  C   UNL d   1      14.715  12.982  -1.048  0.00  0.00     0.158 A 
ATOM     32  O   UNL d   1      15.335  12.636  -1.455  0.00  0.00    -0.300 OA
ATOM     33  C   UNL d   1      15.471  11.891  -1.128  0.00  0.00     0.123 A 
ATOM     34  C   UNL d   1      14.922  11.788  -0.514  0.00  0.00     0.029 A 
ATOM     35  C   UNL d   1      14.455  12.465  -0.468  0.00  0.00     0.032 A 
ENDBRANCH  29  31
ENDBRANCH  27  28
ENDBRANCH   3  27
TORSDOF 7
ENDMDL
MODEL 3
REMARK VINA RESULT:      90.5      1.695      6.175
REMARK  7 active torsions:
REMARK  status: ('A' for Active; 'I' for Inactive)
REMARK    1  A    between atoms: C_5  and  N_1 
REMARK    2  A    between atoms: S_12  and  C_2 
REMARK       I    between atoms: N_3  and  C_9 
REMARK    3  A    between atoms: C_15  and  C_4 
REMARK    4  A    between atoms: C_9  and  C_20 
REMARK       I    between atoms: C_10  and  N_14 
REMARK    5  A    between atoms: C_11  and  C_10 
REMARK    6  A    between atoms: C_20  and  S_12 
REMARK    7  A    between atoms: N_14  and  C_15 
ROOT
ATOM      1  N   UNL d   1      14.268  16.746  -5.557  0.00  0.00    -0.268 N 
ATOM      2  C   UNL d   1      13.767  16.089  -5.578  0.00  0.00     0.201 A 
ATOM      3  C   UNL d   1      13.946  17.332  -6.048  0.00  0.00     0.190 A 
ATOM      4  N   UNL d   1      13.129  16.266  -6.085  0.00  0.00    -0.121 NA
ATOM      5  N   UNL d   1      13.240  17.032  -6.375  0.00  0.00    -0.126 NA
ENDROOT
BRANCH   2   6
ATOM      6  S   UNL d   1      13.875  15.388  -5.174  0.00  0.00    -0.043 SA
BRANCH   6   7
ATOM      7  C   UNL d   1      13.257  15.054  -4.736  0.00  0.00     0.099 C 
BRANCH   7   8
ATOM      8  C   UNL d   1      13.412  14.546  -4.117  0.00  0.00     0.271 C 
ATOM      9  N   UNL d   1      13.224  13.749  -4.179  0.00  0.00    -0.273 N 
ATOM     10  C   UNL d   1      13.351  13.177  -3.598  0.00  0.00     0.067 A 
ATOM     11  C   UNL d   1      12.878  13.385  -4.830  0.00  0.00     0.083 A 
ATOM     12  C   UNL d   1      13.079  12.454  -3.897  0.00  0.00     0.018 A 
ATOM     13  C   UNL d   1      13.678  13.230  -2.841  0.00  0.00     0.018 A 
ATOM     14  C   UNL d   1      13.137  11.780  -3.431  0.00  0.00     0.002 A 
ATOM     15  C   UNL d   1      12.792  12.586  -4.648  0.00  0.00     0.021 A 
ATOM     16  C   UNL d   1      13.466  11.822  -2.665  0.00  0.00     0.000 A 
ATOM     17  C   UNL d   1      13.734  12.544  -2.375  0.00  0.00     0.002 A 
ATOM     18  O   UNL d   1      13.761  14.834  -3.424  0.00  0.00    -0.266 OA
ENDBRANCH   7   8
ENDBRANCH   6   7
ENDBRANCH   2   6
BRANCH   1  19
ATOM     19  C   UNL d   1      14.958  16.809  -5.128  0.00  0.00     0.067 A 
ATOM     20  C   UNL d   1      15.679  16.650  -5.485  0.00  0.00     0.016 A 
ATOM     21  C   UNL d   1      16.380  16.714  -5.050  0.00  0.00     0.001 A 
ATOM     22  C   UNL d   1      15.714  16.428  -6.274  0.00  0.00     0.002 C 
ATOM     23  C   UNL d   1      16.351  16.935  -4.263  0.00  0.00     0.000 A 
ATOM     24  C   UNL d   1      15.618  17.096  -3.903  0.00  0.00     0.001 A 
ATOM     25  C   UNL d   1      14.926  17.034  -4.328  0.00  0.00     0.018 A 
ATOM     26  C   UNL d   1      15.600  17.318  -3.108  0.00  0.00     0.000 C 
ENDBRANCH   1  19
BRANCH   3  27
ATOM     27  C   UNL d   1      14.266  18.080  -6.190  0.00  0.00     0.141 C 
BRANCH  27  28
ATOM     28  N   UNL d   1      13.884  18.750  -5.904  0.00  0.00    -0.202 NA
ATOM     29  C   UNL d   1      14.240  19.492  -5.999  0.00  0.00     0.302 C 
ATOM     30  O   UNL d   1      14.971  19.550  -6.379  0.00  0.00    -0.263 OA
BRANCH  29  31
ATOM     31  C   UNL d   1      13.868  20.174  -5.717  0.00  0.00     0.158 A 
ATOM     32  O   UNL d   1      13.071  20.235  -5.538  0.00  0.00    -0.300 OA
ATOM     33  C   UNL d   1      12.927  21.003  -5.275  0.00  0.00     0.123 A 
ATOM     34  C   UNL d   1      13.650  21.410  -5.297  0.00  0.00     0.029 A 
ATOM     35  C   UNL d   1      14.230  20.894  -5.571  0.00  0.00     0.032 A 
ENDBRANCH  29  31
ENDBRANCH  27  28
ENDBRANCH   3  27
TORSDOF 7
ENDMDL
MODEL 4
REMARK VINA RESULT:      90.9      1.910      2.773
REMARK  7 active torsions:
REMARK  status: ('A' for Active; 'I' for Inactive)
REMARK    1  A    between atoms: C_5  and  N_1 
REMARK    2  A    between atoms: S_12  and  C_2 
REMARK       I    between atoms: N_3  and  C_9 
REMARK    3  A    between atoms: C_15  and  C_4 
REMARK    4  A    between atoms: C_9  and  C_20 
REMARK       I    between atoms: C_10  and  N_14 
REMARK    5  A    between atoms: C_11  and  C_10 
REMARK    6  A    between atoms: C_20  and  S_12 
REMARK    7  A    between atoms: N_14  and  C_15 
ROOT
ATOM      1  N   UNL d   1      14.303  16.455  -4.556  0.00  0.00    -0.268 N 
ATOM      2  C   UNL d   1      14.271  16.982  -5.191  0.00  0.00     0.201 A 
ATOM      3  C   UNL d   1      13.810  15.810  -4.729  0.00  0.00     0.190 A 
ATOM      4  N   UNL d   1      13.756  16.665  -5.765  0.00  0.00    -0.121 NA
ATOM      5  N   UNL d   1      13.472  15.943  -5.480  0.00  0.00    -0.126 NA
ENDROOT
BRANCH   2   6
ATOM      6  S   UNL d   1      14.673  17.690  -5.250  0.00  0.00    -0.043 SA
BRANCH   6   7
ATOM      7  C   UNL d   1      14.460  18.250  -5.821  0.00  0.00     0.099 C 
BRANCH   7   8
ATOM      8  C   UNL d   1      14.742  19.014  -5.781  0.00  0.00     0.271 C 
ATOM      9  N   UNL d   1      14.225  19.642  -5.670  0.00  0.00    -0.273 N 
ATOM     10  C   UNL d   1      14.435  20.438  -5.620  0.00  0.00     0.067 A 
ATOM     11  C   UNL d   1      13.408  19.584  -5.592  0.00  0.00     0.083 A 
ATOM     12  C   UNL d   1      13.739  20.873  -5.509  0.00  0.00     0.018 A 
ATOM     13  C   UNL d   1      15.171  20.812  -5.661  0.00  0.00     0.018 A 
ATOM     14  C   UNL d   1      13.784  21.691  -5.439  0.00  0.00     0.002 A 
ATOM     15  C   UNL d   1      13.116  20.348  -5.492  0.00  0.00     0.021 A 
ATOM     16  C   UNL d   1      14.521  22.079  -5.480  0.00  0.00     0.000 A 
ATOM     17  C   UNL d   1      15.208  21.639  -5.590  0.00  0.00     0.002 A 
ATOM     18  O   UNL d   1      15.555  19.158  -5.851  0.00  0.00    -0.266 OA
ENDBRANCH   7   8
ENDBRANCH   6   7
ENDBRANCH   2   6
BRANCH   1  19
ATOM     19  C   UNL d   1      14.742  16.550  -3.875  0.00  0.00     0.067 A 
ATOM     20  C   UNL d   1      15.560  16.510  -3.905  0.00  0.00     0.016 A 
ATOM     21  C   UNL d   1      16.006  16.607  -3.215  0.00  0.00     0.001 A 
ATOM     22  C   UNL d   1      15.944  16.374  -4.617  0.00  0.00     0.002 C 
ATOM     23  C   UNL d   1      15.627  16.742  -2.502  0.00  0.00     0.000 A 
ATOM     24  C   UNL d   1      14.796  16.782  -2.475  0.00  0.00     0.001 A 
ATOM     25  C   UNL d   1      14.354  16.688  -3.152  0.00  0.00     0.018 A 
ATOM     26  C   UNL d   1      14.424  16.920  -1.751  0.00  0.00     0.000 C 
ENDBRANCH   1  19
BRANCH   3  27
ATOM     27  C   UNL d   1      13.676  15.154  -4.247  0.00  0.00     0.141 C 
BRANCH  27  28
ATOM     28  N   UNL d   1      13.591  14.408  -4.584  0.00  0.00    -0.202 NA
ATOM     29  C   UNL d   1      13.140  13.835  -4.192  0.00  0.00     0.302 C 
ATOM     30  O   UNL d   1      12.783  14.017  -3.470  0.00  0.00    -0.263 OA
BRANCH  29  31
ATOM     31  C   UNL d   1      13.046  13.081  -4.519  0.00  0.00     0.158 A 
ATOM     32  O   UNL d   1      13.205  12.883  -5.297  0.00  0.00    -0.300 OA
ATOM     33  C   UNL d   1      13.039  12.082  -5.396  0.00  0.00     0.123 A 
ATOM     34  C   UNL d   1      12.775  11.793  -4.663  0.00  0.00     0.029 A 
ATOM     35  C   UNL d   1      12.781  12.415  -4.123  0.00  0.00     0.032 A 
ENDBRANCH  29  31
ENDBRANCH  27  28
ENDBRANCH   3  27
TORSDOF 7
ENDMDL
