MODEL 1
REMARK VINA RESULT:      -3.2      0.000      0.000
REMARK  4 active torsions:
REMARK  status: ('A' for Active; 'I' for Inactive)
REMARK    1  A    between atoms: N_2  and  S_1 
REMARK    2  A    between atoms: C_3  and  S_1 
REMARK    3  A    between atoms: C_6  and  N_2 
REMARK    4  A    between atoms: C_13  and  N_2 
ROOT
ATOM      1  S   UNL d   1      30.855  16.540 -24.176  0.00  0.00     0.271 S 
ATOM      2  O   UNL d   1      31.072  16.207 -23.538  0.00  0.00    -0.200 OA
ATOM      3  O   UNL d   1      30.588  16.898 -24.866  0.00  0.00    -0.200 OA
ENDROOT
BRANCH   1   4
ATOM      4  N   UNL d   1      31.642  16.678 -24.409  0.00  0.00    -0.231 N 
BRANCH   4   5
ATOM      5  C   UNL d   1      32.069  17.302 -24.071  0.00  0.00     0.075 A 
ATOM      6  C   UNL d   1      32.120  18.029 -24.473  0.00  0.00     0.018 A 
ATOM      7  C   UNL d   1      32.546  18.660 -24.138  0.00  0.00     0.002 A 
ATOM      8  C   UNL d   1      32.921  18.563 -23.401  0.00  0.00     0.000 A 
ATOM      9  C   UNL d   1      32.867  17.834 -23.002  0.00  0.00     0.002 A 
ATOM     10  C   UNL d   1      32.441  17.204 -23.336  0.00  0.00     0.018 A 
ENDBRANCH   4   5
BRANCH   4  11
ATOM     11  C   UNL d   1      31.996  16.191 -24.979  0.00  0.00     0.092 C 
ATOM     12  C   UNL d   1      32.505  15.584 -24.747  0.00  0.00     0.021 C 
ENDBRANCH   4  11
ENDBRANCH   1   4
BRANCH   1  13
ATOM     13  C   UNL d   1      30.134  16.429 -23.992  0.00  0.00     0.104 A 
ATOM     14  C   UNL d   1      29.945  15.922 -23.459  0.00  0.00     0.015 A 
ATOM     15  C   UNL d   1      29.229  15.817 -23.282  0.00  0.00     0.022 A 
ATOM     16  C   UNL d   1      28.691  16.207 -23.625  0.00  0.00     0.103 A 
ATOM     17  C   UNL d   1      28.865  16.710 -24.153  0.00  0.00     0.022 A 
ATOM     18  N   UNL d   1      27.971  16.094 -23.440  0.00  0.00    -0.148 N 
ATOM     19  C   UNL d   1      29.586  16.824 -24.340  0.00  0.00     0.015 A 
ENDBRANCH   1  13
TORSDOF 4
ENDMDL
MODEL 2
REMARK VINA RESULT:      -3.2      0.315      1.067
REMARK  4 active torsions:
REMARK  status: ('A' for Active; 'I' for Inactive)
REMARK    1  A    between atoms: N_2  and  S_1 
REMARK    2  A    between atoms: C_3  and  S_1 
REMARK    3  A    between atoms: C_6  and  N_2 
REMARK    4  A    between atoms: C_13  and  N_2 
ROOT
ATOM      1  S   UNL d   1      30.939  16.334 -23.970  0.00  0.00     0.271 S 
ATOM      2  O   UNL d   1      30.795  16.624 -24.649  0.00  0.00    -0.200 OA
ATOM      3  O   UNL d   1      31.064  16.013 -23.224  0.00  0.00    -0.200 OA
ENDROOT
BRANCH   1   4
ATOM      4  N   UNL d   1      31.760  16.424 -24.070  0.00  0.00    -0.231 N 
BRANCH   4   5
ATOM      5  C   UNL d   1      32.113  17.161 -23.933  0.00  0.00     0.075 A 
ATOM      6  C   UNL d   1      32.475  17.313 -23.200  0.00  0.00     0.018 A 
ATOM      7  C   UNL d   1      32.830  18.051 -23.056  0.00  0.00     0.002 A 
ATOM      8  C   UNL d   1      32.824  18.637 -23.647  0.00  0.00     0.000 A 
ATOM      9  C   UNL d   1      32.460  18.481 -24.381  0.00  0.00     0.002 A 
ATOM     10  C   UNL d   1      32.105  17.744 -24.524  0.00  0.00     0.018 A 
ENDBRANCH   4   5
BRANCH   4  11
ATOM     11  C   UNL d   1      32.221  15.777 -24.306  0.00  0.00     0.092 C 
ATOM     12  C   UNL d   1      32.439  15.689 -25.097  0.00  0.00     0.021 C 
ENDBRANCH   4  11
ENDBRANCH   1   4
BRANCH   1  13
ATOM     13  C   UNL d   1      30.201  16.239 -23.851  0.00  0.00     0.104 A 
ATOM     14  C   UNL d   1      29.691  16.575 -24.303  0.00  0.00     0.015 A 
ATOM     15  C   UNL d   1      28.963  16.477 -24.179  0.00  0.00     0.022 A 
ATOM     16  C   UNL d   1      28.727  16.050 -23.612  0.00  0.00     0.103 A 
ATOM     17  C   UNL d   1      29.221  15.714 -23.160  0.00  0.00     0.022 A 
ATOM     18  N   UNL d   1      27.990  15.957 -23.495  0.00  0.00    -0.148 N 
ATOM     19  C   UNL d   1      29.960  15.806 -23.276  0.00  0.00     0.015 A 
ENDBRANCH   1  13
TORSDOF 4
ENDMDL
MODEL 3
REMARK VINA RESULT:      -2.7      1.108      3.348
REMARK  4 active torsions:
REMARK  status: ('A' for Active; 'I' for Inactive)
REMARK    1  A    between atoms: N_2  and  S_1 
REMARK    2  A    between atoms: C_3  and  S_1 
REMARK    3  A    between atoms: C_6  and  N_2 
REMARK    4  A    between atoms: C_13  and  N_2 
ROOT
ATOM      1  S   UNL d   1      31.966  17.257 -24.067  0.00  0.00     0.271 S 
ATOM      2  O   UNL d   1      32.082  16.982 -23.377  0.00  0.00    -0.200 OA
ATOM      3  O   UNL d   1      31.854  17.584 -24.812  0.00  0.00    -0.200 OA
ENDROOT
BRANCH   1   4
ATOM      4  N   UNL d   1      31.609  16.550 -24.323  0.00  0.00    -0.231 N 
BRANCH   4   5
ATOM      5  C   UNL d   1      30.844  16.359 -24.068  0.00  0.00     0.075 A 
ATOM      6  C   UNL d   1      30.744  15.870 -23.402  0.00  0.00     0.018 A 
ATOM      7  C   UNL d   1      29.980  15.674 -23.141  0.00  0.00     0.002 A 
ATOM      8  C   UNL d   1      29.315  15.969 -23.545  0.00  0.00     0.000 A 
ATOM      9  C   UNL d   1      29.418  16.458 -24.211  0.00  0.00     0.002 A 
ATOM     10  C   UNL d   1      30.183  16.654 -24.472  0.00  0.00     0.018 A 
ENDBRANCH   4   5
BRANCH   4  11
ATOM     11  C   UNL d   1      32.019  16.040 -24.832  0.00  0.00     0.092 C 
ATOM     12  C   UNL d   1      32.536  15.475 -24.526  0.00  0.00     0.021 C 
ENDBRANCH   4  11
ENDBRANCH   1   4
BRANCH   1  13
ATOM     13  C   UNL d   1      32.285  17.908 -23.865  0.00  0.00     0.104 A 
ATOM     14  C   UNL d   1      32.512  18.020 -23.148  0.00  0.00     0.015 A 
ATOM     15  C   UNL d   1      32.827  18.667 -22.955  0.00  0.00     0.022 A 
ATOM     16  C   UNL d   1      32.922  19.211 -23.461  0.00  0.00     0.103 A 
ATOM     17  C   UNL d   1      32.702  19.111 -24.170  0.00  0.00     0.022 A 
ATOM     18  N   UNL d   1      33.241  19.860 -23.255  0.00  0.00    -0.148 N 
ATOM     19  C   UNL d   1      32.383  18.461 -24.376  0.00  0.00     0.015 A 
ENDBRANCH   1  13
TORSDOF 4
ENDMDL
MODEL 4
REMARK VINA RESULT:      -1.4      1.123      3.638
REMARK  4 active torsions:
REMARK  status: ('A' for Active; 'I' for Inactive)
REMARK    1  A    between atoms: N_2  and  S_1 
REMARK    2  A    between atoms: C_3  and  S_1 
REMARK    3  A    between atoms: C_6  and  N_2 
REMARK    4  A    between atoms: C_13  and  N_2 
ROOT
ATOM      1  S   UNL d   1      30.252  16.897 -24.475  0.00  0.00     0.271 S 
ATOM      2  O   UNL d   1      30.224  16.267 -24.886  0.00  0.00    -0.200 OA
ATOM      3  O   UNL d   1      30.315  17.581 -24.025  0.00  0.00    -0.200 OA
ENDROOT
BRANCH   1   4
ATOM      4  N   UNL d   1      29.428  17.002 -24.521  0.00  0.00    -0.231 N 
BRANCH   4   5
ATOM      5  C   UNL d   1      28.924  16.491 -24.106  0.00  0.00     0.075 A 
ATOM      6  C   UNL d   1      28.912  16.512 -23.275  0.00  0.00     0.018 A 
ATOM      7  C   UNL d   1      28.409  16.002 -22.853  0.00  0.00     0.002 A 
ATOM      8  C   UNL d   1      27.917  15.471 -23.263  0.00  0.00     0.000 A 
ATOM      9  C   UNL d   1      27.932  15.453 -24.096  0.00  0.00     0.002 A 
ATOM     10  C   UNL d   1      28.435  15.962 -24.518  0.00  0.00     0.018 A 
ENDBRANCH   4   5
BRANCH   4  11
ATOM     11  C   UNL d   1      29.114  17.616 -24.981  0.00  0.00     0.092 C 
ATOM     12  C   UNL d   1      28.658  18.206 -24.628  0.00  0.00     0.021 C 
ENDBRANCH   4  11
ENDBRANCH   1   4
BRANCH   1  13
ATOM     13  C   UNL d   1      31.000  16.829 -24.417  0.00  0.00     0.104 A 
ATOM     14  C   UNL d   1      31.385  16.382 -24.896  0.00  0.00     0.015 A 
ATOM     15  C   UNL d   1      32.125  16.320 -24.832  0.00  0.00     0.022 A 
ATOM     16  C   UNL d   1      32.494  16.693 -24.299  0.00  0.00     0.103 A 
ATOM     17  C   UNL d   1      32.124  17.135 -23.820  0.00  0.00     0.022 A 
ATOM     18  N   UNL d   1      33.241  16.623 -24.242  0.00  0.00    -0.148 N 
ATOM     19  C   UNL d   1      31.376  17.206 -23.876  0.00  0.00     0.015 A 
ENDBRANCH   1  13
TORSDOF 4
ENDMDL
MODEL 5
REMARK VINA RESULT:      -0.4      6.539      7.927
REMARK  4 active torsions:
REMARK  status: ('A' for Active; 'I' for Inactive)
REMARK    1  A    between atoms: N_2  and  S_1 
REMARK    2  A    between atoms: C_3  and  S_1 
REMARK    3  A    between atoms: C_6  and  N_2 
REMARK    4  A    between atoms: C_13  and  N_2 
ROOT
ATOM      1  S   UNL d   1      32.432  23.037 -19.600  0.00  0.00     0.271 S 
ATOM      2  O   UNL d   1      31.693  22.897 -19.596  0.00  0.00    -0.200 OA
ATOM      3  O   UNL d   1      33.237  23.195 -19.573  0.00  0.00    -0.200 OA
ENDROOT
BRANCH   1   4
ATOM      4  N   UNL d   1      32.484  22.906 -20.420  0.00  0.00    -0.231 N 
BRANCH   4   5
ATOM      5  C   UNL d   1      32.502  22.131 -20.713  0.00  0.00     0.075 A 
ATOM      6  C   UNL d   1      31.793  21.765 -20.947  0.00  0.00     0.018 A 
ATOM      7  C   UNL d   1      31.804  20.988 -21.242  0.00  0.00     0.002 A 
ATOM      8  C   UNL d   1      32.526  20.577 -21.303  0.00  0.00     0.000 A 
ATOM      9  C   UNL d   1      33.234  20.947 -21.068  0.00  0.00     0.002 A 
ATOM     10  C   UNL d   1      33.222  21.724 -20.773  0.00  0.00     0.018 A 
ENDBRANCH   4   5
BRANCH   4  11
ATOM     11  C   UNL d   1      32.518  23.551 -20.940  0.00  0.00     0.092 C 
ATOM     12  C   UNL d   1      33.142  23.618 -21.477  0.00  0.00     0.021 C 
ENDBRANCH   4  11
ENDBRANCH   1   4
BRANCH   1  13
ATOM     13  C   UNL d   1      32.415  23.162 -18.857  0.00  0.00     0.104 A 
ATOM     14  C   UNL d   1      33.061  23.216 -18.461  0.00  0.00     0.015 A 
ATOM     15  C   UNL d   1      33.037  23.339 -17.727  0.00  0.00     0.022 A 
ATOM     16  C   UNL d   1      32.382  23.410 -17.373  0.00  0.00     0.103 A 
ATOM     17  C   UNL d   1      31.739  23.359 -17.754  0.00  0.00     0.022 A 
ATOM     18  N   UNL d   1      32.368  23.535 -16.631  0.00  0.00    -0.148 N 
ATOM     19  C   UNL d   1      31.751  23.234 -18.497  0.00  0.00     0.015 A 
ENDBRANCH   1  13
TORSDOF 4
ENDMDL
