MODEL 1
REMARK VINA RESULT:      -7.4      0.000      0.000
REMARK  4 active torsions:
REMARK  status: ('A' for Active; 'I' for Inactive)
REMARK    1  A    between atoms: N_3  and  C_1 
REMARK    2  A    between atoms: C_4  and  C_2 
REMARK       I    between atoms: C_6  and  N_3 
REMARK    3  A    between atoms: C_11  and  C_6 
REMARK    4  A    between atoms: C_13  and  C_11 
ROOT
ATOM      1  N   UNL d   1     -49.014  13.698  21.731  0.00  0.00    -0.201 NA
ATOM      2  C   UNL d   1     -48.360  13.254  21.942  0.00  0.00     0.280 C 
ATOM      3  O   UNL d   1     -48.093  12.651  21.434  0.00  0.00    -0.265 OA
ENDROOT
BRANCH   2   4
ATOM      4  C   UNL d   1     -47.962  13.389  22.644  0.00  0.00     0.062 C 
BRANCH   4   5
ATOM      5  C   UNL d   1     -47.382  12.867  22.907  0.00  0.00     0.005 A 
ATOM      6  C   UNL d   1     -47.592  12.207  23.363  0.00  0.00     0.003 A 
ATOM      7  C   UNL d   1     -47.005  11.688  23.623  0.00  0.00     0.030 A 
ATOM      8  C   UNL d   1     -46.214  11.820  23.433  0.00  0.00     0.140 A 
ATOM      9  C   UNL d   1     -46.011  12.472  22.984  0.00  0.00     0.030 A 
ATOM     10  F   UNL d   1     -45.643  11.297  23.698  0.00  0.00    -0.204 F 
ATOM     11  C   UNL d   1     -46.584  13.001  22.715  0.00  0.00     0.003 A 
ENDBRANCH   4   5
ENDBRANCH   2   4
BRANCH   1  12
ATOM     12  C   UNL d   1     -49.274  14.294  22.237  0.00  0.00     0.119 A 
ATOM     13  C   UNL d   1     -50.058  14.449  22.424  0.00  0.00     0.084 A 
ATOM     14  C   UNL d   1     -50.071  15.089  22.947  0.00  0.00     0.014 A 
ATOM     15  C   UNL d   1     -49.285  15.326  23.081  0.00  0.00     0.037 A 
ATOM     16  S   UNL d   1     -48.804  14.828  22.637  0.00  0.00    -0.067 SA
BRANCH  13  17
ATOM     17  C   UNL d   1     -50.721  14.045  22.144  0.00  0.00     0.299 C 
ATOM     18  O   UNL d   1     -51.040  13.422  22.575  0.00  0.00    -0.264 OA
ATOM     19  N   UNL d   1     -51.063  14.271  21.425  0.00  0.00    -0.102 N 
ENDBRANCH  13  17
ENDBRANCH   1  12
TORSDOF 4
ENDMDL
MODEL 2
REMARK VINA RESULT:      -6.8      1.105      1.289
REMARK  4 active torsions:
REMARK  status: ('A' for Active; 'I' for Inactive)
REMARK    1  A    between atoms: N_3  and  C_1 
REMARK    2  A    between atoms: C_4  and  C_2 
REMARK       I    between atoms: C_6  and  N_3 
REMARK    3  A    between atoms: C_11  and  C_6 
REMARK    4  A    between atoms: C_13  and  C_11 
ROOT
ATOM      1  N   UNL d   1     -49.625  12.912  21.935  0.00  0.00    -0.201 NA
ATOM      2  C   UNL d   1     -48.889  12.606  22.119  0.00  0.00     0.280 C 
ATOM      3  O   UNL d   1     -48.352  12.435  21.507  0.00  0.00    -0.265 OA
ENDROOT
BRANCH   2   4
ATOM      4  C   UNL d   1     -48.668  12.465  22.894  0.00  0.00     0.062 C 
BRANCH   4   5
ATOM      5  C   UNL d   1     -47.899  12.236  23.078  0.00  0.00     0.005 A 
ATOM      6  C   UNL d   1     -47.734  11.446  23.269  0.00  0.00     0.003 A 
ATOM      7  C   UNL d   1     -46.960  11.223  23.452  0.00  0.00     0.030 A 
ATOM      8  C   UNL d   1     -46.352  11.778  23.447  0.00  0.00     0.140 A 
ATOM      9  C   UNL d   1     -46.518  12.556  23.259  0.00  0.00     0.030 A 
ATOM     10  F   UNL d   1     -45.590  11.543  23.630  0.00  0.00    -0.204 F 
ATOM     11  C   UNL d   1     -47.285  12.797  23.073  0.00  0.00     0.003 A 
ENDBRANCH   4   5
ENDBRANCH   2   4
BRANCH   1  12
ATOM     12  C   UNL d   1     -50.153  13.080  22.545  0.00  0.00     0.119 A 
ATOM     13  C   UNL d   1     -50.620  13.753  22.597  0.00  0.00     0.084 A 
ATOM     14  C   UNL d   1     -51.064  13.700  23.291  0.00  0.00     0.014 A 
ATOM     15  C   UNL d   1     -50.866  12.985  23.668  0.00  0.00     0.037 A 
ATOM     16  S   UNL d   1     -50.303  12.613  23.197  0.00  0.00    -0.067 SA
BRANCH  13  17
ATOM     17  C   UNL d   1     -50.647  14.377  22.057  0.00  0.00     0.299 C 
ATOM     18  O   UNL d   1     -50.280  15.092  22.228  0.00  0.00    -0.264 OA
ATOM     19  N   UNL d   1     -51.048  14.277  21.339  0.00  0.00    -0.102 N 
ENDBRANCH  13  17
ENDBRANCH   1  12
TORSDOF 4
ENDMDL
MODEL 3
REMARK VINA RESULT:      -6.7      2.188      4.092
REMARK  4 active torsions:
REMARK  status: ('A' for Active; 'I' for Inactive)
REMARK    1  A    between atoms: N_3  and  C_1 
REMARK    2  A    between atoms: C_4  and  C_2 
REMARK       I    between atoms: C_6  and  N_3 
REMARK    3  A    between atoms: C_11  and  C_6 
REMARK    4  A    between atoms: C_13  and  C_11 
ROOT
ATOM      1  N   UNL d   1     -47.589  13.081  22.047  0.00  0.00    -0.201 NA
ATOM      2  C   UNL d   1     -48.247  13.566  22.075  0.00  0.00     0.280 C 
ATOM      3  O   UNL d   1     -48.425  14.052  21.423  0.00  0.00    -0.265 OA
ENDROOT
BRANCH   2   4
ATOM      4  C   UNL d   1     -48.734  13.585  22.732  0.00  0.00     0.062 C 
BRANCH   4   5
ATOM      5  C   UNL d   1     -49.317  14.162  22.808  0.00  0.00     0.005 A 
ATOM      6  C   UNL d   1     -49.145  14.880  23.186  0.00  0.00     0.003 A 
ATOM      7  C   UNL d   1     -49.735  15.454  23.258  0.00  0.00     0.030 A 
ATOM      8  C   UNL d   1     -50.490  15.319  22.958  0.00  0.00     0.140 A 
ATOM      9  C   UNL d   1     -50.656  14.610  22.587  0.00  0.00     0.030 A 
ATOM     10  F   UNL d   1     -51.064  15.897  23.037  0.00  0.00    -0.204 F 
ATOM     11  C   UNL d   1     -50.080  14.025  22.505  0.00  0.00     0.003 A 
ENDBRANCH   4   5
ENDBRANCH   2   4
BRANCH   1  12
ATOM     12  C   UNL d   1     -47.416  12.602  22.695  0.00  0.00     0.119 A 
ATOM     13  C   UNL d   1     -46.682  12.541  23.058  0.00  0.00     0.084 A 
ATOM     14  C   UNL d   1     -46.753  12.003  23.681  0.00  0.00     0.014 A 
ATOM     15  C   UNL d   1     -47.540  11.733  23.698  0.00  0.00     0.037 A 
ATOM     16  S   UNL d   1     -47.937  12.110  23.085  0.00  0.00    -0.067 SA
BRANCH  13  17
ATOM     17  C   UNL d   1     -45.992  12.941  22.845  0.00  0.00     0.299 C 
ATOM     18  O   UNL d   1     -45.886  13.728  23.055  0.00  0.00    -0.264 OA
ATOM     19  N   UNL d   1     -45.405  12.542  22.417  0.00  0.00    -0.102 N 
ENDBRANCH  13  17
ENDBRANCH   1  12
TORSDOF 4
ENDMDL
MODEL 4
REMARK VINA RESULT:      -6.6      2.693      3.901
REMARK  4 active torsions:
REMARK  status: ('A' for Active; 'I' for Inactive)
REMARK    1  A    between atoms: N_3  and  C_1 
REMARK    2  A    between atoms: C_4  and  C_2 
REMARK       I    between atoms: C_6  and  N_3 
REMARK    3  A    between atoms: C_11  and  C_6 
REMARK    4  A    between atoms: C_13  and  C_11 
ROOT
ATOM      1  N   UNL d   1     -46.528  12.244  23.136  0.00  0.00    -0.201 NA
ATOM      2  C   UNL d   1     -47.317  12.036  23.192  0.00  0.00     0.280 C 
ATOM      3  O   UNL d   1     -47.522  11.246  23.358  0.00  0.00    -0.265 OA
ENDROOT
BRANCH   2   4
ATOM      4  C   UNL d   1     -47.912  12.589  23.090  0.00  0.00     0.062 C 
BRANCH   4   5
ATOM      5  C   UNL d   1     -48.698  12.355  23.028  0.00  0.00     0.005 A 
ATOM      6  C   UNL d   1     -49.002  12.100  22.300  0.00  0.00     0.003 A 
ATOM      7  C   UNL d   1     -49.792  11.867  22.245  0.00  0.00     0.030 A 
ATOM      8  C   UNL d   1     -50.281  11.885  22.908  0.00  0.00     0.140 A 
ATOM      9  C   UNL d   1     -49.979  12.137  23.625  0.00  0.00     0.030 A 
ATOM     10  F   UNL d   1     -51.062  11.651  22.840  0.00  0.00    -0.204 F 
ATOM     11  C   UNL d   1     -49.192  12.374  23.698  0.00  0.00     0.003 A 
ENDBRANCH   4   5
ENDBRANCH   2   4
BRANCH   1  12
ATOM     12  C   UNL d   1     -46.330  13.027  22.972  0.00  0.00     0.119 A 
ATOM     13  C   UNL d   1     -45.676  13.272  22.542  0.00  0.00     0.084 A 
ATOM     14  C   UNL d   1     -45.688  14.097  22.510  0.00  0.00     0.014 A 
ATOM     15  C   UNL d   1     -46.360  14.359  22.926  0.00  0.00     0.037 A 
ATOM     16  S   UNL d   1     -46.747  13.689  23.205  0.00  0.00    -0.067 SA
BRANCH  13  17
ATOM     17  C   UNL d   1     -45.102  12.787  22.199  0.00  0.00     0.299 C 
ATOM     18  O   UNL d   1     -44.680  12.253  22.659  0.00  0.00    -0.264 OA
ATOM     19  N   UNL d   1     -44.954  12.843  21.386  0.00  0.00    -0.102 N 
ENDBRANCH  13  17
ENDBRANCH   1  12
TORSDOF 4
ENDMDL
MODEL 5
REMARK VINA RESULT:      -5.7      8.873      9.584
REMARK  4 active torsions:
REMARK  status: ('A' for Active; 'I' for Inactive)
REMARK    1  A    between atoms: N_3  and  C_1 
REMARK    2  A    between atoms: C_4  and  C_2 
REMARK       I    between atoms: C_6  and  N_3 
REMARK    3  A    between atoms: C_11  and  C_6 
REMARK    4  A    between atoms: C_13  and  C_11 
ROOT
ATOM      1  N   UNL d   1     -40.692  14.223  18.627  0.00  0.00    -0.201 NA
ATOM      2  C   UNL d   1     -40.534  14.346  19.420  0.00  0.00     0.280 C 
ATOM      3  O   UNL d   1     -41.160  14.351  19.967  0.00  0.00    -0.265 OA
ENDROOT
BRANCH   2   4
ATOM      4  C   UNL d   1     -39.769  14.464  19.687  0.00  0.00     0.062 C 
BRANCH   4   5
ATOM      5  C   UNL d   1     -39.625  14.696  20.463  0.00  0.00     0.005 A 
ATOM      6  C   UNL d   1     -39.455  14.128  21.043  0.00  0.00     0.003 A 
ATOM      7  C   UNL d   1     -39.312  14.368  21.821  0.00  0.00     0.030 A 
ATOM      8  C   UNL d   1     -39.338  15.166  22.024  0.00  0.00     0.140 A 
ATOM      9  C   UNL d   1     -39.506  15.723  21.451  0.00  0.00     0.030 A 
ATOM     10  F   UNL d   1     -39.194  15.389  22.798  0.00  0.00    -0.204 F 
ATOM     11  C   UNL d   1     -39.651  15.502  20.669  0.00  0.00     0.003 A 
ENDBRANCH   4   5
ENDBRANCH   2   4
BRANCH   1  12
ATOM     12  C   UNL d   1     -40.069  14.219  18.088  0.00  0.00     0.119 A 
ATOM     13  C   UNL d   1     -40.055  14.624  17.374  0.00  0.00     0.084 A 
ATOM     14  C   UNL d   1     -39.330  14.468  17.010  0.00  0.00     0.014 A 
ATOM     15  C   UNL d   1     -38.897  13.962  17.508  0.00  0.00     0.037 A 
ATOM     16  S   UNL d   1     -39.363  13.817  18.169  0.00  0.00    -0.067 SA
BRANCH  13  17
ATOM     17  C   UNL d   1     -40.653  15.103  17.067  0.00  0.00     0.299 C 
ATOM     18  O   UNL d   1     -41.364  14.773  16.820  0.00  0.00    -0.264 OA
ATOM     19  N   UNL d   1     -40.532  15.920  17.010  0.00  0.00    -0.102 N 
ENDBRANCH  13  17
ENDBRANCH   1  12
TORSDOF 4
ENDMDL
MODEL 6
REMARK VINA RESULT:      -5.6      8.503      9.862
REMARK  4 active torsions:
REMARK  status: ('A' for Active; 'I' for Inactive)
REMARK    1  A    between atoms: N_3  and  C_1 
REMARK    2  A    between atoms: C_4  and  C_2 
REMARK       I    between atoms: C_6  and  N_3 
REMARK    3  A    between atoms: C_11  and  C_6 
REMARK    4  A    between atoms: C_13  and  C_11 
ROOT
ATOM      1  N   UNL d   1     -40.760  14.668  19.233  0.00  0.00    -0.201 NA
ATOM      2  C   UNL d   1     -40.415  14.438  18.528  0.00  0.00     0.280 C 
ATOM      3  O   UNL d   1     -40.863  14.012  17.971  0.00  0.00    -0.265 OA
ENDROOT
BRANCH   2   4
ATOM      4  C   UNL d   1     -39.635  14.619  18.357  0.00  0.00     0.062 C 
BRANCH   4   5
ATOM      5  C   UNL d   1     -39.269  14.315  17.686  0.00  0.00     0.005 A 
ATOM      6  C   UNL d   1     -39.273  14.746  16.978  0.00  0.00     0.003 A 
ATOM      7  C   UNL d   1     -38.904  14.434  16.308  0.00  0.00     0.030 A 
ATOM      8  C   UNL d   1     -38.532  13.699  16.338  0.00  0.00     0.140 A 
ATOM      9  C   UNL d   1     -38.530  13.277  17.038  0.00  0.00     0.030 A 
ATOM     10  F   UNL d   1     -38.170  13.403  15.667  0.00  0.00    -0.204 F 
ATOM     11  C   UNL d   1     -38.893  13.573  17.717  0.00  0.00     0.003 A 
ENDBRANCH   4   5
ENDBRANCH   2   4
BRANCH   1  12
ATOM     12  C   UNL d   1     -40.312  15.090  19.781  0.00  0.00     0.119 A 
ATOM     13  C   UNL d   1     -40.386  15.036  20.596  0.00  0.00     0.084 A 
ATOM     14  C   UNL d   1     -39.834  15.550  20.934  0.00  0.00     0.014 A 
ATOM     15  C   UNL d   1     -39.419  15.921  20.316  0.00  0.00     0.037 A 
ATOM     16  S   UNL d   1     -39.724  15.629  19.611  0.00  0.00    -0.067 SA
BRANCH  13  17
ATOM     17  C   UNL d   1     -40.914  14.557  21.013  0.00  0.00     0.299 C 
ATOM     18  O   UNL d   1     -41.706  14.767  21.076  0.00  0.00    -0.264 OA
ATOM     19  N   UNL d   1     -40.639  13.861  21.369  0.00  0.00    -0.102 N 
ENDBRANCH  13  17
ENDBRANCH   1  12
TORSDOF 4
ENDMDL
MODEL 7
REMARK VINA RESULT:      -5.4      8.970     10.455
REMARK  4 active torsions:
REMARK  status: ('A' for Active; 'I' for Inactive)
REMARK    1  A    between atoms: N_3  and  C_1 
REMARK    2  A    between atoms: C_4  and  C_2 
REMARK       I    between atoms: C_6  and  N_3 
REMARK    3  A    between atoms: C_11  and  C_6 
REMARK    4  A    between atoms: C_13  and  C_11 
ROOT
ATOM      1  N   UNL d   1     -39.815  14.431  17.188  0.00  0.00    -0.201 NA
ATOM      2  C   UNL d   1     -40.202  14.538  17.901  0.00  0.00     0.280 C 
ATOM      3  O   UNL d   1     -40.874  14.079  18.074  0.00  0.00    -0.265 OA
ENDROOT
BRANCH   2   4
ATOM      4  C   UNL d   1     -39.942  15.087  18.449  0.00  0.00     0.062 C 
BRANCH   4   5
ATOM      5  C   UNL d   1     -40.283  15.131  19.196  0.00  0.00     0.005 A 
ATOM      6  C   UNL d   1     -40.101  14.562  19.771  0.00  0.00     0.003 A 
ATOM      7  C   UNL d   1     -40.447  14.611  20.519  0.00  0.00     0.030 A 
ATOM      8  C   UNL d   1     -40.971  15.221  20.699  0.00  0.00     0.140 A 
ATOM      9  C   UNL d   1     -41.149  15.781  20.130  0.00  0.00     0.030 A 
ATOM     10  F   UNL d   1     -41.307  15.258  21.444  0.00  0.00    -0.204 F 
ATOM     11  C   UNL d   1     -40.812  15.747  19.377  0.00  0.00     0.003 A 
ENDBRANCH   4   5
ENDBRANCH   2   4
BRANCH   1  12
ATOM     12  C   UNL d   1     -39.149  14.888  17.020  0.00  0.00     0.119 A 
ATOM     13  C   UNL d   1     -38.470  14.619  16.648  0.00  0.00     0.084 A 
ATOM     14  C   UNL d   1     -37.945  15.254  16.591  0.00  0.00     0.014 A 
ATOM     15  C   UNL d   1     -38.309  15.919  16.933  0.00  0.00     0.037 A 
ATOM     16  S   UNL d   1     -39.051  15.680  17.193  0.00  0.00    -0.067 SA
BRANCH  13  17
ATOM     17  C   UNL d   1     -38.327  13.852  16.376  0.00  0.00     0.299 C 
ATOM     18  O   UNL d   1     -38.034  13.278  16.885  0.00  0.00    -0.264 OA
ATOM     19  N   UNL d   1     -38.483  13.665  15.584  0.00  0.00    -0.102 N 
ENDBRANCH  13  17
ENDBRANCH   1  12
TORSDOF 4
ENDMDL
MODEL 8
REMARK VINA RESULT:      -5.2      8.876      9.882
REMARK  4 active torsions:
REMARK  status: ('A' for Active; 'I' for Inactive)
REMARK    1  A    between atoms: N_3  and  C_1 
REMARK    2  A    between atoms: C_4  and  C_2 
REMARK       I    between atoms: C_6  and  N_3 
REMARK    3  A    between atoms: C_11  and  C_6 
REMARK    4  A    between atoms: C_13  and  C_11 
ROOT
ATOM      1  N   UNL d   1     -40.069  14.450  20.983  0.00  0.00    -0.201 NA
ATOM      2  C   UNL d   1     -40.366  14.551  20.227  0.00  0.00     0.280 C 
ATOM      3  O   UNL d   1     -41.082  14.185  20.016  0.00  0.00    -0.265 OA
ENDROOT
BRANCH   2   4
ATOM      4  C   UNL d   1     -39.971  15.006  19.673  0.00  0.00     0.062 C 
BRANCH   4   5
ATOM      5  C   UNL d   1     -40.222  15.026  18.889  0.00  0.00     0.005 A 
ATOM      6  C   UNL d   1     -40.668  15.668  18.611  0.00  0.00     0.003 A 
ATOM      7  C   UNL d   1     -40.916  15.681  17.823  0.00  0.00     0.030 A 
ATOM      8  C   UNL d   1     -40.726  15.063  17.313  0.00  0.00     0.140 A 
ATOM      9  C   UNL d   1     -40.287  14.432  17.591  0.00  0.00     0.030 A 
ATOM     10  F   UNL d   1     -40.978  15.090  16.535  0.00  0.00    -0.204 F 
ATOM     11  C   UNL d   1     -40.030  14.401  18.374  0.00  0.00     0.003 A 
ENDBRANCH   4   5
ENDBRANCH   2   4
BRANCH   1  12
ATOM     12  C   UNL d   1     -39.359  14.814  21.188  0.00  0.00     0.119 A 
ATOM     13  C   UNL d   1     -38.754  14.467  21.620  0.00  0.00     0.084 A 
ATOM     14  C   UNL d   1     -38.149  15.023  21.699  0.00  0.00     0.014 A 
ATOM     15  C   UNL d   1     -38.388  15.719  21.309  0.00  0.00     0.037 A 
ATOM     16  S   UNL d   1     -39.136  15.576  20.999  0.00  0.00    -0.067 SA
BRANCH  13  17
ATOM     17  C   UNL d   1     -38.744  13.700  21.925  0.00  0.00     0.299 C 
ATOM     18  O   UNL d   1     -38.371  13.094  21.515  0.00  0.00    -0.264 OA
ATOM     19  N   UNL d   1     -39.114  13.545  22.650  0.00  0.00    -0.102 N 
ENDBRANCH  13  17
ENDBRANCH   1  12
TORSDOF 4
ENDMDL
