MODEL 1
REMARK VINA RESULT:      26.4      0.000      0.000
REMARK  5 active torsions:
REMARK  status: ('A' for Active; 'I' for Inactive)
REMARK    1  A    between atoms: C_2  and  S_1 
REMARK    2  A    between atoms: N_3  and  C_14 
REMARK    3  A    between atoms: C_9  and  N_3 
REMARK    4  A    between atoms: N_8  and  C_7 
REMARK    5  A    between atoms: C_15  and  C_9 
ROOT
ATOM      1  N   UNL d   1      12.916  11.780  -3.566  0.00  0.00    -0.244 NA
ENDROOT
BRANCH   1   2
ATOM      2  C   UNL d   1      13.342  11.793  -2.854  0.00  0.00     0.082 A 
ATOM      3  C   UNL d   1      12.922  11.789  -2.143  0.00  0.00     0.020 A 
ATOM      4  C   UNL d   1      13.348  11.801  -1.437  0.00  0.00     0.015 A 
ATOM      5  C   UNL d   1      14.161  11.817  -1.440  0.00  0.00     0.107 A 
ATOM      6  C   UNL d   1      14.580  11.821  -2.150  0.00  0.00     0.015 A 
ATOM      7  C   UNL d   1      14.155  11.808  -2.857  0.00  0.00     0.020 A 
BRANCH   5   8
ATOM      8  S   UNL d   1      14.586  11.829  -0.722  0.00  0.00     0.302 S 
ATOM      9  O   UNL d   1      15.298  11.787  -1.147  0.00  0.00    -0.197 OA
ATOM     10  O   UNL d   1      15.018  11.841  -0.016  0.00  0.00    -0.197 OA
ATOM     11  N   UNL d   1      13.881  11.871  -0.303  0.00  0.00    -0.043 N 
ENDBRANCH   5   8
ENDBRANCH   1   2
BRANCH   1  12
ATOM     12  C   UNL d   1      13.214  12.136  -4.233  0.00  0.00     0.099 C 
BRANCH  12  13
ATOM     13  C   UNL d   1      13.196  12.959  -4.324  0.00  0.00     0.019 A 
ATOM     14  C   UNL d   1      13.565  13.466  -3.765  0.00  0.00     0.003 A 
ATOM     15  C   UNL d   1      13.530  14.277  -3.883  0.00  0.00     0.018 A 
ATOM     16  C   UNL d   1      13.148  14.603  -4.522  0.00  0.00     0.064 A 
ATOM     17  C   UNL d   1      12.778  14.096  -5.080  0.00  0.00     0.018 A 
ATOM     18  C   UNL d   1      12.797  13.273  -4.989  0.00  0.00     0.003 A 
BRANCH  16  19
ATOM     19  N   UNL d   1      13.138  15.423  -4.599  0.00  0.00    -0.301 N 
ATOM     20  C   UNL d   1      13.450  15.900  -3.991  0.00  0.00     0.100 C 
ATOM     21  C   UNL d   1      12.818  15.745  -5.276  0.00  0.00     0.100 C 
ENDBRANCH  16  19
ENDBRANCH  12  13
ENDBRANCH   1  12
TORSDOF 5
ENDMDL
