MODEL 1
REMARK VINA RESULT:      90.4      0.000      0.000
REMARK  6 active torsions:
REMARK  status: ('A' for Active; 'I' for Inactive)
REMARK    1  A    between atoms: O_8  and  C_1 
REMARK    2  A    between atoms: C_10  and  C_5 
REMARK    3  A    between atoms: C_12  and  O_8 
REMARK    4  A    between atoms: N_9  and  C_10 
REMARK    5  A    between atoms: O_24  and  C_17 
REMARK    6  A    between atoms: C_28  and  O_24 
ROOT
ATOM      1  C   UNL d   1     -49.396  28.111  34.703  0.00  0.00     0.161 A 
ATOM      2  C   UNL d   1     -48.206  29.224  35.022  0.00  0.00     0.108 A 
ATOM      3  C   UNL d   1     -48.527  28.773  35.644  0.00  0.00     0.064 A 
ATOM      4  C   UNL d   1     -49.119  28.219  35.482  0.00  0.00     0.222 A 
ATOM      5  C   UNL d   1     -47.613  29.779  35.183  0.00  0.00     0.079 A 
ATOM      6  O   UNL d   1     -48.470  29.130  34.242  0.00  0.00    -0.305 OA
ATOM      7  C   UNL d   1     -49.073  28.565  34.084  0.00  0.00     0.126 A 
ATOM      8  C   UNL d   1     -48.254  28.879  36.408  0.00  0.00     0.009 A 
ATOM      9  C   UNL d   1     -47.344  29.880  35.954  0.00  0.00     0.199 A 
ATOM     10  O   UNL d   1     -49.441  27.769  36.095  0.00  0.00    -0.284 OA
ATOM     11  C   UNL d   1     -47.665  29.430  36.567  0.00  0.00     0.042 A 
ATOM     12  O   UNL d   1     -46.753  30.432  36.113  0.00  0.00    -0.286 OA
ATOM     13  C   UNL d   1     -49.342  28.463  33.312  0.00  0.00     0.029 C 
ENDROOT
BRANCH   1  14
ATOM     14  O   UNL d   1     -49.989  27.557  34.547  0.00  0.00    -0.300 OA
BRANCH  14  15
ATOM     15  C   UNL d   1     -49.803  26.869  34.135  0.00  0.00     0.123 A 
ATOM     16  C   UNL d   1     -50.402  26.429  33.780  0.00  0.00     0.123 A 
ATOM     17  C   UNL d   1     -50.224  25.744  33.369  0.00  0.00     0.027 A 
ATOM     18  C   UNL d   1     -49.443  25.489  33.307  0.00  0.00     0.002 A 
ATOM     19  C   UNL d   1     -48.834  25.931  33.666  0.00  0.00     0.002 A 
ATOM     20  C   UNL d   1     -49.018  26.620  34.078  0.00  0.00     0.027 A 
BRANCH  16  21
ATOM     21  O   UNL d   1     -51.186  26.682  33.839  0.00  0.00    -0.303 OA
BRANCH  21  22
ATOM     22  C   UNL d   1     -51.746  26.403  33.306  0.00  0.00     0.123 C 
ATOM     23  C   UNL d   1     -52.543  26.380  33.510  0.00  0.00     0.029 C 
ENDBRANCH  21  22
ENDBRANCH  16  21
ENDBRANCH  14  15
ENDBRANCH   1  14
BRANCH   5  24
ATOM     24  C   UNL d   1     -47.287  30.232  34.576  0.00  0.00     0.086 C 
BRANCH  24  25
ATOM     25  N   UNL d   1     -47.533  31.019  34.481  0.00  0.00    -0.300 N 
ATOM     26  C   UNL d   1     -48.201  31.196  34.027  0.00  0.00     0.100 A 
ATOM     27  C   UNL d   1     -48.440  31.975  33.937  0.00  0.00     0.100 A 
ATOM     28  N   UNL d   1     -48.017  32.586  34.297  0.00  0.00    -0.299 N 
ATOM     29  C   UNL d   1     -47.349  32.410  34.751  0.00  0.00     0.100 A 
ATOM     30  C   UNL d   1     -48.258  33.368  34.206  0.00  0.00     0.100 C 
ATOM     31  C   UNL d   1     -47.103  31.621  34.845  0.00  0.00     0.100 A 
ENDBRANCH  24  25
ENDBRANCH   5  24
TORSDOF 6
ENDMDL
MODEL 2
REMARK VINA RESULT:      90.6      0.734      1.216
REMARK  6 active torsions:
REMARK  status: ('A' for Active; 'I' for Inactive)
REMARK    1  A    between atoms: O_8  and  C_1 
REMARK    2  A    between atoms: C_10  and  C_5 
REMARK    3  A    between atoms: C_12  and  O_8 
REMARK    4  A    between atoms: N_9  and  C_10 
REMARK    5  A    between atoms: O_24  and  C_17 
REMARK    6  A    between atoms: C_28  and  O_24 
ROOT
ATOM      1  C   UNL d   1     -49.176  27.525  34.728  0.00  0.00     0.161 A 
ATOM      2  C   UNL d   1     -48.253  28.807  35.241  0.00  0.00     0.108 A 
ATOM      3  C   UNL d   1     -48.735  28.401  35.785  0.00  0.00     0.064 A 
ATOM      4  C   UNL d   1     -49.193  27.763  35.527  0.00  0.00     0.222 A 
ATOM      5  C   UNL d   1     -47.794  29.446  35.498  0.00  0.00     0.079 A 
ATOM      6  O   UNL d   1     -48.224  28.583  34.443  0.00  0.00    -0.305 OA
ATOM      7  C   UNL d   1     -48.692  27.934  34.187  0.00  0.00     0.126 A 
ATOM      8  C   UNL d   1     -48.752  28.636  36.569  0.00  0.00     0.009 A 
ATOM      9  C   UNL d   1     -47.816  29.676  36.288  0.00  0.00     0.199 A 
ATOM     10  O   UNL d   1     -49.673  27.358  36.064  0.00  0.00    -0.284 OA
ATOM     11  C   UNL d   1     -48.295  29.271  36.824  0.00  0.00     0.042 A 
ATOM     12  O   UNL d   1     -47.358  30.312  36.542  0.00  0.00    -0.286 OA
ATOM     13  C   UNL d   1     -48.670  27.703  33.397  0.00  0.00     0.029 C 
ENDROOT
BRANCH   1  14
ATOM     14  O   UNL d   1     -49.636  26.887  34.477  0.00  0.00    -0.300 OA
BRANCH  14  15
ATOM     15  C   UNL d   1     -50.347  27.028  34.087  0.00  0.00     0.123 A 
ATOM     16  C   UNL d   1     -50.801  26.393  33.822  0.00  0.00     0.123 A 
ATOM     17  C   UNL d   1     -51.510  26.527  33.433  0.00  0.00     0.027 A 
ATOM     18  C   UNL d   1     -51.774  27.297  33.305  0.00  0.00     0.002 A 
ATOM     19  C   UNL d   1     -51.316  27.941  33.573  0.00  0.00     0.002 A 
ATOM     20  C   UNL d   1     -50.605  27.801  33.963  0.00  0.00     0.027 A 
BRANCH  16  21
ATOM     21  O   UNL d   1     -50.540  25.621  33.948  0.00  0.00    -0.303 OA
BRANCH  21  22
ATOM     22  C   UNL d   1     -50.401  25.127  33.306  0.00  0.00     0.123 C 
ATOM     23  C   UNL d   1     -50.679  24.352  33.306  0.00  0.00     0.029 C 
ENDBRANCH  21  22
ENDBRANCH  16  21
ENDBRANCH  14  15
ENDBRANCH   1  14
BRANCH   5  24
ATOM     24  C   UNL d   1     -47.312  29.856  34.968  0.00  0.00     0.086 C 
BRANCH  24  25
ATOM     25  N   UNL d   1     -47.484  30.649  34.794  0.00  0.00    -0.300 N 
ATOM     26  C   UNL d   1     -48.080  30.838  34.253  0.00  0.00     0.100 A 
ATOM     27  C   UNL d   1     -48.247  31.623  34.085  0.00  0.00     0.100 A 
ATOM     28  N   UNL d   1     -47.823  32.228  34.452  0.00  0.00    -0.299 N 
ATOM     29  C   UNL d   1     -47.226  32.039  34.993  0.00  0.00     0.100 A 
ATOM     30  C   UNL d   1     -47.990  33.016  34.283  0.00  0.00     0.100 C 
ATOM     31  C   UNL d   1     -47.054  31.245  35.167  0.00  0.00     0.100 A 
ENDBRANCH  24  25
ENDBRANCH   5  24
TORSDOF 6
ENDMDL
