MODEL 1
REMARK VINA RESULT:      25.0      0.000      0.000
REMARK  4 active torsions:
REMARK  status: ('A' for Active; 'I' for Inactive)
REMARK    1  A    between atoms: C_2  and  S_1 
REMARK    2  A    between atoms: N_5  and  S_1 
REMARK    3  A    between atoms: C_13  and  N_5 
REMARK    4  A    between atoms: C_11  and  C_13 
ROOT
ATOM      1  C   UNL d   1      57.781  49.698  50.426  0.00  0.00     0.105 A 
ATOM      2  C   UNL d   1      57.321  49.694  51.103  0.00  0.00     0.012 A 
ATOM      3  C   UNL d   1      57.417  49.702  49.685  0.00  0.00     0.012 A 
ATOM      4  C   UNL d   1      56.592  49.702  49.626  0.00  0.00     0.001 A 
ATOM      5  C   UNL d   1      56.499  49.694  51.052  0.00  0.00     0.001 A 
ATOM      6  C   UNL d   1      56.131  49.698  50.311  0.00  0.00     0.000 A 
ATOM      7  C   UNL d   1      57.684  49.690  51.843  0.00  0.00     0.001 C 
ATOM      8  C   UNL d   1      57.882  49.707  49.001  0.00  0.00     0.001 C 
ATOM      9  C   UNL d   1      56.035  49.690  51.733  0.00  0.00     0.000 C 
ATOM     10  C   UNL d   1      56.229  49.706  48.886  0.00  0.00     0.000 C 
ENDROOT
BRANCH   1  11
ATOM     11  S   UNL d   1      58.601  49.699  50.490  0.00  0.00     0.285 S 
ATOM     12  O   UNL d   1      58.657  49.706  49.661  0.00  0.00    -0.198 OA
ATOM     13  O   UNL d   1      58.538  49.691  51.301  0.00  0.00    -0.198 OA
BRANCH  11  14
ATOM     14  N   UNL d   1      59.422  49.699  50.540  0.00  0.00    -0.155 NA
BRANCH  14  15
ATOM     15  C   UNL d   1      59.808  49.152  51.021  0.00  0.00     0.137 C 
BRANCH  15  16
ATOM     16  C   UNL d   1      60.539  49.343  51.347  0.00  0.00     0.120 A 
ATOM     17  O   UNL d   1      60.902  49.545  52.056  0.00  0.00    -0.304 OA
ATOM     18  C   UNL d   1      61.707  49.656  51.910  0.00  0.00     0.123 A 
ATOM     19  C   UNL d   1      61.842  49.522  51.108  0.00  0.00     0.029 A 
ATOM     20  C   UNL d   1      61.119  49.328  50.758  0.00  0.00     0.028 A 
ENDBRANCH  15  16
ENDBRANCH  14  15
ENDBRANCH  11  14
ENDBRANCH   1  11
TORSDOF 4
ENDMDL
