MODEL 1
REMARK VINA RESULT:      -0.0      0.000      0.000
REMARK  6 active torsions:
REMARK  status: ('A' for Active; 'I' for Inactive)
REMARK    1  A    between atoms: S_9  and  C_3 
REMARK    2  A    between atoms: C_11  and  C_4 
REMARK    3  A    between atoms: C_20  and  S_9 
REMARK    4  A    between atoms: C_12  and  C_20 
REMARK       I    between atoms: N_17  and  C_12 
REMARK    5  A    between atoms: C_25  and  N_17 
REMARK    6  A    between atoms: C_24  and  C_25 
ROOT
ATOM      1  N   UNL d   1      29.887  17.318 -24.676  0.00  0.00    -0.263 N 
ATOM      2  C   UNL d   1      29.066  17.296 -24.717  0.00  0.00     0.202 A 
ATOM      3  C   UNL d   1      30.127  18.096 -24.802  0.00  0.00     0.202 A 
ATOM      4  C   UNL d   1      30.152  16.552 -24.526  0.00  0.00     0.074 A 
ATOM      5  N   UNL d   1      28.793  18.051 -24.865  0.00  0.00    -0.121 NA
ATOM      6  N   UNL d   1      29.444  18.556 -24.920  0.00  0.00    -0.121 NA
ATOM      7  S   UNL d   1      28.823  16.518 -24.591  0.00  0.00    -0.046 SA
ATOM      8  C   UNL d   1      29.488  16.058 -24.474  0.00  0.00     0.056 A 
ENDROOT
BRANCH   3   9
ATOM      9  S   UNL d   1      30.927  18.295 -24.794  0.00  0.00    -0.043 SA
BRANCH   9  10
ATOM     10  C   UNL d   1      31.163  19.088 -24.771  0.00  0.00     0.101 C 
BRANCH  10  11
ATOM     11  C   UNL d   1      31.918  19.284 -24.511  0.00  0.00     0.286 C 
ATOM     12  N   UNL d   1      32.037  19.519 -23.722  0.00  0.00    -0.206 NA
ATOM     13  O   UNL d   1      32.555  19.248 -25.033  0.00  0.00    -0.265 OA
BRANCH  12  14
ATOM     14  C   UNL d   1      32.796  19.717 -23.458  0.00  0.00     0.102 C 
BRANCH  14  15
ATOM     15  C   UNL d   1      32.913  19.961 -22.670  0.00  0.00     0.021 A 
ATOM     16  C   UNL d   1      32.880  20.760 -22.455  0.00  0.00     0.028 A 
ATOM     17  C   UNL d   1      32.997  20.978 -21.677  0.00  0.00     0.119 A 
ATOM     18  O   UNL d   1      32.998  21.705 -21.301  0.00  0.00    -0.300 OA
ATOM     19  C   UNL d   1      33.148  20.405 -21.109  0.00  0.00     0.119 A 
ATOM     20  C   UNL d   1      33.145  21.599 -20.521  0.00  0.00     0.304 A 
ATOM     21  O   UNL d   1      33.241  20.785 -20.391  0.00  0.00    -0.300 OA
ATOM     22  C   UNL d   1      33.181  19.618 -21.325  0.00  0.00     0.026 A 
ATOM     23  C   UNL d   1      33.061  19.399 -22.116  0.00  0.00     0.004 A 
ENDBRANCH  14  15
ENDBRANCH  12  14
ENDBRANCH  10  11
ENDBRANCH   9  10
ENDBRANCH   3   9
BRANCH   4  24
ATOM     24  C   UNL d   1      30.926  16.277 -24.436  0.00  0.00     0.017 A 
ATOM     25  C   UNL d   1      31.329  15.958 -25.072  0.00  0.00     0.002 A 
ATOM     26  C   UNL d   1      32.096  15.685 -24.986  0.00  0.00     0.011 A 
ATOM     27  C   UNL d   1      32.466  15.735 -24.242  0.00  0.00     0.058 A 
ATOM     28  C   UNL d   1      32.061  16.058 -23.598  0.00  0.00     0.011 A 
ATOM     29 CL   UNL d   1      33.241  15.463 -24.142  0.00  0.00    -0.082 Cl
ATOM     30  C   UNL d   1      31.288  16.330 -23.695  0.00  0.00     0.002 A 
ENDBRANCH   4  24
TORSDOF 6
ENDMDL
MODEL 2
REMARK VINA RESULT:       1.9      2.503      5.611
REMARK  6 active torsions:
REMARK  status: ('A' for Active; 'I' for Inactive)
REMARK    1  A    between atoms: S_9  and  C_3 
REMARK    2  A    between atoms: C_11  and  C_4 
REMARK    3  A    between atoms: C_20  and  S_9 
REMARK    4  A    between atoms: C_12  and  C_20 
REMARK       I    between atoms: N_17  and  C_12 
REMARK    5  A    between atoms: C_25  and  N_17 
REMARK    6  A    between atoms: C_24  and  C_25 
ROOT
ATOM      1  N   UNL d   1      32.950  21.471 -23.363  0.00  0.00    -0.263 N 
ATOM      2  C   UNL d   1      33.022  21.980 -24.005  0.00  0.00     0.202 A 
ATOM      3  C   UNL d   1      33.079  20.703 -23.632  0.00  0.00     0.202 A 
ATOM      4  C   UNL d   1      32.775  21.927 -22.699  0.00  0.00     0.074 A 
ATOM      5  N   UNL d   1      33.195  21.538 -24.669  0.00  0.00    -0.121 NA
ATOM      6  N   UNL d   1      33.233  20.743 -24.449  0.00  0.00    -0.121 NA
ATOM      7  S   UNL d   1      32.893  22.750 -23.739  0.00  0.00    -0.046 SA
ATOM      8  C   UNL d   1      32.741  22.721 -22.936  0.00  0.00     0.056 A 
ENDROOT
BRANCH   3   9
ATOM      9  S   UNL d   1      33.043  20.065 -23.111  0.00  0.00    -0.043 SA
BRANCH   9  10
ATOM     10  C   UNL d   1      33.238  19.302 -23.368  0.00  0.00     0.101 C 
BRANCH  10  11
ATOM     11  C   UNL d   1      32.801  18.657 -23.105  0.00  0.00     0.286 C 
ATOM     12  N   UNL d   1      32.222  18.321 -23.599  0.00  0.00    -0.206 NA
ATOM     13  O   UNL d   1      32.937  18.345 -22.355  0.00  0.00    -0.265 OA
BRANCH  12  14
ATOM     14  C   UNL d   1      31.780  17.671 -23.337  0.00  0.00     0.102 C 
BRANCH  14  15
ATOM     15  C   UNL d   1      31.149  17.383 -23.798  0.00  0.00     0.021 A 
ATOM     16  C   UNL d   1      30.815  16.638 -23.657  0.00  0.00     0.028 A 
ATOM     17  C   UNL d   1      30.196  16.374 -24.120  0.00  0.00     0.119 A 
ATOM     18  O   UNL d   1      29.761  15.682 -24.118  0.00  0.00    -0.300 OA
ATOM     19  C   UNL d   1      29.906  16.848 -24.725  0.00  0.00     0.119 A 
ATOM     20  C   UNL d   1      29.212  15.712 -24.701  0.00  0.00     0.304 A 
ATOM     21  O   UNL d   1      29.295  16.442 -25.087  0.00  0.00    -0.300 OA
ATOM     22  C   UNL d   1      30.237  17.582 -24.861  0.00  0.00     0.026 A 
ATOM     23  C   UNL d   1      30.866  17.847 -24.388  0.00  0.00     0.004 A 
ENDBRANCH  14  15
ENDBRANCH  12  14
ENDBRANCH  10  11
ENDBRANCH   9  10
ENDBRANCH   3   9
BRANCH   4  24
ATOM     24  C   UNL d   1      32.650  21.684 -21.919  0.00  0.00     0.017 A 
ATOM     25  C   UNL d   1      31.950  21.316 -21.708  0.00  0.00     0.002 A 
ATOM     26  C   UNL d   1      31.823  21.074 -20.936  0.00  0.00     0.011 A 
ATOM     27  C   UNL d   1      32.413  21.205 -20.364  0.00  0.00     0.058 A 
ATOM     28  C   UNL d   1      33.120  21.577 -20.576  0.00  0.00     0.011 A 
ATOM     29 CL   UNL d   1      32.296  20.965 -19.581  0.00  0.00    -0.082 Cl
ATOM     30  C   UNL d   1      33.239  21.817 -21.356  0.00  0.00     0.002 A 
ENDBRANCH   4  24
TORSDOF 6
ENDMDL
