MODEL 1
REMARK VINA RESULT:       9.3      0.000      0.000
REMARK  5 active torsions:
REMARK  status: ('A' for Active; 'I' for Inactive)
REMARK    1  A    between atoms: C_9  and  S_1 
REMARK    2  A    between atoms: C_14  and  S_1 
REMARK    3  A    between atoms: C_7  and  C_10 
REMARK       I    between atoms: N_11  and  C_7 
REMARK    4  A    between atoms: C_10  and  C_9 
REMARK    5  A    between atoms: C_15  and  N_11 
ROOT
ATOM      1  C   UNL d   1      46.110 -16.907  44.335  0.00  0.00     0.280 C 
ATOM      2  N   UNL d   1      45.910 -17.661  44.613  0.00  0.00    -0.208 NA
ATOM      3  O   UNL d   1      46.511 -16.834  43.606  0.00  0.00    -0.265 OA
ENDROOT
BRANCH   1   4
ATOM      4  C   UNL d   1      45.921 -16.241  44.761  0.00  0.00     0.075 C 
BRANCH   4   5
ATOM      5  C   UNL d   1      45.432 -15.753  44.488  0.00  0.00     0.104 C 
BRANCH   5   6
ATOM      6  S   UNL d   1      45.475 -14.917  44.472  0.00  0.00     0.211 S 
ATOM      7  O   UNL d   1      44.646 -14.866  44.521  0.00  0.00    -0.217 OA
ATOM      8  O   UNL d   1      46.317 -14.973  44.423  0.00  0.00    -0.217 OA
BRANCH   6   9
ATOM      9  C   UNL d   1      45.526 -14.092  44.456  0.00  0.00     0.088 A 
ATOM     10  C   UNL d   1      46.056 -13.699  44.951  0.00  0.00     0.011 A 
ATOM     11  C   UNL d   1      46.108 -12.872  44.937  0.00  0.00     0.001 A 
ATOM     12  C   UNL d   1      45.626 -12.443  44.424  0.00  0.00     0.000 A 
ATOM     13  C   UNL d   1      45.091 -12.825  43.924  0.00  0.00     0.001 A 
ATOM     14  C   UNL d   1      45.042 -13.655  43.941  0.00  0.00     0.011 A 
ENDBRANCH   6   9
ENDBRANCH   5   6
ENDBRANCH   4   5
ENDBRANCH   1   4
BRANCH   2  15
ATOM     15  C   UNL d   1      46.099 -18.336  44.186  0.00  0.00     0.085 A 
ATOM     16  C   UNL d   1      46.088 -18.320  43.369  0.00  0.00     0.027 A 
ATOM     17  C   UNL d   1      46.278 -18.997  42.952  0.00  0.00     0.050 A 
ATOM     18  S   UNL d   1      46.318 -19.157  42.141  0.00  0.00    -0.066 SA
ATOM     19  C   UNL d   1      46.481 -19.699  43.358  0.00  0.00     0.088 A 
ATOM     20  C   UNL d   1      46.541 -19.944  42.036  0.00  0.00     0.111 A 
ATOM     21  C   UNL d   1      46.645 -20.329  41.317  0.00  0.00     0.028 C 
ATOM     22  N   UNL d   1      46.641 -20.277  42.802  0.00  0.00    -0.239 NA
ATOM     23  C   UNL d   1      46.490 -19.708  44.172  0.00  0.00     0.021 A 
ATOM     24  C   UNL d   1      46.300 -19.031  44.587  0.00  0.00     0.021 A 
ENDBRANCH   2  15
TORSDOF 5
ENDMDL
MODEL 2
REMARK VINA RESULT:      10.7      1.487      5.434
REMARK  5 active torsions:
REMARK  status: ('A' for Active; 'I' for Inactive)
REMARK    1  A    between atoms: C_9  and  S_1 
REMARK    2  A    between atoms: C_14  and  S_1 
REMARK    3  A    between atoms: C_7  and  C_10 
REMARK       I    between atoms: N_11  and  C_7 
REMARK    4  A    between atoms: C_10  and  C_9 
REMARK    5  A    between atoms: C_15  and  N_11 
ROOT
ATOM      1  C   UNL d   1      45.705 -16.292  44.403  0.00  0.00     0.280 C 
ATOM      2  N   UNL d   1      45.926 -15.677  44.913  0.00  0.00    -0.208 NA
ATOM      3  O   UNL d   1      45.403 -16.106  43.647  0.00  0.00    -0.265 OA
ENDROOT
BRANCH   1   4
ATOM      4  C   UNL d   1      45.780 -17.069  44.629  0.00  0.00     0.075 C 
BRANCH   4   5
ATOM      5  C   UNL d   1      46.380 -17.458  44.426  0.00  0.00     0.104 C 
BRANCH   5   6
ATOM      6  S   UNL d   1      46.420 -18.180  44.004  0.00  0.00     0.211 S 
ATOM      7  O   UNL d   1      46.245 -18.604  44.698  0.00  0.00    -0.217 OA
ATOM      8  O   UNL d   1      46.598 -17.746  43.301  0.00  0.00    -0.217 OA
BRANCH   6   9
ATOM      9  C   UNL d   1      46.462 -18.889  43.581  0.00  0.00     0.088 A 
ATOM     10  C   UNL d   1      46.576 -18.879  42.764  0.00  0.00     0.011 A 
ATOM     11  C   UNL d   1      46.618 -19.590  42.338  0.00  0.00     0.001 A 
ATOM     12  C   UNL d   1      46.545 -20.307  42.736  0.00  0.00     0.000 A 
ATOM     13  C   UNL d   1      46.431 -20.330  43.554  0.00  0.00     0.001 A 
ATOM     14  C   UNL d   1      46.389 -19.615  43.978  0.00  0.00     0.011 A 
ENDBRANCH   6   9
ENDBRANCH   5   6
ENDBRANCH   4   5
ENDBRANCH   1   4
BRANCH   2  15
ATOM     15  C   UNL d   1      45.852 -14.891  44.688  0.00  0.00     0.085 A 
ATOM     16  C   UNL d   1      45.236 -14.660  44.204  0.00  0.00     0.027 A 
ATOM     17  C   UNL d   1      45.171 -13.875  43.985  0.00  0.00     0.050 A 
ATOM     18  S   UNL d   1      44.623 -13.474  43.512  0.00  0.00    -0.066 SA
ATOM     19  C   UNL d   1      45.729 -13.315  44.255  0.00  0.00     0.088 A 
ATOM     20  C   UNL d   1      44.831 -12.676  43.483  0.00  0.00     0.111 A 
ATOM     21  C   UNL d   1      44.434 -12.084  43.074  0.00  0.00     0.028 C 
ATOM     22  N   UNL d   1      45.524 -12.584  43.950  0.00  0.00    -0.239 NA
ATOM     23  C   UNL d   1      46.340 -13.552  44.737  0.00  0.00     0.021 A 
ATOM     24  C   UNL d   1      46.404 -14.337  44.955  0.00  0.00     0.021 A 
ENDBRANCH   2  15
TORSDOF 5
ENDMDL
