MODEL 1
REMARK VINA RESULT:      -8.1      0.000      0.000
REMARK  5 active torsions:
REMARK  status: ('A' for Active; 'I' for Inactive)
REMARK    1  A    between atoms: C_2  and  C_1 
REMARK    2  A    between atoms: O_16  and  C_12 
REMARK    3  A    between atoms: C_21  and  C_14 
REMARK    4  A    between atoms: C_17  and  O_16 
REMARK    5  A    between atoms: C_24  and  C_21 
ROOT
ATOM      1  C   UNL d   1      51.399  33.984  52.916  0.00  0.00     0.086 A 
ATOM      2  C   UNL d   1      51.700  33.222  52.906  0.00  0.00     0.201 A 
ATOM      3  C   UNL d   1      52.424  33.061  53.312  0.00  0.00     0.062 A 
ATOM      4  C   UNL d   1      51.788  34.587  53.312  0.00  0.00     0.105 A 
ATOM      5  C   UNL d   1      52.824  33.681  53.720  0.00  0.00     0.105 A 
ATOM      6  O   UNL d   1      52.491  34.445  53.710  0.00  0.00    -0.307 OA
ATOM      7  C   UNL d   1      52.724  32.300  53.302  0.00  0.00     0.007 A 
ATOM      8  C   UNL d   1      53.515  33.522  54.106  0.00  0.00     0.050 A 
ATOM      9  C   UNL d   1      53.817  32.761  54.096  0.00  0.00     0.105 A 
ATOM     10  C   UNL d   1      53.427  32.158  53.700  0.00  0.00     0.023 A 
ATOM     11  O   UNL d   1      51.296  32.639  52.506  0.00  0.00    -0.286 OA
ATOM     12  C   UNL d   1      51.470  35.364  53.315  0.00  0.00     0.027 C 
ENDROOT
BRANCH   1  13
ATOM     13  C   UNL d   1      50.694  34.163  52.526  0.00  0.00     0.116 A 
ATOM     14  N   UNL d   1      50.493  34.214  51.718  0.00  0.00    -0.238 NA
ATOM     15  C   UNL d   1      49.704  34.414  51.656  0.00  0.00     0.088 A 
ATOM     16  C   UNL d   1      49.264  34.525  50.955  0.00  0.00     0.021 C 
ATOM     17  C   UNL d   1      49.404  34.491  52.389  0.00  0.00     0.056 A 
ATOM     18  S   UNL d   1      50.014  34.336  52.949  0.00  0.00    -0.066 SA
ENDBRANCH   1  13
BRANCH  10  19
ATOM     19  C   UNL d   1      53.781  31.383  53.720  0.00  0.00     0.002 C 
BRANCH  19  20
ATOM     20  C   UNL d   1      53.348  30.724  53.437  0.00  0.00     0.000 C 
ATOM     21  C   UNL d   1      53.621  29.957  53.572  0.00  0.00     0.000 C 
ENDBRANCH  19  20
ENDBRANCH  10  19
BRANCH   9  22
ATOM     22  O   UNL d   1      54.535  32.603  54.500  0.00  0.00    -0.273 OA
BRANCH  22  23
ATOM     23  C   UNL d   1      54.792  33.146  55.094  0.00  0.00     0.300 C 
ATOM     24  O   UNL d   1      54.469  33.077  55.827  0.00  0.00    -0.259 OA
ATOM     25  C   UNL d   1      55.374  33.734  54.891  0.00  0.00     0.074 C 
ENDBRANCH  22  23
ENDBRANCH   9  22
TORSDOF 5
ENDMDL
MODEL 2
REMARK VINA RESULT:      -7.7      1.761      4.023
REMARK  5 active torsions:
REMARK  status: ('A' for Active; 'I' for Inactive)
REMARK    1  A    between atoms: C_2  and  C_1 
REMARK    2  A    between atoms: O_16  and  C_12 
REMARK    3  A    between atoms: C_21  and  C_14 
REMARK    4  A    between atoms: C_17  and  O_16 
REMARK    5  A    between atoms: C_24  and  C_21 
ROOT
ATOM      1  C   UNL d   1      53.146  31.677  53.664  0.00  0.00     0.086 A 
ATOM      2  C   UNL d   1      52.474  32.074  53.414  0.00  0.00     0.201 A 
ATOM      3  C   UNL d   1      52.453  32.918  53.465  0.00  0.00     0.062 A 
ATOM      4  C   UNL d   1      53.792  32.085  53.960  0.00  0.00     0.105 A 
ATOM      5  C   UNL d   1      53.118  33.337  53.769  0.00  0.00     0.105 A 
ATOM      6  O   UNL d   1      53.785  32.903  54.014  0.00  0.00    -0.307 OA
ATOM      7  C   UNL d   1      51.782  33.315  53.215  0.00  0.00     0.007 A 
ATOM      8  C   UNL d   1      53.093  34.143  53.815  0.00  0.00     0.050 A 
ATOM      9  C   UNL d   1      52.422  34.541  53.565  0.00  0.00     0.105 A 
ATOM     10  C   UNL d   1      51.775  34.133  53.270  0.00  0.00     0.023 A 
ATOM     11  O   UNL d   1      51.843  31.648  53.124  0.00  0.00    -0.286 OA
ATOM     12  C   UNL d   1      54.475  31.667  54.212  0.00  0.00     0.027 C 
ENDROOT
BRANCH   1  13
ATOM     13  C   UNL d   1      53.187  30.854  53.624  0.00  0.00     0.116 A 
ATOM     14  N   UNL d   1      53.179  30.258  54.209  0.00  0.00    -0.238 NA
ATOM     15  C   UNL d   1      53.236  29.531  53.843  0.00  0.00     0.088 A 
ATOM     16  C   UNL d   1      53.249  28.781  54.210  0.00  0.00     0.021 C 
ATOM     17  C   UNL d   1      53.278  29.646  53.057  0.00  0.00     0.056 A 
ATOM     18  S   UNL d   1      53.249  30.473  52.901  0.00  0.00    -0.066 SA
ENDBRANCH   1  13
BRANCH  10  19
ATOM     19  C   UNL d   1      51.101  34.591  53.023  0.00  0.00     0.002 C 
BRANCH  19  20
ATOM     20  C   UNL d   1      50.464  34.213  52.633  0.00  0.00     0.000 C 
ATOM     21  C   UNL d   1      49.777  34.633  52.451  0.00  0.00     0.000 C 
ENDBRANCH  19  20
ENDBRANCH  10  19
BRANCH   9  22
ATOM     22  O   UNL d   1      52.404  35.379  53.616  0.00  0.00    -0.273 OA
BRANCH  22  23
ATOM     23  C   UNL d   1      52.927  35.761  54.157  0.00  0.00     0.300 C 
ATOM     24  O   UNL d   1      53.668  35.938  53.898  0.00  0.00    -0.259 OA
ATOM     25  C   UNL d   1      52.649  35.940  54.942  0.00  0.00     0.074 C 
ENDBRANCH  22  23
ENDBRANCH   9  22
TORSDOF 5
ENDMDL
MODEL 3
REMARK VINA RESULT:      -7.3      2.031      4.578
REMARK  5 active torsions:
REMARK  status: ('A' for Active; 'I' for Inactive)
REMARK    1  A    between atoms: C_2  and  C_1 
REMARK    2  A    between atoms: O_16  and  C_12 
REMARK    3  A    between atoms: C_21  and  C_14 
REMARK    4  A    between atoms: C_17  and  O_16 
REMARK    5  A    between atoms: C_24  and  C_21 
ROOT
ATOM      1  C   UNL d   1      53.026  30.925  53.597  0.00  0.00     0.086 A 
ATOM      2  C   UNL d   1      53.208  31.636  53.961  0.00  0.00     0.201 A 
ATOM      3  C   UNL d   1      52.895  32.353  53.642  0.00  0.00     0.062 A 
ATOM      4  C   UNL d   1      52.547  30.902  52.932  0.00  0.00     0.105 A 
ATOM      5  C   UNL d   1      52.402  32.329  52.958  0.00  0.00     0.105 A 
ATOM      6  O   UNL d   1      52.237  31.589  52.612  0.00  0.00    -0.307 OA
ATOM      7  C   UNL d   1      53.077  33.064  54.006  0.00  0.00     0.007 A 
ATOM      8  C   UNL d   1      52.106  33.017  52.657  0.00  0.00     0.050 A 
ATOM      9  C   UNL d   1      52.287  33.728  53.020  0.00  0.00     0.105 A 
ATOM     10  C   UNL d   1      52.767  33.751  53.685  0.00  0.00     0.023 A 
ATOM     11  O   UNL d   1      53.686  31.636  54.621  0.00  0.00    -0.286 OA
ATOM     12  C   UNL d   1      52.367  30.167  52.568  0.00  0.00     0.027 C 
ENDROOT
BRANCH   1  13
ATOM     13  C   UNL d   1      53.321  30.213  53.892  0.00  0.00     0.116 A 
ATOM     14  N   UNL d   1      53.037  29.679  54.467  0.00  0.00    -0.238 NA
ATOM     15  C   UNL d   1      53.566  29.060  54.534  0.00  0.00     0.088 A 
ATOM     16  C   UNL d   1      53.508  28.399  55.041  0.00  0.00     0.021 C 
ATOM     17  C   UNL d   1      54.166  29.185  54.028  0.00  0.00     0.056 A 
ATOM     18  S   UNL d   1      54.029  29.907  53.615  0.00  0.00    -0.066 SA
ENDBRANCH   1  13
BRANCH  10  19
ATOM     19  C   UNL d   1      52.926  34.515  54.027  0.00  0.00     0.002 C 
BRANCH  19  20
ATOM     20  C   UNL d   1      53.329  34.564  54.759  0.00  0.00     0.000 C 
ATOM     21  C   UNL d   1      53.387  35.285  55.156  0.00  0.00     0.000 C 
ENDBRANCH  19  20
ENDBRANCH  10  19
BRANCH   9  22
ATOM     22  O   UNL d   1      51.975  34.439  52.701  0.00  0.00    -0.273 OA
BRANCH  22  23
ATOM     23  C   UNL d   1      51.289  34.394  52.211  0.00  0.00     0.300 C 
ATOM     24  O   UNL d   1      51.403  34.304  51.419  0.00  0.00    -0.259 OA
ATOM     25  C   UNL d   1      50.520  34.445  52.572  0.00  0.00     0.074 C 
ENDBRANCH  22  23
ENDBRANCH   9  22
TORSDOF 5
ENDMDL
MODEL 4
REMARK VINA RESULT:      -6.2      0.994      2.263
REMARK  5 active torsions:
REMARK  status: ('A' for Active; 'I' for Inactive)
REMARK    1  A    between atoms: C_2  and  C_1 
REMARK    2  A    between atoms: O_16  and  C_12 
REMARK    3  A    between atoms: C_21  and  C_14 
REMARK    4  A    between atoms: C_17  and  O_16 
REMARK    5  A    between atoms: C_24  and  C_21 
ROOT
ATOM      1  C   UNL d   1      51.071  33.605  53.100  0.00  0.00     0.086 A 
ATOM      2  C   UNL d   1      51.802  33.819  53.403  0.00  0.00     0.201 A 
ATOM      3  C   UNL d   1      52.386  33.221  53.528  0.00  0.00     0.062 A 
ATOM      4  C   UNL d   1      50.903  32.824  52.917  0.00  0.00     0.105 A 
ATOM      5  C   UNL d   1      52.213  32.418  53.340  0.00  0.00     0.105 A 
ATOM      6  O   UNL d   1      51.460  32.234  53.032  0.00  0.00    -0.307 OA
ATOM      7  C   UNL d   1      53.116  33.435  53.831  0.00  0.00     0.007 A 
ATOM      8  C   UNL d   1      52.774  31.850  53.460  0.00  0.00     0.050 A 
ATOM      9  C   UNL d   1      53.504  32.063  53.764  0.00  0.00     0.105 A 
ATOM     10  C   UNL d   1      53.673  32.845  53.947  0.00  0.00     0.023 A 
ATOM     11  O   UNL d   1      51.948  34.601  53.578  0.00  0.00    -0.286 OA
ATOM     12  C   UNL d   1      50.151  32.617  52.606  0.00  0.00     0.027 C 
ENDROOT
BRANCH   1  13
ATOM     13  C   UNL d   1      50.487  34.173  52.970  0.00  0.00     0.116 A 
ATOM     14  N   UNL d   1      49.980  34.589  53.486  0.00  0.00    -0.238 NA
ATOM     15  C   UNL d   1      49.509  35.088  53.044  0.00  0.00     0.088 A 
ATOM     16  C   UNL d   1      48.920  35.609  53.327  0.00  0.00     0.021 C 
ATOM     17  C   UNL d   1      49.699  35.002  52.277  0.00  0.00     0.056 A 
ATOM     18  S   UNL d   1      50.313  34.430  52.212  0.00  0.00    -0.066 SA
ENDBRANCH   1  13
BRANCH  10  19
ATOM     19  C   UNL d   1      54.446  33.016  54.260  0.00  0.00     0.002 C 
BRANCH  19  20
ATOM     20  C   UNL d   1      54.544  33.653  54.795  0.00  0.00     0.000 C 
ATOM     21  C   UNL d   1      55.282  33.806  55.131  0.00  0.00     0.000 C 
ENDBRANCH  19  20
ENDBRANCH  10  19
BRANCH   9  22
ATOM     22  O   UNL d   1      54.083  31.468  53.887  0.00  0.00    -0.273 OA
BRANCH  22  23
ATOM     23  C   UNL d   1      53.912  30.681  53.634  0.00  0.00     0.300 C 
ATOM     24  O   UNL d   1      54.075  30.492  52.869  0.00  0.00    -0.259 OA
ATOM     25  C   UNL d   1      53.579  30.131  54.192  0.00  0.00     0.074 C 
ENDBRANCH  22  23
ENDBRANCH   9  22
TORSDOF 5
ENDMDL
MODEL 5
REMARK VINA RESULT:      -5.2     10.115     11.137
REMARK  5 active torsions:
REMARK  status: ('A' for Active; 'I' for Inactive)
REMARK    1  A    between atoms: C_2  and  C_1 
REMARK    2  A    between atoms: O_16  and  C_12 
REMARK    3  A    between atoms: C_21  and  C_14 
REMARK    4  A    between atoms: C_17  and  O_16 
REMARK    5  A    between atoms: C_24  and  C_21 
ROOT
ATOM      1  C   UNL d   1      44.904  27.208  58.287  0.00  0.00     0.086 A 
ATOM      2  C   UNL d   1      44.726  27.615  58.976  0.00  0.00     0.201 A 
ATOM      3  C   UNL d   1      44.806  28.456  58.989  0.00  0.00     0.062 A 
ATOM      4  C   UNL d   1      45.156  27.605  57.616  0.00  0.00     0.105 A 
ATOM      5  C   UNL d   1      45.065  28.864  58.299  0.00  0.00     0.105 A 
ATOM      6  O   UNL d   1      45.238  28.421  57.615  0.00  0.00    -0.307 OA
ATOM      7  C   UNL d   1      44.628  28.862  59.678  0.00  0.00     0.007 A 
ATOM      8  C   UNL d   1      45.140  29.668  58.316  0.00  0.00     0.050 A 
ATOM      9  C   UNL d   1      44.963  30.075  59.005  0.00  0.00     0.105 A 
ATOM     10  C   UNL d   1      44.710  29.677  59.676  0.00  0.00     0.023 A 
ATOM     11  O   UNL d   1      44.477  27.199  59.631  0.00  0.00    -0.286 OA
ATOM     12  C   UNL d   1      45.335  27.178  56.916  0.00  0.00     0.027 C 
ENDROOT
BRANCH   1  13
ATOM     13  C   UNL d   1      44.833  26.387  58.253  0.00  0.00     0.116 A 
ATOM     14  N   UNL d   1      45.194  25.770  58.684  0.00  0.00    -0.238 NA
ATOM     15  C   UNL d   1      44.909  25.056  58.408  0.00  0.00     0.088 A 
ATOM     16  C   UNL d   1      45.116  24.293  58.677  0.00  0.00     0.021 C 
ATOM     17  C   UNL d   1      44.387  25.200  57.826  0.00  0.00     0.056 A 
ATOM     18  S   UNL d   1      44.327  26.032  57.714  0.00  0.00    -0.066 SA
ENDBRANCH   1  13
BRANCH  10  19
ATOM     19  C   UNL d   1      44.538  30.145  60.367  0.00  0.00     0.002 C 
BRANCH  19  20
ATOM     20  C   UNL d   1      44.438  29.767  61.107  0.00  0.00     0.000 C 
ATOM     21  C   UNL d   1      44.344  30.213  61.795  0.00  0.00     0.000 C 
ENDBRANCH  19  20
ENDBRANCH  10  19
BRANCH   9  22
ATOM     22  O   UNL d   1      45.043  30.910  59.015  0.00  0.00    -0.273 OA
BRANCH  22  23
ATOM     23  C   UNL d   1      45.053  31.324  58.279  0.00  0.00     0.300 C 
ATOM     24  O   UNL d   1      45.758  31.386  57.896  0.00  0.00    -0.259 OA
ATOM     25  C   UNL d   1      44.326  31.652  57.981  0.00  0.00     0.074 C 
ENDBRANCH  22  23
ENDBRANCH   9  22
TORSDOF 5
ENDMDL
MODEL 6
REMARK VINA RESULT:      -5.1      2.757      6.106
REMARK  5 active torsions:
REMARK  status: ('A' for Active; 'I' for Inactive)
REMARK    1  A    between atoms: C_2  and  C_1 
REMARK    2  A    between atoms: O_16  and  C_12 
REMARK    3  A    between atoms: C_21  and  C_14 
REMARK    4  A    between atoms: C_17  and  O_16 
REMARK    5  A    between atoms: C_24  and  C_21 
ROOT
ATOM      1  C   UNL d   1      49.965  34.682  52.537  0.00  0.00     0.086 A 
ATOM      2  C   UNL d   1      49.535  35.132  53.070  0.00  0.00     0.201 A 
ATOM      3  C   UNL d   1      48.756  35.384  52.860  0.00  0.00     0.062 A 
ATOM      4  C   UNL d   1      49.650  34.475  51.809  0.00  0.00     0.105 A 
ATOM      5  C   UNL d   1      48.433  35.171  52.112  0.00  0.00     0.105 A 
ATOM      6  O   UNL d   1      48.896  34.713  51.593  0.00  0.00    -0.307 OA
ATOM      7  C   UNL d   1      48.327  35.834  53.393  0.00  0.00     0.007 A 
ATOM      8  C   UNL d   1      47.688  35.414  51.916  0.00  0.00     0.050 A 
ATOM      9  C   UNL d   1      47.258  35.864  52.449  0.00  0.00     0.105 A 
ATOM     10  C   UNL d   1      47.572  36.071  53.177  0.00  0.00     0.023 A 
ATOM     11  O   UNL d   1      49.868  35.326  53.788  0.00  0.00    -0.286 OA
ATOM     12  C   UNL d   1      50.100  34.013  51.272  0.00  0.00     0.027 C 
ENDROOT
BRANCH   1  13
ATOM     13  C   UNL d   1      50.728  34.426  52.722  0.00  0.00     0.116 A 
ATOM     14  N   UNL d   1      51.451  34.830  52.821  0.00  0.00    -0.238 NA
ATOM     15  C   UNL d   1      52.032  34.286  53.003  0.00  0.00     0.088 A 
ATOM     16  C   UNL d   1      52.840  34.441  53.148  0.00  0.00     0.021 C 
ATOM     17  C   UNL d   1      51.704  33.562  53.022  0.00  0.00     0.056 A 
ATOM     18  S   UNL d   1      50.883  33.631  52.847  0.00  0.00    -0.066 SA
ENDBRANCH   1  13
BRANCH  10  19
ATOM     19  C   UNL d   1      47.086  36.540  53.695  0.00  0.00     0.002 C 
BRANCH  19  20
ATOM     20  C   UNL d   1      47.330  36.671  54.485  0.00  0.00     0.000 C 
ATOM     21  C   UNL d   1      46.775  36.701  55.095  0.00  0.00     0.000 C 
ENDBRANCH  19  20
ENDBRANCH  10  19
BRANCH   9  22
ATOM     22  O   UNL d   1      46.484  36.113  52.238  0.00  0.00    -0.273 OA
BRANCH  22  23
ATOM     23  C   UNL d   1      46.077  35.694  51.629  0.00  0.00     0.300 C 
ATOM     24  O   UNL d   1      45.728  34.996  51.826  0.00  0.00    -0.259 OA
ATOM     25  C   UNL d   1      46.055  36.025  50.844  0.00  0.00     0.074 C 
ENDBRANCH  22  23
ENDBRANCH   9  22
TORSDOF 5
ENDMDL
