MODEL 1
REMARK VINA RESULT:      -2.2      0.000      0.000
REMARK  5 active torsions:
REMARK  status: ('A' for Active; 'I' for Inactive)
REMARK    1  A    between atoms: C_10  and  C_3 
REMARK    2  A    between atoms: S_11  and  C_4 
REMARK    3  A    between atoms: C_17  and  S_11 
REMARK    4  A    between atoms: C_13  and  C_17 
REMARK       I    between atoms: N_14  and  C_13 
REMARK    5  A    between atoms: C_15  and  N_14 
ROOT
ATOM      1  C   UNL d   1      58.309  -9.525  29.996  0.00  0.00     0.150 A 
ATOM      2  N   UNL d   1      58.747  -9.598  30.696  0.00  0.00    -0.285 N 
ATOM      3  C   UNL d   1      57.500  -9.598  30.017  0.00  0.00     0.056 A 
ATOM      4  C   UNL d   1      58.361  -9.742  31.395  0.00  0.00     0.096 A 
ATOM      5  N   UNL d   1      58.691  -9.379  29.284  0.00  0.00    -0.227 NA
ATOM      6  C   UNL d   1      57.114  -9.744  30.732  0.00  0.00     0.006 A 
ATOM      7  C   UNL d   1      57.553  -9.815  31.416  0.00  0.00     0.025 A 
ATOM      8  C   UNL d   1      59.945  -9.378  29.959  0.00  0.00     0.084 A 
ATOM      9  C   UNL d   1      59.507  -9.305  29.259  0.00  0.00     0.099 A 
ATOM     10  C   UNL d   1      56.312  -9.816  30.749  0.00  0.00     0.000 C 
ATOM     11  C   UNL d   1      60.755  -9.304  29.937  0.00  0.00     0.019 A 
ATOM     12  C   UNL d   1      59.892  -9.161  28.560  0.00  0.00     0.021 A 
ATOM     13  C   UNL d   1      61.133  -9.159  29.227  0.00  0.00     0.002 A 
ATOM     14  C   UNL d   1      60.702  -9.087  28.538  0.00  0.00     0.002 A 
ENDROOT
BRANCH   4  15
ATOM     15  S   UNL d   1      58.809  -9.816  32.109  0.00  0.00    -0.064 SA
BRANCH  15  16
ATOM     16  C   UNL d   1      59.421  -9.490  32.603  0.00  0.00     0.099 C 
BRANCH  16  17
ATOM     17  C   UNL d   1      59.260  -9.307  33.411  0.00  0.00     0.286 C 
ATOM     18  N   UNL d   1      59.834  -8.884  33.873  0.00  0.00    -0.208 NA
ATOM     19  O   UNL d   1      58.523  -9.545  33.768  0.00  0.00    -0.265 OA
BRANCH  18  20
ATOM     20  C   UNL d   1      59.672  -8.697  34.694  0.00  0.00     0.085 A 
ATOM     21  C   UNL d   1      59.644  -7.895  34.940  0.00  0.00     0.019 A 
ATOM     22  C   UNL d   1      59.484  -7.710  35.751  0.00  0.00     0.002 A 
ATOM     23  C   UNL d   1      59.455  -6.901  36.003  0.00  0.00     0.000 C 
ATOM     24  C   UNL d   1      59.350  -8.330  36.323  0.00  0.00     0.000 A 
ATOM     25  C   UNL d   1      59.383  -9.139  36.055  0.00  0.00     0.002 A 
ATOM     26  C   UNL d   1      59.543  -9.323  35.244  0.00  0.00     0.019 A 
ENDBRANCH  18  20
ENDBRANCH  16  17
ENDBRANCH  15  16
ENDBRANCH   4  15
BRANCH   3  27
ATOM     27  C   UNL d   1      57.062  -9.527  29.333  0.00  0.00     0.125 C 
ATOM     28  N   UNL d   1      56.767  -8.787  29.155  0.00  0.00    -0.146 N 
ENDBRANCH   3  27
TORSDOF 5
ENDMDL
MODEL 2
REMARK VINA RESULT:      -0.6      8.943     10.851
REMARK  5 active torsions:
REMARK  status: ('A' for Active; 'I' for Inactive)
REMARK    1  A    between atoms: C_10  and  C_3 
REMARK    2  A    between atoms: S_11  and  C_4 
REMARK    3  A    between atoms: C_17  and  S_11 
REMARK    4  A    between atoms: C_13  and  C_17 
REMARK       I    between atoms: N_14  and  C_13 
REMARK    5  A    between atoms: C_15  and  N_14 
ROOT
ATOM      1  C   UNL d   1      56.141   0.677  34.143  0.00  0.00     0.150 A 
ATOM      2  N   UNL d   1      56.671   0.676  33.506  0.00  0.00    -0.285 N 
ATOM      3  C   UNL d   1      55.341   0.675  34.002  0.00  0.00     0.056 A 
ATOM      4  C   UNL d   1      56.383   0.675  32.748  0.00  0.00     0.096 A 
ATOM      5  N   UNL d   1      56.424   0.678  34.914  0.00  0.00    -0.227 NA
ATOM      6  C   UNL d   1      55.055   0.674  33.229  0.00  0.00     0.006 A 
ATOM      7  C   UNL d   1      55.583   0.674  32.607  0.00  0.00     0.025 A 
ATOM      8  C   UNL d   1      57.760   0.679  34.423  0.00  0.00     0.084 A 
ATOM      9  C   UNL d   1      57.230   0.679  35.061  0.00  0.00     0.099 A 
ATOM     10  C   UNL d   1      54.261   0.673  33.093  0.00  0.00     0.000 C 
ATOM     11  C   UNL d   1      58.561   0.680  34.564  0.00  0.00     0.019 A 
ATOM     12  C   UNL d   1      57.518   0.680  35.819  0.00  0.00     0.021 A 
ATOM     13  C   UNL d   1      58.840   0.682  35.332  0.00  0.00     0.002 A 
ATOM     14  C   UNL d   1      58.319   0.682  35.960  0.00  0.00     0.002 A 
ENDROOT
BRANCH   4  15
ATOM     15  S   UNL d   1      56.924   0.675  32.097  0.00  0.00    -0.064 SA
BRANCH  15  16
ATOM     16  C   UNL d   1      57.022   0.612  31.253  0.00  0.00     0.099 C 
BRANCH  16  17
ATOM     17  C   UNL d   1      57.766   0.375  30.932  0.00  0.00     0.286 C 
ATOM     18  N   UNL d   1      57.799   0.009  30.165  0.00  0.00    -0.208 NA
ATOM     19  O   UNL d   1      58.486   0.501  31.371  0.00  0.00    -0.265 OA
BRANCH  18  20
ATOM     20  C   UNL d   1      58.553  -0.232  29.836  0.00  0.00     0.085 A 
ATOM     21  C   UNL d   1      58.638  -1.004  29.516  0.00  0.00     0.019 A 
ATOM     22  C   UNL d   1      59.383  -1.243  29.191  0.00  0.00     0.002 A 
ATOM     23  C   UNL d   1      59.474  -2.021  28.867  0.00  0.00     0.000 C 
ATOM     24  C   UNL d   1      60.050  -0.709  29.184  0.00  0.00     0.000 A 
ATOM     25  C   UNL d   1      59.944   0.071  29.514  0.00  0.00     0.002 A 
ATOM     26  C   UNL d   1      59.199   0.309  29.839  0.00  0.00     0.019 A 
ENDBRANCH  18  20
ENDBRANCH  16  17
ENDBRANCH  15  16
ENDBRANCH   4  15
BRANCH   3  27
ATOM     27  C   UNL d   1      54.813   0.676  34.624  0.00  0.00     0.125 C 
ATOM     28  N   UNL d   1      54.064   0.388  34.475  0.00  0.00    -0.146 N 
ENDBRANCH   3  27
TORSDOF 5
ENDMDL
