MODEL 1
REMARK VINA RESULT:      18.9      0.000      0.000
REMARK  1 active torsions:
REMARK  status: ('A' for Active; 'I' for Inactive)
REMARK    1  A    between atoms: C_4  and  C_1 
ROOT
ATOM      1  C   UNL d   1     -57.459 -98.777 -44.577  0.00  0.00     0.163 A 
ATOM      2  N   UNL d   1     -56.990 -98.784 -45.256  0.00  0.00    -0.225 NA
ATOM      3  N   UNL d   1     -56.955 -98.772 -43.915  0.00  0.00    -0.225 NA
ATOM      4  C   UNL d   1     -56.196 -98.783 -45.022  0.00  0.00     0.101 A 
ATOM      5  C   UNL d   1     -56.175 -98.776 -44.189  0.00  0.00     0.101 A 
ATOM      6  C   UNL d   1     -55.486 -98.789 -45.453  0.00  0.00     0.021 A 
ATOM      7  C   UNL d   1     -55.444 -98.774 -43.797  0.00  0.00     0.021 A 
ATOM      8  C   UNL d   1     -54.743 -98.779 -44.226  0.00  0.00     0.002 A 
ATOM      9  C   UNL d   1     -54.765 -98.787 -45.051  0.00  0.00     0.002 A 
ENDROOT
BRANCH   1  10
ATOM     10  C   UNL d   1     -58.283 -98.775 -44.556  0.00  0.00     0.046 A 
ATOM     11  C   UNL d   1     -58.670 -98.774 -43.835  0.00  0.00     0.061 A 
ATOM     12 CL   UNL d   1     -58.226 -98.775 -43.132  0.00  0.00    -0.082 Cl
ATOM     13  C   UNL d   1     -59.481 -98.772 -43.814  0.00  0.00     0.011 A 
ATOM     14  C   UNL d   1     -59.921 -98.771 -44.514  0.00  0.00     0.001 A 
ATOM     15  C   UNL d   1     -59.529 -98.772 -45.236  0.00  0.00     0.000 A 
ATOM     16  C   UNL d   1     -58.706 -98.774 -45.257  0.00  0.00     0.004 A 
ENDBRANCH   1  10
TORSDOF 1
ENDMDL
MODEL 2
REMARK VINA RESULT:      20.1      0.711      1.365
REMARK  1 active torsions:
REMARK  status: ('A' for Active; 'I' for Inactive)
REMARK    1  A    between atoms: C_4  and  C_1 
ROOT
ATOM      1  C   UNL d   1     -57.469 -98.797 -44.026  0.00  0.00     0.163 A 
ATOM      2  N   UNL d   1     -56.854 -98.828 -43.477  0.00  0.00    -0.225 NA
ATOM      3  N   UNL d   1     -57.134 -98.778 -44.787  0.00  0.00    -0.225 NA
ATOM      4  C   UNL d   1     -56.138 -98.829 -43.889  0.00  0.00     0.101 A 
ATOM      5  C   UNL d   1     -56.311 -98.798 -44.703  0.00  0.00     0.101 A 
ATOM      6  C   UNL d   1     -55.347 -98.854 -43.636  0.00  0.00     0.021 A 
ATOM      7  C   UNL d   1     -55.692 -98.793 -45.256  0.00  0.00     0.021 A 
ATOM      8  C   UNL d   1     -54.911 -98.818 -45.003  0.00  0.00     0.002 A 
ATOM      9  C   UNL d   1     -54.739 -98.848 -44.196  0.00  0.00     0.002 A 
ENDROOT
BRANCH   1  10
ATOM     10  C   UNL d   1     -58.275 -98.785 -43.854  0.00  0.00     0.046 A 
ATOM     11  C   UNL d   1     -58.819 -98.778 -44.464  0.00  0.00     0.061 A 
ATOM     12 CL   UNL d   1     -58.553 -98.781 -45.251  0.00  0.00    -0.082 Cl
ATOM     13  C   UNL d   1     -59.613 -98.767 -44.295  0.00  0.00     0.011 A 
ATOM     14  C   UNL d   1     -59.877 -98.763 -43.512  0.00  0.00     0.001 A 
ATOM     15  C   UNL d   1     -59.327 -98.771 -42.901  0.00  0.00     0.000 A 
ATOM     16  C   UNL d   1     -58.522 -98.782 -43.073  0.00  0.00     0.004 A 
ENDBRANCH   1  10
TORSDOF 1
ENDMDL
MODEL 3
REMARK VINA RESULT:      20.9      0.895      3.495
REMARK  1 active torsions:
REMARK  status: ('A' for Active; 'I' for Inactive)
REMARK    1  A    between atoms: C_4  and  C_1 
ROOT
ATOM      1  C   UNL d   1     -57.220 -98.786 -44.213  0.00  0.00     0.163 A 
ATOM      2  N   UNL d   1     -57.758 -98.756 -44.838  0.00  0.00    -0.225 NA
ATOM      3  N   UNL d   1     -57.652 -98.828 -43.503  0.00  0.00    -0.225 NA
ATOM      4  C   UNL d   1     -58.523 -98.779 -44.523  0.00  0.00     0.101 A 
ATOM      5  C   UNL d   1     -58.457 -98.824 -43.694  0.00  0.00     0.101 A 
ATOM      6  C   UNL d   1     -59.274 -98.766 -44.878  0.00  0.00     0.021 A 
ATOM      7  C   UNL d   1     -59.143 -98.854 -43.228  0.00  0.00     0.021 A 
ATOM      8  C   UNL d   1     -59.884 -98.841 -43.581  0.00  0.00     0.002 A 
ATOM      9  C   UNL d   1     -59.949 -98.797 -44.403  0.00  0.00     0.002 A 
ENDROOT
BRANCH   1  10
ATOM     10  C   UNL d   1     -56.399 -98.776 -44.278  0.00  0.00     0.046 A 
ATOM     11  C   UNL d   1     -56.051 -98.771 -45.018  0.00  0.00     0.061 A 
ATOM     12 CL   UNL d   1     -56.530 -98.775 -45.697  0.00  0.00    -0.082 Cl
ATOM     13  C   UNL d   1     -55.241 -98.761 -45.082  0.00  0.00     0.011 A 
ATOM     14  C   UNL d   1     -54.766 -98.757 -44.406  0.00  0.00     0.001 A 
ATOM     15  C   UNL d   1     -55.119 -98.762 -43.664  0.00  0.00     0.000 A 
ATOM     16  C   UNL d   1     -55.939 -98.772 -43.600  0.00  0.00     0.004 A 
ENDBRANCH   1  10
TORSDOF 1
ENDMDL
