MODEL 1
REMARK VINA RESULT:      28.5      0.000      0.000
REMARK  1 active torsions:
REMARK  status: ('A' for Active; 'I' for Inactive)
REMARK    1  A    between atoms: C_7  and  C_2 
ROOT
ATOM      1  C   UNL d   1      13.536  12.987  -3.452  0.00  0.00     0.074 A 
ATOM      2  C   UNL d   1      13.918  13.387  -2.841  0.00  0.00     0.088 A 
ATOM      3  C   UNL d   1      13.307  13.394  -4.131  0.00  0.00     0.088 A 
ATOM      4  C   UNL d   1      13.844  14.602  -3.587  0.00  0.00     0.221 A 
ATOM      5  N   UNL d   1      13.461  14.202  -4.199  0.00  0.00    -0.217 NA
ATOM      6  N   UNL d   1      14.072  14.195  -2.908  0.00  0.00    -0.217 NA
ATOM      7  C   UNL d   1      13.385  12.187  -3.381  0.00  0.00     0.199 A 
ATOM      8  S   UNL d   1      13.998  15.410  -3.655  0.00  0.00    -0.037 SA
ATOM      9  O   UNL d   1      13.613  11.779  -2.701  0.00  0.00    -0.286 OA
ATOM     10  C   UNL d   1      12.928  13.002  -4.740  0.00  0.00     0.019 A 
ATOM     11  C   UNL d   1      12.999  11.779  -3.996  0.00  0.00     0.042 A 
ATOM     12  C   UNL d   1      12.771  12.187  -4.675  0.00  0.00     0.005 A 
ENDROOT
BRANCH   2  13
ATOM     13  C   UNL d   1      14.146  12.979  -2.161  0.00  0.00     0.021 A 
ATOM     14  C   UNL d   1      14.632  13.346  -1.604  0.00  0.00     0.043 A 
ATOM     15  C   UNL d   1      14.860  12.941  -0.928  0.00  0.00     0.196 A 
ATOM     16  O   UNL d   1      15.346  13.307  -0.371  0.00  0.00    -0.287 OA
ATOM     17  C   UNL d   1      14.602  12.166  -0.805  0.00  0.00     0.042 A 
ATOM     18  C   UNL d   1      14.116  11.800  -1.363  0.00  0.00     0.003 A 
ATOM     19  C   UNL d   1      13.889  12.205  -2.038  0.00  0.00     0.002 A 
ENDBRANCH   2  13
TORSDOF 1
ENDMDL
MODEL 2
REMARK VINA RESULT:      31.2      1.342      1.978
REMARK  1 active torsions:
REMARK  status: ('A' for Active; 'I' for Inactive)
REMARK    1  A    between atoms: C_7  and  C_2 
ROOT
ATOM      1  C   UNL d   1      13.864  13.346  -2.810  0.00  0.00     0.074 A 
ATOM      2  C   UNL d   1      13.728  12.563  -2.591  0.00  0.00     0.088 A 
ATOM      3  C   UNL d   1      13.650  13.608  -3.561  0.00  0.00     0.088 A 
ATOM      4  C   UNL d   1      13.162  12.302  -3.876  0.00  0.00     0.221 A 
ATOM      5  N   UNL d   1      13.299  13.086  -4.095  0.00  0.00    -0.217 NA
ATOM      6  N   UNL d   1      13.377  12.040  -3.125  0.00  0.00    -0.217 NA
ATOM      7  C   UNL d   1      14.213  13.861  -2.278  0.00  0.00     0.199 A 
ATOM      8  S   UNL d   1      12.811  11.780  -4.410  0.00  0.00    -0.037 SA
ATOM      9  O   UNL d   1      14.428  13.599  -1.526  0.00  0.00    -0.286 OA
ATOM     10  C   UNL d   1      13.783  14.384  -3.782  0.00  0.00     0.019 A 
ATOM     11  C   UNL d   1      14.352  14.652  -2.494  0.00  0.00     0.042 A 
ATOM     12  C   UNL d   1      14.137  14.914  -3.246  0.00  0.00     0.005 A 
ENDROOT
BRANCH   2  13
ATOM     13  C   UNL d   1      13.943  12.301  -1.839  0.00  0.00     0.021 A 
ATOM     14  C   UNL d   1      14.740  12.197  -1.651  0.00  0.00     0.043 A 
ATOM     15  C   UNL d   1      14.954  11.937  -0.904  0.00  0.00     0.196 A 
ATOM     16  O   UNL d   1      15.751  11.832  -0.715  0.00  0.00    -0.287 OA
ATOM     17  C   UNL d   1      14.372  11.779  -0.339  0.00  0.00     0.042 A 
ATOM     18  C   UNL d   1      13.576  11.884  -0.528  0.00  0.00     0.003 A 
ATOM     19  C   UNL d   1      13.362  12.144  -1.276  0.00  0.00     0.002 A 
ENDBRANCH   2  13
TORSDOF 1
ENDMDL
