MODEL 1
REMARK VINA RESULT:      38.2      0.000      0.000
REMARK  7 active torsions:
REMARK  status: ('A' for Active; 'I' for Inactive)
REMARK    1  A    between atoms: C_5  and  N_1 
REMARK    2  A    between atoms: C_3  and  N_2 
REMARK    3  A    between atoms: N_4  and  C_11 
REMARK    4  A    between atoms: C_11  and  C_17 
REMARK    5  A    between atoms: O_16  and  C_18 
REMARK    6  A    between atoms: C_20  and  O_16 
REMARK    7  A    between atoms: C_17  and  C_20 
ROOT
ATOM      1  C   UNL d   1     -55.609-102.426 -40.509  0.00  0.00     0.125 C 
ENDROOT
BRANCH   1   2
ATOM      2  N   UNL d   1     -55.568-102.470 -39.716  0.00  0.00    -0.297 N 
ATOM      3  C   UNL d   1     -54.930-102.179 -39.291  0.00  0.00     0.100 A 
ATOM      4  C   UNL d   1     -54.889-102.224 -38.491  0.00  0.00     0.100 A 
ATOM      5  N   UNL d   1     -55.520-102.581 -38.062  0.00  0.00    -0.299 N 
ATOM      6  C   UNL d   1     -56.164-102.875 -38.473  0.00  0.00     0.100 A 
ATOM      7  C   UNL d   1     -56.206-102.830 -39.287  0.00  0.00     0.100 A 
BRANCH   5   8
ATOM      8  C   UNL d   1     -55.477-102.626 -37.239  0.00  0.00     0.092 A 
ATOM      9  C   UNL d   1     -56.183-102.673 -36.803  0.00  0.00     0.156 A 
ATOM     10  F   UNL d   1     -56.919-102.675 -37.180  0.00  0.00    -0.203 F 
ATOM     11  C   UNL d   1     -56.141-102.719 -35.984  0.00  0.00     0.031 A 
ATOM     12  C   UNL d   1     -55.427-102.718 -35.597  0.00  0.00     0.002 A 
ATOM     13  C   UNL d   1     -54.712-102.671 -36.034  0.00  0.00     0.002 A 
ATOM     14  C   UNL d   1     -54.754-102.625 -36.857  0.00  0.00     0.020 A 
ENDBRANCH   5   8
ENDBRANCH   1   2
BRANCH   1  15
ATOM     15  C   UNL d   1     -55.030-101.998 -40.931  0.00  0.00     0.238 C 
ATOM     16  O   UNL d   1     -54.712-101.202 -40.547  0.00  0.00    -0.283 OA
BRANCH  15  17
ATOM     17  C   UNL d   1     -54.762-102.279 -41.649  0.00  0.00     0.166 C 
BRANCH  17  18
ATOM     18  O   UNL d   1     -55.277-102.281 -42.306  0.00  0.00    -0.302 OA
BRANCH  18  19
ATOM     19  C   UNL d   1     -55.158-101.752 -42.917  0.00  0.00     0.100 A 
ATOM     20  C   UNL d   1     -55.157-102.002 -43.704  0.00  0.00     0.026 A 
ATOM     21  C   UNL d   1     -55.036-101.470 -44.328  0.00  0.00     0.026 A 
ATOM     22  C   UNL d   1     -54.911-100.652 -44.155  0.00  0.00     0.127 A 
ATOM     23  C   UNL d   1     -54.911-100.402 -43.368  0.00  0.00     0.026 A 
ATOM     24  C   UNL d   1     -55.035-100.952 -42.744  0.00  0.00     0.026 A 
BRANCH  22  25
ATOM     25  N   UNL d   1     -54.788-100.103 -44.759  0.00  0.00    -0.114 N 
ATOM     26  O   UNL d   1     -54.711-100.290 -45.559  0.00  0.00    -0.532 OA
ATOM     27  O   UNL d   1     -54.726 -99.292 -44.640  0.00  0.00    -0.532 OA
ENDBRANCH  22  25
ENDBRANCH  18  19
ENDBRANCH  17  18
ENDBRANCH  15  17
ENDBRANCH   1  15
TORSDOF 7
ENDMDL
