MODEL 1
REMARK VINA RESULT:      55.3      0.000      0.000
REMARK  3 active torsions:
REMARK  status: ('A' for Active; 'I' for Inactive)
REMARK    1  A    between atoms: C_7  and  C_3 
REMARK       I    between atoms: N_10  and  C_7 
REMARK    2  A    between atoms: C_19  and  C_9 
REMARK    3  A    between atoms: C_12  and  N_10 
ROOT
ATOM      1  C   UNL d   1     -48.674  28.239  34.417  0.00  0.00     0.059 A 
ATOM      2  C   UNL d   1     -49.029  28.869  34.020  0.00  0.00     0.013 A 
ATOM      3  C   UNL d   1     -49.597  27.338  33.810  0.00  0.00     0.088 A 
ATOM      4  S   UNL d   1     -48.957  27.474  34.313  0.00  0.00    -0.075 SA
ATOM      5  S   UNL d   1     -48.033  28.371  34.921  0.00  0.00    -0.080 SA
ATOM      6  C   UNL d   1     -49.952  27.968  33.413  0.00  0.00     0.012 A 
ATOM      7  C   UNL d   1     -48.110  29.767  34.624  0.00  0.00     0.007 A 
ATOM      8  C   UNL d   1     -47.755  29.136  35.021  0.00  0.00     0.030 A 
ENDROOT
BRANCH   3   9
ATOM      9  C   UNL d   1     -49.879  26.573  33.706  0.00  0.00     0.285 C 
ATOM     10  N   UNL d   1     -50.695  26.427  33.722  0.00  0.00    -0.208 NA
ATOM     11  O   UNL d   1     -49.358  25.956  33.587  0.00  0.00    -0.265 OA
BRANCH  10  12
ATOM     12  C   UNL d   1     -50.980  25.660  33.618  0.00  0.00     0.085 A 
ATOM     13  C   UNL d   1     -50.475  25.028  33.720  0.00  0.00     0.021 A 
ATOM     14  C   UNL d   1     -50.748  24.259  33.619  0.00  0.00     0.031 A 
ATOM     15  C   UNL d   1     -51.539  24.132  33.414  0.00  0.00     0.140 A 
ATOM     16  C   UNL d   1     -52.043  24.777  33.313  0.00  0.00     0.031 A 
ATOM     17  F   UNL d   1     -51.825  23.365  33.310  0.00  0.00    -0.204 F 
ATOM     18  C   UNL d   1     -51.763  25.545  33.415  0.00  0.00     0.021 A 
ENDBRANCH  10  12
ENDBRANCH   3   9
BRANCH   8  19
ATOM     19  C   UNL d   1     -47.117  29.282  35.521  0.00  0.00     0.006 C 
ATOM     20  C   UNL d   1     -47.087  29.969  35.970  0.00  0.00     0.001 C 
ENDBRANCH   8  19
TORSDOF 3
ENDMDL
MODEL 2
REMARK VINA RESULT:      56.8      2.397      5.200
REMARK  3 active torsions:
REMARK  status: ('A' for Active; 'I' for Inactive)
REMARK    1  A    between atoms: C_7  and  C_3 
REMARK       I    between atoms: N_10  and  C_7 
REMARK    2  A    between atoms: C_19  and  C_9 
REMARK    3  A    between atoms: C_12  and  N_10 
ROOT
ATOM      1  C   UNL d   1     -50.369  26.342  33.767  0.00  0.00     0.059 A 
ATOM      2  C   UNL d   1     -49.888  25.694  33.597  0.00  0.00     0.013 A 
ATOM      3  C   UNL d   1     -49.214  27.124  34.059  0.00  0.00     0.088 A 
ATOM      4  S   UNL d   1     -50.035  27.056  33.998  0.00  0.00    -0.075 SA
ATOM      5  S   UNL d   1     -51.191  26.278  33.707  0.00  0.00    -0.080 SA
ATOM      6  C   UNL d   1     -48.733  26.476  33.888  0.00  0.00     0.012 A 
ATOM      7  C   UNL d   1     -51.039  24.916  33.306  0.00  0.00     0.007 A 
ATOM      8  C   UNL d   1     -51.520  25.563  33.477  0.00  0.00     0.030 A 
ENDROOT
BRANCH   3   9
ATOM      9  C   UNL d   1     -48.879  27.838  34.290  0.00  0.00     0.285 C 
ATOM     10  N   UNL d   1     -48.478  27.892  35.014  0.00  0.00    -0.208 NA
ATOM     11  O   UNL d   1     -48.941  28.494  33.809  0.00  0.00    -0.265 OA
BRANCH  10  12
ATOM     12  C   UNL d   1     -48.142  28.608  35.247  0.00  0.00     0.085 A 
ATOM     13  C   UNL d   1     -48.362  28.941  35.959  0.00  0.00     0.021 A 
ATOM     14  C   UNL d   1     -48.034  29.654  36.202  0.00  0.00     0.031 A 
ATOM     15  C   UNL d   1     -47.478  30.031  35.719  0.00  0.00     0.140 A 
ATOM     16  C   UNL d   1     -47.261  29.687  35.001  0.00  0.00     0.031 A 
ATOM     17  F   UNL d   1     -47.140  30.748  35.953  0.00  0.00    -0.204 F 
ATOM     18  C   UNL d   1     -47.594  28.973  34.764  0.00  0.00     0.021 A 
ENDBRANCH  10  12
ENDBRANCH   3   9
BRANCH   8  19
ATOM     19  C   UNL d   1     -52.338  25.487  33.413  0.00  0.00     0.006 C 
ATOM     20  C   UNL d   1     -52.681  24.746  33.312  0.00  0.00     0.001 C 
ENDBRANCH   8  19
TORSDOF 3
ENDMDL
