MODEL 1
REMARK VINA RESULT:      21.0      0.000      0.000
REMARK  4 active torsions:
REMARK  status: ('A' for Active; 'I' for Inactive)
REMARK    1  A    between atoms: C_5  and  N_1 
REMARK    2  A    between atoms: C_7  and  C_5 
REMARK    3  A    between atoms: O_10  and  C_8 
REMARK    4  A    between atoms: C_14  and  O_10 
ROOT
ATOM      1  C   UNL d   1      45.525 -14.195  43.655  0.00  0.00     0.087 C 
ENDROOT
BRANCH   1   2
ATOM      2  N   UNL d   1      45.241 -14.815  44.107  0.00  0.00    -0.251 N 
ATOM      3  C   UNL d   1      44.587 -14.830  44.626  0.00  0.00     0.378 A 
ATOM      4  O   UNL d   1      44.532 -15.595  44.951  0.00  0.00    -0.258 OA
ATOM      5  O   UNL d   1      44.085 -14.196  44.787  0.00  0.00    -0.237 OA
ATOM      6  C   UNL d   1      45.144 -16.053  44.639  0.00  0.00     0.121 A 
ATOM      7  C   UNL d   1      45.580 -15.575  44.120  0.00  0.00     0.092 A 
ATOM      8  C   UNL d   1      45.372 -16.847  44.753  0.00  0.00     0.026 A 
ATOM      9  C   UNL d   1      46.237 -15.888  43.719  0.00  0.00     0.020 A 
ATOM     10  C   UNL d   1      46.457 -16.673  43.836  0.00  0.00     0.002 A 
ATOM     11  C   UNL d   1      46.023 -17.153  44.354  0.00  0.00     0.002 A 
ENDBRANCH   1   2
BRANCH   1  12
ATOM     12  C   UNL d   1      45.777 -13.498  44.011  0.00  0.00     0.041 A 
ATOM     13  C   UNL d   1      45.446 -12.781  43.796  0.00  0.00     0.101 A 
ATOM     14  C   UNL d   1      45.697 -12.085  44.153  0.00  0.00     0.025 A 
ATOM     15  C   UNL d   1      46.288 -12.112  44.732  0.00  0.00     0.002 A 
ATOM     16  C   UNL d   1      46.625 -12.833  44.952  0.00  0.00     0.000 A 
ATOM     17  C   UNL d   1      46.369 -13.528  44.592  0.00  0.00     0.004 A 
BRANCH  13  18
ATOM     18  O   UNL d   1      44.856 -12.754  43.218  0.00  0.00    -0.307 OA
BRANCH  18  19
ATOM     19  C   UNL d   1      45.020 -12.428  42.475  0.00  0.00     0.100 C 
ATOM     20  C   UNL d   1      45.791 -12.415  42.191  0.00  0.00     0.027 C 
ATOM     21  C   UNL d   1      44.407 -12.115  42.021  0.00  0.00     0.027 C 
ENDBRANCH  18  19
ENDBRANCH  13  18
ENDBRANCH   1  12
TORSDOF 4
ENDMDL
MODEL 2
REMARK VINA RESULT:      23.9      1.958      3.247
REMARK  4 active torsions:
REMARK  status: ('A' for Active; 'I' for Inactive)
REMARK    1  A    between atoms: C_5  and  N_1 
REMARK    2  A    between atoms: C_7  and  C_5 
REMARK    3  A    between atoms: O_10  and  C_8 
REMARK    4  A    between atoms: C_14  and  O_10 
ROOT
ATOM      1  C   UNL d   1      46.397 -16.635  43.646  0.00  0.00     0.087 C 
ENDROOT
BRANCH   1   2
ATOM      2  N   UNL d   1      46.453 -17.446  43.555  0.00  0.00    -0.251 N 
ATOM      3  C   UNL d   1      46.534 -18.036  44.140  0.00  0.00     0.378 A 
ATOM      4  O   UNL d   1      46.566 -18.776  43.760  0.00  0.00    -0.258 OA
ATOM      5  O   UNL d   1      46.575 -17.906  44.954  0.00  0.00    -0.237 OA
ATOM      6  C   UNL d   1      46.506 -18.650  42.946  0.00  0.00     0.121 A 
ATOM      7  C   UNL d   1      46.436 -17.834  42.818  0.00  0.00     0.092 A 
ATOM      8  C   UNL d   1      46.505 -19.167  42.292  0.00  0.00     0.026 A 
ATOM      9  C   UNL d   1      46.366 -17.538  42.045  0.00  0.00     0.020 A 
ATOM     10  C   UNL d   1      46.365 -18.054  41.404  0.00  0.00     0.002 A 
ATOM     11  C   UNL d   1      46.435 -18.871  41.528  0.00  0.00     0.002 A 
ENDBRANCH   1   2
BRANCH   1  12
ATOM     12  C   UNL d   1      45.780 -16.304  44.079  0.00  0.00     0.041 A 
ATOM     13  C   UNL d   1      45.673 -15.492  44.090  0.00  0.00     0.101 A 
ATOM     14  C   UNL d   1      45.058 -15.162  44.522  0.00  0.00     0.025 A 
ATOM     15  C   UNL d   1      44.545 -15.654  44.946  0.00  0.00     0.002 A 
ATOM     16  C   UNL d   1      44.649 -16.473  44.938  0.00  0.00     0.000 A 
ATOM     17  C   UNL d   1      45.268 -16.800  44.503  0.00  0.00     0.004 A 
BRANCH  13  18
ATOM     18  O   UNL d   1      46.186 -15.001  43.667  0.00  0.00    -0.307 OA
BRANCH  18  19
ATOM     19  C   UNL d   1      46.201 -14.188  43.822  0.00  0.00     0.100 C 
ATOM     20  C   UNL d   1      46.039 -13.650  43.223  0.00  0.00     0.027 C 
ATOM     21  C   UNL d   1      46.379 -13.920  44.581  0.00  0.00     0.027 C 
ENDBRANCH  18  19
ENDBRANCH  13  18
ENDBRANCH   1  12
TORSDOF 4
ENDMDL
