MODEL 1
REMARK VINA RESULT:      -4.8      0.000      0.000
REMARK  6 active torsions:
REMARK  status: ('A' for Active; 'I' for Inactive)
REMARK    1  A    between atoms: C_8  and  C_3 
REMARK    2  A    between atoms: C_7  and  O_15 
REMARK    3  A    between atoms: S_9  and  C_8 
REMARK    4  A    between atoms: C_18  and  S_9 
REMARK    5  A    between atoms: O_15  and  C_19 
REMARK    6  A    between atoms: C_19  and  C_18 
ROOT
ATOM      1  S   UNL d   1      58.291  -0.463  30.416  0.00  0.00    -0.081 SA
ENDROOT
BRANCH   1   2
ATOM      2  C   UNL d   1      57.653  -0.036  30.713  0.00  0.00     0.074 C 
BRANCH   2   3
ATOM      3  C   UNL d   1      57.183  -0.361  31.305  0.00  0.00     0.169 A 
ATOM      4  N   UNL d   1      56.846  -0.981  31.755  0.00  0.00    -0.225 NA
ATOM      5  C   UNL d   1      56.349  -0.639  32.336  0.00  0.00     0.101 A 
ATOM      6  C   UNL d   1      56.385   0.188  32.238  0.00  0.00     0.101 A 
ATOM      7  C   UNL d   1      55.871  -0.955  32.937  0.00  0.00     0.021 A 
ATOM      8  N   UNL d   1      56.897   0.367  31.604  0.00  0.00    -0.225 NA
ATOM      9  C   UNL d   1      55.942   0.682  32.743  0.00  0.00     0.021 A 
ATOM     10  C   UNL d   1      55.477   0.356  33.329  0.00  0.00     0.002 A 
ATOM     11  C   UNL d   1      55.442  -0.462  33.426  0.00  0.00     0.002 A 
ENDBRANCH   2   3
ENDBRANCH   1   2
BRANCH   1  12
ATOM     12  C   UNL d   1      58.456  -0.445  29.609  0.00  0.00     0.062 C 
BRANCH  12  13
ATOM     13  C   UNL d   1      58.915  -1.040  29.271  0.00  0.00     0.130 C 
BRANCH  13  14
ATOM     14  O   UNL d   1      59.067  -1.022  28.460  0.00  0.00    -0.305 OA
BRANCH  14  15
ATOM     15  C   UNL d   1      59.477  -1.734  28.535  0.00  0.00     0.100 A 
ATOM     16  C   UNL d   1      60.281  -1.724  28.681  0.00  0.00     0.026 A 
ATOM     17  C   UNL d   1      60.694  -2.434  28.756  0.00  0.00     0.013 A 
ATOM     18  C   UNL d   1      60.295  -3.155  28.683  0.00  0.00     0.058 A 
ATOM     19  C   UNL d   1      59.487  -3.158  28.536  0.00  0.00     0.013 A 
ATOM     20 CL   UNL d   1      60.705  -3.867  28.758  0.00  0.00    -0.082 Cl
ATOM     21  C   UNL d   1      59.081  -2.444  28.462  0.00  0.00     0.026 A 
ENDBRANCH  14  15
ENDBRANCH  13  14
ENDBRANCH  12  13
ENDBRANCH   1  12
TORSDOF 6
ENDMDL
MODEL 2
REMARK VINA RESULT:      -4.0      1.293      1.957
REMARK  6 active torsions:
REMARK  status: ('A' for Active; 'I' for Inactive)
REMARK    1  A    between atoms: C_8  and  C_3 
REMARK    2  A    between atoms: C_7  and  O_15 
REMARK    3  A    between atoms: S_9  and  C_8 
REMARK    4  A    between atoms: C_18  and  S_9 
REMARK    5  A    between atoms: O_15  and  C_19 
REMARK    6  A    between atoms: C_19  and  C_18 
ROOT
ATOM      1  S   UNL d   1      57.456   0.121  31.482  0.00  0.00    -0.081 SA
ENDROOT
BRANCH   1   2
ATOM      2  C   UNL d   1      56.733  -0.037  31.842  0.00  0.00     0.074 C 
BRANCH   2   3
ATOM      3  C   UNL d   1      56.621   0.147  32.635  0.00  0.00     0.169 A 
ATOM      4  N   UNL d   1      56.863   0.331  33.415  0.00  0.00    -0.225 NA
ATOM      5  C   UNL d   1      56.175   0.434  33.882  0.00  0.00     0.101 A 
ATOM      6  C   UNL d   1      55.517   0.313  33.385  0.00  0.00     0.101 A 
ATOM      7  C   UNL d   1      56.049   0.619  34.682  0.00  0.00     0.021 A 
ATOM      8  N   UNL d   1      55.784   0.135  32.615  0.00  0.00    -0.225 NA
ATOM      9  C   UNL d   1      54.747   0.379  33.698  0.00  0.00     0.021 A 
ATOM     10  C   UNL d   1      54.640   0.562  34.485  0.00  0.00     0.002 A 
ATOM     11  C   UNL d   1      55.291   0.682  34.977  0.00  0.00     0.002 A 
ENDBRANCH   2   3
ENDBRANCH   1   2
BRANCH   1  12
ATOM     12  C   UNL d   1      57.479   0.372  30.698  0.00  0.00     0.062 C 
BRANCH  12  13
ATOM     13  C   UNL d   1      58.014   0.032  30.173  0.00  0.00     0.130 C 
BRANCH  13  14
ATOM     14  O   UNL d   1      57.921   0.155  29.362  0.00  0.00    -0.305 OA
BRANCH  14  15
ATOM     15  C   UNL d   1      58.646  -0.218  29.235  0.00  0.00     0.100 A 
ATOM     16  C   UNL d   1      58.665  -1.018  29.073  0.00  0.00     0.026 A 
ATOM     17  C   UNL d   1      59.388  -1.395  28.945  0.00  0.00     0.013 A 
ATOM     18  C   UNL d   1      60.092  -0.961  28.981  0.00  0.00     0.058 A 
ATOM     19  C   UNL d   1      60.066  -0.157  29.144  0.00  0.00     0.013 A 
ATOM     20 CL   UNL d   1      60.817  -1.335  28.854  0.00  0.00    -0.082 Cl
ATOM     21  C   UNL d   1      59.339   0.212  29.271  0.00  0.00     0.026 A 
ENDBRANCH  14  15
ENDBRANCH  13  14
ENDBRANCH  12  13
ENDBRANCH   1  12
TORSDOF 6
ENDMDL
MODEL 3
REMARK VINA RESULT:      -3.8      2.660      5.668
REMARK  6 active torsions:
REMARK  status: ('A' for Active; 'I' for Inactive)
REMARK    1  A    between atoms: C_8  and  C_3 
REMARK    2  A    between atoms: C_7  and  O_15 
REMARK    3  A    between atoms: S_9  and  C_8 
REMARK    4  A    between atoms: C_18  and  S_9 
REMARK    5  A    between atoms: O_15  and  C_19 
REMARK    6  A    between atoms: C_19  and  C_18 
ROOT
ATOM      1  S   UNL d   1      57.703   0.394  31.001  0.00  0.00    -0.081 SA
ENDROOT
BRANCH   1   2
ATOM      2  C   UNL d   1      57.946   0.239  30.231  0.00  0.00     0.074 C 
BRANCH   2   3
ATOM      3  C   UNL d   1      58.747   0.159  30.061  0.00  0.00     0.169 A 
ATOM      4  N   UNL d   1      59.562   0.329  30.143  0.00  0.00    -0.225 NA
ATOM      5  C   UNL d   1      59.983  -0.158  29.605  0.00  0.00     0.101 A 
ATOM      6  C   UNL d   1      59.422  -0.621  29.198  0.00  0.00     0.101 A 
ATOM      7  C   UNL d   1      60.788  -0.247  29.425  0.00  0.00     0.021 A 
ATOM      8  N   UNL d   1      58.657  -0.432  29.474  0.00  0.00    -0.225 NA
ATOM      9  C   UNL d   1      59.678  -1.165  28.620  0.00  0.00     0.021 A 
ATOM     10  C   UNL d   1      60.473  -1.241  28.455  0.00  0.00     0.002 A 
ATOM     11  C   UNL d   1      61.028  -0.782  28.857  0.00  0.00     0.002 A 
ENDBRANCH   2   3
ENDBRANCH   1   2
BRANCH   1  12
ATOM     12  C   UNL d   1      56.980   0.106  31.271  0.00  0.00     0.062 C 
BRANCH  12  13
ATOM     13  C   UNL d   1      56.810   0.112  32.076  0.00  0.00     0.130 C 
BRANCH  13  14
ATOM     14  O   UNL d   1      56.823  -0.597  32.498  0.00  0.00    -0.305 OA
BRANCH  14  15
ATOM     15  C   UNL d   1      56.278  -0.277  33.028  0.00  0.00     0.100 A 
ATOM     16  C   UNL d   1      55.507  -0.546  33.025  0.00  0.00     0.026 A 
ATOM     17  C   UNL d   1      54.958  -0.229  33.553  0.00  0.00     0.013 A 
ATOM     18  C   UNL d   1      55.190   0.362  34.085  0.00  0.00     0.058 A 
ATOM     19  C   UNL d   1      55.966   0.627  34.083  0.00  0.00     0.013 A 
ATOM     20 CL   UNL d   1      54.644   0.681  34.615  0.00  0.00    -0.082 Cl
ATOM     21  C   UNL d   1      56.509   0.305  33.552  0.00  0.00     0.026 A 
ENDBRANCH  14  15
ENDBRANCH  13  14
ENDBRANCH  12  13
ENDBRANCH   1  12
TORSDOF 6
ENDMDL
MODEL 4
REMARK VINA RESULT:      -3.5      2.378      5.405
REMARK  6 active torsions:
REMARK  status: ('A' for Active; 'I' for Inactive)
REMARK    1  A    between atoms: C_8  and  C_3 
REMARK    2  A    between atoms: C_7  and  O_15 
REMARK    3  A    between atoms: S_9  and  C_8 
REMARK    4  A    between atoms: C_18  and  S_9 
REMARK    5  A    between atoms: O_15  and  C_19 
REMARK    6  A    between atoms: C_19  and  C_18 
ROOT
ATOM      1  S   UNL d   1      58.138  -0.321  30.512  0.00  0.00    -0.081 SA
ENDROOT
BRANCH   1   2
ATOM      2  C   UNL d   1      58.219  -0.521  29.719  0.00  0.00     0.074 C 
BRANCH   2   3
ATOM      3  C   UNL d   1      58.859  -0.976  29.474  0.00  0.00     0.169 A 
ATOM      4  N   UNL d   1      59.667  -1.134  29.325  0.00  0.00    -0.225 NA
ATOM      5  C   UNL d   1      59.727  -1.912  29.019  0.00  0.00     0.101 A 
ATOM      6  C   UNL d   1      58.955  -2.224  28.982  0.00  0.00     0.101 A 
ATOM      7  C   UNL d   1      60.365  -2.380  28.768  0.00  0.00     0.021 A 
ATOM      8  N   UNL d   1      58.414  -1.653  29.261  0.00  0.00    -0.225 NA
ATOM      9  C   UNL d   1      58.837  -2.998  28.697  0.00  0.00     0.021 A 
ATOM     10  C   UNL d   1      59.475  -3.446  28.455  0.00  0.00     0.002 A 
ATOM     11  C   UNL d   1      60.239  -3.137  28.491  0.00  0.00     0.002 A 
ENDBRANCH   2   3
ENDBRANCH   1   2
BRANCH   1  12
ATOM     12  C   UNL d   1      57.556   0.214  30.744  0.00  0.00     0.062 C 
BRANCH  12  13
ATOM     13  C   UNL d   1      57.128   0.082  31.435  0.00  0.00     0.130 C 
BRANCH  13  14
ATOM     14  O   UNL d   1      57.528   0.031  32.155  0.00  0.00    -0.305 OA
BRANCH  14  15
ATOM     15  C   UNL d   1      56.800  -0.004  32.542  0.00  0.00     0.100 A 
ATOM     16  C   UNL d   1      56.374   0.682  32.662  0.00  0.00     0.026 A 
ATOM     17  C   UNL d   1      55.645   0.652  33.049  0.00  0.00     0.013 A 
ATOM     18  C   UNL d   1      55.348  -0.074  33.314  0.00  0.00     0.058 A 
ATOM     19  C   UNL d   1      55.781  -0.760  33.190  0.00  0.00     0.013 A 
ATOM     20 CL   UNL d   1      54.620  -0.108  33.700  0.00  0.00    -0.082 Cl
ATOM     21  C   UNL d   1      56.509  -0.721  32.802  0.00  0.00     0.026 A 
ENDBRANCH  14  15
ENDBRANCH  13  14
ENDBRANCH  12  13
ENDBRANCH   1  12
TORSDOF 6
ENDMDL
