MODEL 1
REMARK VINA RESULT:      -3.0      0.000      0.000
REMARK  2 active torsions:
REMARK  status: ('A' for Active; 'I' for Inactive)
REMARK    1  A    between atoms: S_2  and  N_1 
REMARK    2  A    between atoms: C_8  and  S_2 
ROOT
ATOM      1  S   UNL d   1      32.768  21.362 -21.219  0.00  0.00     0.273 S 
ATOM      2  O   UNL d   1      33.238  21.774 -21.751  0.00  0.00    -0.200 OA
ATOM      3  O   UNL d   1      32.294  20.955 -20.680  0.00  0.00    -0.200 OA
ENDROOT
BRANCH   1   4
ATOM      4  N   UNL d   1      32.656  22.065 -20.802  0.00  0.00    -0.207 N 
ATOM      5  C   UNL d   1      32.004  22.514 -21.051  0.00  0.00     0.148 A 
ATOM      6  N   UNL d   1      31.740  23.242 -20.750  0.00  0.00    -0.198 NA
ATOM      7  C   UNL d   1      32.048  23.688 -20.148  0.00  0.00     0.066 A 
ATOM      8  C   UNL d   1      32.517  22.703 -20.456  0.00  0.00     0.169 A 
ATOM      9  C   UNL d   1      32.703  23.535 -19.679  0.00  0.00     0.066 A 
ATOM     10  N   UNL d   1      33.214  22.885 -19.703  0.00  0.00    -0.198 NA
ATOM     11  C   UNL d   1      33.190  22.234 -20.202  0.00  0.00     0.148 A 
ENDBRANCH   1   4
BRANCH   1  12
ATOM     12  C   UNL d   1      32.885  20.664 -21.643  0.00  0.00     0.104 A 
ATOM     13  C   UNL d   1      33.123  19.978 -21.249  0.00  0.00     0.013 A 
ATOM     14  C   UNL d   1      33.240  19.280 -21.673  0.00  0.00     0.001 A 
ATOM     15  C   UNL d   1      33.119  19.267 -22.489  0.00  0.00     0.000 A 
ATOM     16  C   UNL d   1      32.881  19.953 -22.882  0.00  0.00     0.001 A 
ATOM     17  C   UNL d   1      33.238  18.564 -22.905  0.00  0.00     0.000 C 
ATOM     18  C   UNL d   1      32.764  20.651 -22.459  0.00  0.00     0.013 A 
ENDBRANCH   1  12
TORSDOF 2
ENDMDL
MODEL 2
REMARK VINA RESULT:      -2.8      5.302      6.579
REMARK  2 active torsions:
REMARK  status: ('A' for Active; 'I' for Inactive)
REMARK    1  A    between atoms: S_2  and  N_1 
REMARK    2  A    between atoms: C_8  and  S_2 
ROOT
ATOM      1  S   UNL d   1      30.459  17.118 -24.374  0.00  0.00     0.273 S 
ATOM      2  O   UNL d   1      30.823  16.563 -23.890  0.00  0.00    -0.200 OA
ATOM      3  O   UNL d   1      30.085  17.670 -24.859  0.00  0.00    -0.200 OA
ENDROOT
BRANCH   1   4
ATOM      4  N   UNL d   1      29.768  16.668 -24.339  0.00  0.00    -0.207 N 
ATOM      5  C   UNL d   1      29.200  16.950 -23.803  0.00  0.00     0.148 A 
ATOM      6  N   UNL d   1      28.451  16.629 -23.636  0.00  0.00    -0.198 NA
ATOM      7  C   UNL d   1      28.095  15.973 -23.949  0.00  0.00     0.066 A 
ATOM      8  C   UNL d   1      29.132  16.297 -24.273  0.00  0.00     0.169 A 
ATOM      9  C   UNL d   1      28.383  15.453 -24.514  0.00  0.00     0.066 A 
ATOM     10  N   UNL d   1      29.111  15.469 -24.906  0.00  0.00    -0.198 NA
ATOM     11  C   UNL d   1      29.723  16.010 -24.826  0.00  0.00     0.148 A 
ENDBRANCH   1   4
BRANCH   1  12
ATOM     12  C   UNL d   1      31.154  17.561 -24.403  0.00  0.00     0.104 A 
ATOM     13  C   UNL d   1      31.320  18.022 -25.067  0.00  0.00     0.013 A 
ATOM     14  C   UNL d   1      32.015  18.465 -25.097  0.00  0.00     0.001 A 
ATOM     15  C   UNL d   1      32.544  18.448 -24.463  0.00  0.00     0.000 A 
ATOM     16  C   UNL d   1      32.376  17.986 -23.799  0.00  0.00     0.001 A 
ATOM     17  C   UNL d   1      33.237  18.894 -24.501  0.00  0.00     0.000 C 
ATOM     18  C   UNL d   1      31.681  17.543 -23.769  0.00  0.00     0.013 A 
ENDBRANCH   1  12
TORSDOF 2
ENDMDL
MODEL 3
REMARK VINA RESULT:      -2.4      1.889      3.884
REMARK  2 active torsions:
REMARK  status: ('A' for Active; 'I' for Inactive)
REMARK    1  A    between atoms: S_2  and  N_1 
REMARK    2  A    between atoms: C_8  and  S_2 
ROOT
ATOM      1  S   UNL d   1      32.656  23.033 -20.157  0.00  0.00     0.273 S 
ATOM      2  O   UNL d   1      33.205  23.635 -20.250  0.00  0.00    -0.200 OA
ATOM      3  O   UNL d   1      32.104  22.425 -20.071  0.00  0.00    -0.200 OA
ENDROOT
BRANCH   1   4
ATOM      4  N   UNL d   1      32.703  22.888 -20.968  0.00  0.00    -0.207 N 
ATOM      5  C   UNL d   1      33.059  22.167 -21.169  0.00  0.00     0.148 A 
ATOM      6  N   UNL d   1      33.191  21.856 -21.929  0.00  0.00    -0.198 NA
ATOM      7  C   UNL d   1      33.008  22.176 -22.650  0.00  0.00     0.066 A 
ATOM      8  C   UNL d   1      32.767  22.716 -21.684  0.00  0.00     0.169 A 
ATOM      9  C   UNL d   1      32.643  22.891 -22.817  0.00  0.00     0.066 A 
ATOM     10  N   UNL d   1      32.370  23.466 -22.289  0.00  0.00    -0.198 NA
ATOM     11  C   UNL d   1      32.398  23.462 -21.469  0.00  0.00     0.148 A 
ENDBRANCH   1   4
BRANCH   1  12
ATOM     12  C   UNL d   1      32.615  23.184 -19.347  0.00  0.00     0.104 A 
ATOM     13  C   UNL d   1      31.948  23.552 -19.029  0.00  0.00     0.013 A 
ATOM     14  C   UNL d   1      31.907  23.702 -18.219  0.00  0.00     0.001 A 
ATOM     15  C   UNL d   1      32.533  23.485 -17.726  0.00  0.00     0.000 A 
ATOM     16  C   UNL d   1      33.200  23.117 -18.045  0.00  0.00     0.001 A 
ATOM     17  C   UNL d   1      32.484  23.640 -16.917  0.00  0.00     0.000 C 
ATOM     18  C   UNL d   1      33.241  22.966 -18.855  0.00  0.00     0.013 A 
ENDBRANCH   1  12
TORSDOF 2
ENDMDL
MODEL 4
REMARK VINA RESULT:      -2.3      1.165      1.720
REMARK  2 active torsions:
REMARK  status: ('A' for Active; 'I' for Inactive)
REMARK    1  A    between atoms: S_2  and  N_1 
REMARK    2  A    between atoms: C_8  and  S_2 
ROOT
ATOM      1  S   UNL d   1      32.893  20.313 -22.132  0.00  0.00     0.273 S 
ATOM      2  O   UNL d   1      33.241  19.993 -21.460  0.00  0.00    -0.200 OA
ATOM      3  O   UNL d   1      32.544  20.641 -22.803  0.00  0.00    -0.200 OA
ENDROOT
BRANCH   1   4
ATOM      4  N   UNL d   1      32.810  21.027 -21.727  0.00  0.00    -0.207 N 
ATOM      5  C   UNL d   1      32.320  20.989 -21.058  0.00  0.00     0.148 A 
ATOM      6  N   UNL d   1      32.122  21.603 -20.534  0.00  0.00    -0.198 NA
ATOM      7  C   UNL d   1      32.354  22.379 -20.545  0.00  0.00     0.066 A 
ATOM      8  C   UNL d   1      32.706  21.643 -21.333  0.00  0.00     0.169 A 
ATOM      9  C   UNL d   1      32.847  22.760 -21.079  0.00  0.00     0.066 A 
ATOM     10  N   UNL d   1      33.230  22.446 -21.741  0.00  0.00    -0.198 NA
ATOM     11  C   UNL d   1      33.212  21.676 -22.026  0.00  0.00     0.148 A 
ENDBRANCH   1   4
BRANCH   1  12
ATOM     12  C   UNL d   1      32.981  19.595 -22.529  0.00  0.00     0.104 A 
ATOM     13  C   UNL d   1      32.909  19.567 -23.351  0.00  0.00     0.013 A 
ATOM     14  C   UNL d   1      32.997  18.850 -23.748  0.00  0.00     0.001 A 
ATOM     15  C   UNL d   1      33.155  18.159 -23.324  0.00  0.00     0.000 A 
ATOM     16  C   UNL d   1      33.226  18.188 -22.502  0.00  0.00     0.001 A 
ATOM     17  C   UNL d   1      33.241  17.446 -23.729  0.00  0.00     0.000 C 
ATOM     18  C   UNL d   1      33.139  18.905 -22.104  0.00  0.00     0.013 A 
ENDBRANCH   1  12
TORSDOF 2
ENDMDL
MODEL 5
REMARK VINA RESULT:      -2.3      3.427      5.412
REMARK  2 active torsions:
REMARK  status: ('A' for Active; 'I' for Inactive)
REMARK    1  A    between atoms: S_2  and  N_1 
REMARK    2  A    between atoms: C_8  and  S_2 
ROOT
ATOM      1  S   UNL d   1      32.740  17.995 -23.239  0.00  0.00     0.273 S 
ATOM      2  O   UNL d   1      33.177  17.655 -22.633  0.00  0.00    -0.200 OA
ATOM      3  O   UNL d   1      32.299  18.328 -23.852  0.00  0.00    -0.200 OA
ENDROOT
BRANCH   1   4
ATOM      4  N   UNL d   1      32.620  17.240 -23.551  0.00  0.00    -0.207 N 
ATOM      5  C   UNL d   1      31.940  16.856 -23.269  0.00  0.00     0.148 A 
ATOM      6  N   UNL d   1      31.662  16.098 -23.470  0.00  0.00    -0.198 NA
ATOM      7  C   UNL d   1      31.979  15.556 -23.981  0.00  0.00     0.066 A 
ATOM      8  C   UNL d   1      32.471  16.562 -23.802  0.00  0.00     0.169 A 
ATOM      9  C   UNL d   1      32.660  15.615 -24.435  0.00  0.00     0.066 A 
ATOM     10  N   UNL d   1      33.194  16.245 -24.484  0.00  0.00    -0.198 NA
ATOM     11  C   UNL d   1      33.173  16.965 -24.090  0.00  0.00     0.148 A 
ENDBRANCH   1   4
BRANCH   1  12
ATOM     12  C   UNL d   1      32.865  18.746 -22.921  0.00  0.00     0.104 A 
ATOM     13  C   UNL d   1      32.816  19.412 -23.405  0.00  0.00     0.013 A 
ATOM     14  C   UNL d   1      32.941  20.163 -23.087  0.00  0.00     0.001 A 
ATOM     15  C   UNL d   1      33.115  20.247 -22.284  0.00  0.00     0.000 A 
ATOM     16  C   UNL d   1      33.164  19.580 -21.800  0.00  0.00     0.001 A 
ATOM     17  C   UNL d   1      33.239  21.002 -21.974  0.00  0.00     0.000 C 
ATOM     18  C   UNL d   1      33.039  18.829 -22.118  0.00  0.00     0.013 A 
ENDBRANCH   1  12
TORSDOF 2
ENDMDL
