MODEL 1
REMARK VINA RESULT:      67.7      0.000      0.000
REMARK  6 active torsions:
REMARK  status: ('A' for Active; 'I' for Inactive)
REMARK    1  A    between atoms: N_3  and  C_1 
REMARK    2  A    between atoms: S_2  and  C_9 
REMARK    3  A    between atoms: N_10  and  S_2 
REMARK       I    between atoms: C_8  and  N_3 
REMARK    4  A    between atoms: C_20  and  N_4 
REMARK    5  A    between atoms: C_13  and  C_8 
REMARK    6  A    between atoms: O_22  and  C_14 
ROOT
ATOM      1  N   UNL d   1     -55.431-101.050 -42.363  0.00  0.00    -0.184 NA
ATOM      2  C   UNL d   1     -55.120-101.766 -42.075  0.00  0.00     0.281 C 
ATOM      3  O   UNL d   1     -54.715-102.271 -42.584  0.00  0.00    -0.265 OA
ENDROOT
BRANCH   1   4
ATOM      4  C   UNL d   1     -55.328-100.851 -43.166  0.00  0.00     0.182 A 
ATOM      5  N   UNL d   1     -55.558-100.148 -43.515  0.00  0.00    -0.283 N 
ATOM      6  C   UNL d   1     -55.358-100.171 -44.313  0.00  0.00     0.094 A 
ATOM      7  C   UNL d   1     -55.456 -99.618 -44.934  0.00  0.00     0.111 A 
ATOM      8  C   UNL d   1     -55.000-100.892 -44.465  0.00  0.00     0.050 A 
ATOM      9  C   UNL d   1     -55.192 -99.808 -45.686  0.00  0.00     0.026 A 
ATOM     10  C   UNL d   1     -54.833-100.529 -45.845  0.00  0.00     0.003 A 
ATOM     11  C   UNL d   1     -54.737-101.075 -45.230  0.00  0.00     0.008 A 
ATOM     12  S   UNL d   1     -54.978-101.320 -43.760  0.00  0.00    -0.048 SA
BRANCH   5  13
ATOM     13  C   UNL d   1     -55.929 -99.517 -43.137  0.00  0.00     0.082 C 
ATOM     14  C   UNL d   1     -55.376 -99.066 -42.729  0.00  0.00     0.021 C 
ENDBRANCH   5  13
BRANCH   7  15
ATOM     15  O   UNL d   1     -55.810 -98.902 -44.786  0.00  0.00    -0.327 OA
ATOM     16  C   UNL d   1     -56.577 -98.763 -45.030  0.00  0.00     0.181 C 
ENDBRANCH   7  15
ENDBRANCH   1   4
BRANCH   2  17
ATOM     17  C   UNL d   1     -55.220-101.968 -41.278  0.00  0.00     0.058 A 
ATOM     18  C   UNL d   1     -54.750-101.608 -40.708  0.00  0.00     0.005 A 
ATOM     19  C   UNL d   1     -54.844-101.806 -39.913  0.00  0.00     0.013 A 
ATOM     20  C   UNL d   1     -55.415-102.368 -39.692  0.00  0.00     0.104 A 
ATOM     21  C   UNL d   1     -55.885-102.727 -40.277  0.00  0.00     0.013 A 
ATOM     22  C   UNL d   1     -55.791-102.529 -41.073  0.00  0.00     0.005 A 
BRANCH  20  23
ATOM     23  S   UNL d   1     -55.512-102.568 -38.899  0.00  0.00     0.271 S 
ATOM     24  O   UNL d   1     -56.297-102.296 -38.966  0.00  0.00    -0.200 OA
ATOM     25  O   UNL d   1     -54.741-102.834 -38.836  0.00  0.00    -0.200 OA
BRANCH  23  26
ATOM     26  N   UNL d   1     -55.613-102.766 -38.107  0.00  0.00    -0.226 N 
ATOM     27  C   UNL d   1     -54.948-102.866 -37.618  0.00  0.00     0.111 C 
ATOM     28  C   UNL d   1     -56.357-102.868 -37.785  0.00  0.00     0.111 C 
ENDBRANCH  23  26
ENDBRANCH  20  23
ENDBRANCH   2  17
TORSDOF 6
ENDMDL
MODEL 2
REMARK VINA RESULT:      68.6      1.180      1.756
REMARK  6 active torsions:
REMARK  status: ('A' for Active; 'I' for Inactive)
REMARK    1  A    between atoms: N_3  and  C_1 
REMARK    2  A    between atoms: S_2  and  C_9 
REMARK    3  A    between atoms: N_10  and  S_2 
REMARK       I    between atoms: C_8  and  N_3 
REMARK    4  A    between atoms: C_20  and  N_4 
REMARK    5  A    between atoms: C_13  and  C_8 
REMARK    6  A    between atoms: O_22  and  C_14 
ROOT
ATOM      1  N   UNL d   1     -54.789-101.288 -41.763  0.00  0.00    -0.184 NA
ATOM      2  C   UNL d   1     -55.434-101.701 -41.441  0.00  0.00     0.281 C 
ATOM      3  O   UNL d   1     -56.067-101.914 -41.924  0.00  0.00    -0.265 OA
ENDROOT
BRANCH   1   4
ATOM      4  C   UNL d   1     -54.789-101.091 -42.574  0.00  0.00     0.182 A 
ATOM      5  N   UNL d   1     -54.854-101.623 -43.192  0.00  0.00    -0.283 N 
ATOM      6  C   UNL d   1     -54.831-101.206 -43.902  0.00  0.00     0.094 A 
ATOM      7  C   UNL d   1     -54.873-101.453 -44.700  0.00  0.00     0.111 A 
ATOM      8  C   UNL d   1     -54.751-100.410 -43.727  0.00  0.00     0.050 A 
ATOM      9  C   UNL d   1     -54.833-100.892 -45.296  0.00  0.00     0.026 A 
ATOM     10  C   UNL d   1     -54.754-100.092 -45.129  0.00  0.00     0.003 A 
ATOM     11  C   UNL d   1     -54.712 -99.850 -44.338  0.00  0.00     0.008 A 
ATOM     12  S   UNL d   1     -54.725-100.329 -42.906  0.00  0.00    -0.048 SA
BRANCH   5  13
ATOM     13  C   UNL d   1     -54.930-102.440 -43.124  0.00  0.00     0.082 C 
ATOM     14  C   UNL d   1     -55.656-102.682 -43.424  0.00  0.00     0.021 C 
ENDBRANCH   5  13
BRANCH   7  15
ATOM     15  O   UNL d   1     -54.952-102.242 -44.876  0.00  0.00    -0.327 OA
ATOM     16  C   UNL d   1     -54.713-102.528 -45.603  0.00  0.00     0.181 C 
ENDBRANCH   7  15
ENDBRANCH   1   4
BRANCH   2  17
ATOM     17  C   UNL d   1     -55.439-101.898 -40.637  0.00  0.00     0.058 A 
ATOM     18  C   UNL d   1     -55.872-102.548 -40.382  0.00  0.00     0.005 A 
ATOM     19  C   UNL d   1     -55.880-102.749 -39.582  0.00  0.00     0.013 A 
ATOM     20  C   UNL d   1     -55.449-102.293 -39.037  0.00  0.00     0.104 A 
ATOM     21  C   UNL d   1     -55.013-101.637 -39.306  0.00  0.00     0.013 A 
ATOM     22  C   UNL d   1     -55.005-101.436 -40.106  0.00  0.00     0.005 A 
BRANCH  20  23
ATOM     23  S   UNL d   1     -55.455-102.491 -38.238  0.00  0.00     0.271 S 
ATOM     24  O   UNL d   1     -56.208-102.135 -38.195  0.00  0.00    -0.200 OA
ATOM     25  O   UNL d   1     -54.716-102.839 -38.284  0.00  0.00    -0.200 OA
BRANCH  23  26
ATOM     26  N   UNL d   1     -55.465-102.687 -37.439  0.00  0.00    -0.226 N 
ATOM     27  C   UNL d   1     -54.754-102.699 -37.008  0.00  0.00     0.111 C 
ATOM     28  C   UNL d   1     -56.161-102.871 -37.054  0.00  0.00     0.111 C 
ENDBRANCH  23  26
ENDBRANCH  20  23
ENDBRANCH   2  17
TORSDOF 6
ENDMDL
