MODEL 1
REMARK VINA RESULT:      -6.9      0.000      0.000
REMARK  9 active torsions:
REMARK  status: ('A' for Active; 'I' for Inactive)
REMARK    1  A    between atoms: P_4  and  C_1 
REMARK    2  A    between atoms: N_7  and  C_3 
REMARK    3  A    between atoms: O_10  and  P_4 
REMARK    4  A    between atoms: O_11  and  P_4 
REMARK    5  A    between atoms: C_8  and  C_5 
REMARK    6  A    between atoms: C_14  and  N_7 
REMARK    7  A    between atoms: C_21  and  O_10 
REMARK    8  A    between atoms: C_20  and  O_11 
REMARK    9  A    between atoms: C_19  and  C_14 
ROOT
ATOM      1  C   UNL d   1      53.157  32.900  53.768  0.00  0.00     0.205 A 
ATOM      2  N   UNL d   1      52.673  33.501  53.496  0.00  0.00    -0.211 NA
ATOM      3  C   UNL d   1      52.842  32.175  53.541  0.00  0.00     0.209 A 
ATOM      4  C   UNL d   1      52.066  33.161  53.107  0.00  0.00     0.184 A 
ATOM      5  O   UNL d   1      52.147  32.348  53.120  0.00  0.00    -0.270 OA
ENDROOT
BRANCH   1   6
ATOM      6  P   UNL d   1      53.871  32.995  54.213  0.00  0.00     0.395 P 
ATOM      7  O   UNL d   1      53.452  32.946  54.921  0.00  0.00    -0.251 OA
BRANCH   6   8
ATOM      8  O   UNL d   1      54.573  33.088  54.635  0.00  0.00    -0.263 OA
BRANCH   8   9
ATOM      9  C   UNL d   1      54.572  33.285  55.417  0.00  0.00     0.126 C 
ATOM     10  C   UNL d   1      55.207  33.658  55.737  0.00  0.00     0.029 C 
ENDBRANCH   8   9
ENDBRANCH   6   8
BRANCH   6  11
ATOM     11  O   UNL d   1      54.283  33.042  53.479  0.00  0.00    -0.263 OA
BRANCH  11  12
ATOM     12  C   UNL d   1      55.075  33.233  53.491  0.00  0.00     0.126 C 
ATOM     13  C   UNL d   1      55.473  33.210  52.773  0.00  0.00     0.029 C 
ENDBRANCH  11  12
ENDBRANCH   6  11
ENDBRANCH   1   6
BRANCH   3  14
ATOM     14  N   UNL d   1      53.237  31.462  53.752  0.00  0.00    -0.219 NA
BRANCH  14  15
ATOM     15  C   UNL d   1      52.933  30.735  53.499  0.00  0.00     0.101 C 
BRANCH  15  16
ATOM     16  C   UNL d   1      53.183  30.037  53.866  0.00  0.00     0.019 A 
ATOM     17  C   UNL d   1      53.845  29.611  53.567  0.00  0.00     0.002 A 
ATOM     18  C   UNL d   1      54.084  28.923  53.938  0.00  0.00     0.000 A 
ATOM     19  C   UNL d   1      53.684  28.630  54.613  0.00  0.00     0.000 A 
ATOM     20  C   UNL d   1      53.015  29.062  54.914  0.00  0.00     0.000 A 
ATOM     21  C   UNL d   1      52.785  29.759  54.525  0.00  0.00     0.002 A 
ENDBRANCH  15  16
ENDBRANCH  14  15
ENDBRANCH   3  14
BRANCH   4  22
ATOM     22  C   UNL d   1      51.463  33.600  52.754  0.00  0.00     0.042 A 
ATOM     23  C   UNL d   1      51.556  33.934  52.012  0.00  0.00     0.006 A 
ATOM     24  C   UNL d   1      50.948  34.367  51.675  0.00  0.00     0.030 A 
ATOM     25  C   UNL d   1      50.228  34.478  52.070  0.00  0.00     0.140 A 
ATOM     26  C   UNL d   1      50.125  34.134  52.840  0.00  0.00     0.030 A 
ATOM     27  F   UNL d   1      49.602  34.906  51.758  0.00  0.00    -0.204 F 
ATOM     28  C   UNL d   1      50.741  33.701  53.170  0.00  0.00     0.006 A 
ENDBRANCH   4  22
TORSDOF 9
ENDMDL
MODEL 2
REMARK VINA RESULT:      -6.4      1.756      4.284
REMARK  9 active torsions:
REMARK  status: ('A' for Active; 'I' for Inactive)
REMARK    1  A    between atoms: P_4  and  C_1 
REMARK    2  A    between atoms: N_7  and  C_3 
REMARK    3  A    between atoms: O_10  and  P_4 
REMARK    4  A    between atoms: O_11  and  P_4 
REMARK    5  A    between atoms: C_8  and  C_5 
REMARK    6  A    between atoms: C_14  and  N_7 
REMARK    7  A    between atoms: C_21  and  O_10 
REMARK    8  A    between atoms: C_20  and  O_11 
REMARK    9  A    between atoms: C_19  and  C_14 
ROOT
ATOM      1  C   UNL d   1      53.466  32.283  54.091  0.00  0.00     0.205 A 
ATOM      2  N   UNL d   1      53.729  31.552  54.350  0.00  0.00    -0.211 NA
ATOM      3  C   UNL d   1      52.802  32.181  53.617  0.00  0.00     0.209 A 
ATOM      4  C   UNL d   1      53.239  31.002  54.044  0.00  0.00     0.184 A 
ATOM      5  O   UNL d   1      52.662  31.362  53.592  0.00  0.00    -0.270 OA
ENDROOT
BRANCH   1   6
ATOM      6  P   UNL d   1      53.814  33.033  54.275  0.00  0.00     0.395 P 
ATOM      7  O   UNL d   1      53.271  33.151  54.884  0.00  0.00    -0.251 OA
BRANCH   6   8
ATOM      8  O   UNL d   1      54.161  33.761  54.444  0.00  0.00    -0.263 OA
BRANCH   8   9
ATOM      9  C   UNL d   1      53.934  34.198  55.083  0.00  0.00     0.126 C 
ATOM     10  C   UNL d   1      54.033  34.995  55.079  0.00  0.00     0.029 C 
ENDBRANCH   8   9
ENDBRANCH   6   8
BRANCH   6  11
ATOM     11  O   UNL d   1      54.361  32.896  53.648  0.00  0.00    -0.263 OA
BRANCH  11  12
ATOM     12  C   UNL d   1      55.099  33.236  53.697  0.00  0.00     0.126 C 
ATOM     13  C   UNL d   1      55.610  33.105  53.067  0.00  0.00     0.029 C 
ENDBRANCH  11  12
ENDBRANCH   6  11
ENDBRANCH   1   6
BRANCH   3  14
ATOM     14  N   UNL d   1      52.422  32.851  53.279  0.00  0.00    -0.219 NA
BRANCH  14  15
ATOM     15  C   UNL d   1      51.749  32.746  52.807  0.00  0.00     0.101 C 
BRANCH  15  16
ATOM     16  C   UNL d   1      51.263  33.393  52.639  0.00  0.00     0.019 A 
ATOM     17  C   UNL d   1      50.591  33.557  53.119  0.00  0.00     0.002 A 
ATOM     18  C   UNL d   1      50.117  34.200  52.944  0.00  0.00     0.000 A 
ATOM     19  C   UNL d   1      50.285  34.702  52.296  0.00  0.00     0.000 A 
ATOM     20  C   UNL d   1      50.965  34.534  51.811  0.00  0.00     0.000 A 
ATOM     21  C   UNL d   1      51.435  33.878  52.002  0.00  0.00     0.002 A 
ENDBRANCH  15  16
ENDBRANCH  14  15
ENDBRANCH   3  14
BRANCH   4  22
ATOM     22  C   UNL d   1      53.333  30.195  54.188  0.00  0.00     0.042 A 
ATOM     23  C   UNL d   1      53.574  29.682  53.596  0.00  0.00     0.006 A 
ATOM     24  C   UNL d   1      53.664  28.883  53.753  0.00  0.00     0.030 A 
ATOM     25  C   UNL d   1      53.514  28.573  54.507  0.00  0.00     0.140 A 
ATOM     26  C   UNL d   1      53.264  29.099  55.125  0.00  0.00     0.030 A 
ATOM     27  F   UNL d   1      53.595  27.779  54.694  0.00  0.00    -0.204 F 
ATOM     28  C   UNL d   1      53.177  29.900  54.957  0.00  0.00     0.006 A 
ENDBRANCH   4  22
TORSDOF 9
ENDMDL
MODEL 3
REMARK VINA RESULT:      -4.9      1.497      3.190
REMARK  9 active torsions:
REMARK  status: ('A' for Active; 'I' for Inactive)
REMARK    1  A    between atoms: P_4  and  C_1 
REMARK    2  A    between atoms: N_7  and  C_3 
REMARK    3  A    between atoms: O_10  and  P_4 
REMARK    4  A    between atoms: O_11  and  P_4 
REMARK    5  A    between atoms: C_8  and  C_5 
REMARK    6  A    between atoms: C_14  and  N_7 
REMARK    7  A    between atoms: C_21  and  O_10 
REMARK    8  A    between atoms: C_20  and  O_11 
REMARK    9  A    between atoms: C_19  and  C_14 
ROOT
ATOM      1  C   UNL d   1      52.022  32.610  52.978  0.00  0.00     0.205 A 
ATOM      2  N   UNL d   1      51.340  32.824  52.579  0.00  0.00    -0.211 NA
ATOM      3  C   UNL d   1      52.296  33.254  53.410  0.00  0.00     0.209 A 
ATOM      4  C   UNL d   1      51.189  33.586  52.757  0.00  0.00     0.184 A 
ATOM      5  O   UNL d   1      51.761  33.872  53.266  0.00  0.00    -0.270 OA
ENDROOT
BRANCH   1   6
ATOM      6  P   UNL d   1      52.397  31.851  52.957  0.00  0.00     0.395 P 
ATOM      7  O   UNL d   1      53.014  32.153  52.500  0.00  0.00    -0.251 OA
BRANCH   6   8
ATOM      8  O   UNL d   1      52.753  31.108  52.944  0.00  0.00    -0.263 OA
BRANCH   8   9
ATOM      9  C   UNL d   1      53.487  30.997  52.630  0.00  0.00     0.126 C 
ATOM     10  C   UNL d   1      53.910  30.341  52.821  0.00  0.00     0.029 C 
ENDBRANCH   8   9
ENDBRANCH   6   8
BRANCH   6  11
ATOM     11  O   UNL d   1      51.759  31.560  53.424  0.00  0.00    -0.263 OA
BRANCH  11  12
ATOM     12  C   UNL d   1      51.612  30.759  53.422  0.00  0.00     0.126 C 
ATOM     13  C   UNL d   1      50.948  30.503  53.834  0.00  0.00     0.029 C 
ENDBRANCH  11  12
ENDBRANCH   6  11
ENDBRANCH   1   6
BRANCH   3  14
ATOM     14  N   UNL d   1      52.995  33.180  53.873  0.00  0.00    -0.219 NA
BRANCH  14  15
ATOM     15  C   UNL d   1      53.242  33.814  54.346  0.00  0.00     0.101 C 
BRANCH  15  16
ATOM     16  C   UNL d   1      53.972  33.775  54.732  0.00  0.00     0.019 A 
ATOM     17  C   UNL d   1      54.038  33.402  55.483  0.00  0.00     0.002 A 
ATOM     18  C   UNL d   1      54.765  33.369  55.856  0.00  0.00     0.000 A 
ATOM     19  C   UNL d   1      55.450  33.699  55.506  0.00  0.00     0.000 A 
ATOM     20  C   UNL d   1      55.382  34.076  54.746  0.00  0.00     0.000 A 
ATOM     21  C   UNL d   1      54.636  34.101  54.381  0.00  0.00     0.002 A 
ENDBRANCH  15  16
ENDBRANCH  14  15
ENDBRANCH   3  14
BRANCH   4  22
ATOM     22  C   UNL d   1      50.538  33.993  52.453  0.00  0.00     0.042 A 
ATOM     23  C   UNL d   1      50.384  34.010  51.649  0.00  0.00     0.006 A 
ATOM     24  C   UNL d   1      49.735  34.417  51.361  0.00  0.00     0.030 A 
ATOM     25  C   UNL d   1      49.220  34.821  51.870  0.00  0.00     0.140 A 
ATOM     26  C   UNL d   1      49.374  34.807  52.705  0.00  0.00     0.030 A 
ATOM     27  F   UNL d   1      48.563  35.237  51.611  0.00  0.00    -0.204 F 
ATOM     28  C   UNL d   1      50.029  34.395  52.984  0.00  0.00     0.006 A 
ENDBRANCH   4  22
TORSDOF 9
ENDMDL
