MODEL 1
REMARK VINA RESULT:       0.0      0.000      0.000
REMARK  7 active torsions:
REMARK  status: ('A' for Active; 'I' for Inactive)
REMARK    1  A    between atoms: S_2  and  C_1 
REMARK    2  A    between atoms: C_7  and  S_2 
REMARK    3  A    between atoms: C_9  and  N_3 
REMARK    4  A    between atoms: C_11  and  C_7 
REMARK    5  A    between atoms: C_8  and  C_9 
REMARK       I    between atoms: N_10  and  C_8 
REMARK       I    between atoms: N_15  and  C_11 
REMARK    6  A    between atoms: C_12  and  C_16 
REMARK    7  A    between atoms: C_23  and  N_15 
ROOT
ATOM      1  C   UNL d   1      33.238  20.471 -23.270  0.00  0.00     0.107 A 
ATOM      2  N   UNL d   1      33.237  21.578 -22.532  0.00  0.00    -0.299 N 
ATOM      3  C   UNL d   1      33.239  20.756 -22.492  0.00  0.00     0.092 A 
ATOM      4  C   UNL d   1      33.236  21.118 -23.780  0.00  0.00     0.028 A 
ATOM      5  C   UNL d   1      33.235  21.804 -23.319  0.00  0.00     0.065 A 
ATOM      6  C   UNL d   1      33.235  21.171 -24.600  0.00  0.00     0.002 A 
ATOM      7  C   UNL d   1      33.233  22.541 -23.688  0.00  0.00     0.018 A 
ATOM      8  C   UNL d   1      33.233  21.910 -24.972  0.00  0.00     0.000 A 
ATOM      9  C   UNL d   1      33.232  22.594 -24.508  0.00  0.00     0.002 A 
ENDROOT
BRANCH   1  10
ATOM     10  S   UNL d   1      33.240  19.675 -23.493  0.00  0.00     0.217 S 
ATOM     11  O   UNL d   1      33.241  19.853 -24.291  0.00  0.00    -0.217 OA
ATOM     12  O   UNL d   1      33.239  19.496 -22.681  0.00  0.00    -0.217 OA
BRANCH  10  13
ATOM     13  C   UNL d   1      33.241  18.875 -23.711  0.00  0.00     0.161 C 
BRANCH  13  14
ATOM     14  C   UNL d   1      32.552  18.443 -23.677  0.00  0.00     0.291 C 
ATOM     15  N   UNL d   1      32.145  18.249 -24.367  0.00  0.00    -0.207 NA
ATOM     16  O   UNL d   1      32.255  18.196 -22.944  0.00  0.00    -0.264 OA
BRANCH  15  17
ATOM     17  C   UNL d   1      31.447  17.812 -24.328  0.00  0.00     0.085 A 
ATOM     18  C   UNL d   1      30.715  18.185 -24.423  0.00  0.00     0.019 A 
ATOM     19  C   UNL d   1      30.016  17.755 -24.385  0.00  0.00     0.006 A 
ATOM     20  C   UNL d   1      30.039  16.935 -24.249  0.00  0.00     0.059 A 
ATOM     21  C   UNL d   1      30.765  16.552 -24.152  0.00  0.00     0.006 A 
ATOM     22  C   UNL d   1      31.475  16.992 -24.191  0.00  0.00     0.019 A 
BRANCH  20  23
ATOM     23  C   UNL d   1      29.349  16.499 -24.210  0.00  0.00     0.297 C 
ATOM     24  O   UNL d   1      28.610  16.859 -24.313  0.00  0.00    -0.264 OA
ATOM     25  N   UNL d   1      29.389  15.675 -24.063  0.00  0.00    -0.102 N 
ENDBRANCH  20  23
ENDBRANCH  15  17
ENDBRANCH  13  14
ENDBRANCH  10  13
ENDBRANCH   1  10
BRANCH   2  26
ATOM     26  C   UNL d   1      33.237  22.088 -21.885  0.00  0.00     0.142 C 
BRANCH  26  27
ATOM     27  C   UNL d   1      32.947  21.833 -21.158  0.00  0.00     0.282 C 
ATOM     28  N   UNL d   1      32.857  22.368 -20.538  0.00  0.00    -0.271 N 
ATOM     29  C   UNL d   1      33.055  23.164 -20.639  0.00  0.00     0.083 A 
ATOM     30  C   UNL d   1      32.568  22.113 -19.813  0.00  0.00     0.083 A 
ATOM     31  C   UNL d   1      32.964  23.702 -20.016  0.00  0.00     0.019 A 
ATOM     32  C   UNL d   1      32.675  23.443 -19.293  0.00  0.00     0.003 A 
ATOM     33  C   UNL d   1      32.476  22.654 -19.187  0.00  0.00     0.019 A 
ATOM     34  O   UNL d   1      32.748  21.042 -21.052  0.00  0.00    -0.265 OA
ENDBRANCH  26  27
ENDBRANCH   2  26
TORSDOF 7
ENDMDL
MODEL 2
REMARK VINA RESULT:       1.9      1.439      2.026
REMARK  7 active torsions:
REMARK  status: ('A' for Active; 'I' for Inactive)
REMARK    1  A    between atoms: S_2  and  C_1 
REMARK    2  A    between atoms: C_7  and  S_2 
REMARK    3  A    between atoms: C_9  and  N_3 
REMARK    4  A    between atoms: C_11  and  C_7 
REMARK    5  A    between atoms: C_8  and  C_9 
REMARK       I    between atoms: N_10  and  C_8 
REMARK       I    between atoms: N_15  and  C_11 
REMARK    6  A    between atoms: C_12  and  C_16 
REMARK    7  A    between atoms: C_23  and  N_15 
ROOT
ATOM      1  C   UNL d   1      32.702  18.339 -23.122  0.00  0.00     0.107 A 
ATOM      2  N   UNL d   1      33.054  19.529 -22.643  0.00  0.00    -0.299 N 
ATOM      3  C   UNL d   1      32.839  18.765 -22.425  0.00  0.00     0.092 A 
ATOM      4  C   UNL d   1      32.833  18.842 -23.761  0.00  0.00     0.028 A 
ATOM      5  C   UNL d   1      33.052  19.581 -23.461  0.00  0.00     0.065 A 
ATOM      6  C   UNL d   1      32.783  18.724 -24.572  0.00  0.00     0.002 A 
ATOM      7  C   UNL d   1      33.218  20.197 -23.982  0.00  0.00     0.018 A 
ATOM      8  C   UNL d   1      32.950  19.343 -25.096  0.00  0.00     0.000 A 
ATOM      9  C   UNL d   1      33.168  20.079 -24.794  0.00  0.00     0.002 A 
ENDROOT
BRANCH   1  10
ATOM     10  S   UNL d   1      32.473  17.545 -23.166  0.00  0.00     0.217 S 
ATOM     11  O   UNL d   1      33.241  17.274 -23.097  0.00  0.00    -0.217 OA
ATOM     12  O   UNL d   1      31.693  17.824 -23.237  0.00  0.00    -0.217 OA
BRANCH  10  13
ATOM     13  C   UNL d   1      32.237  16.751 -23.211  0.00  0.00     0.161 C 
BRANCH  13  14
ATOM     14  C   UNL d   1      31.447  16.565 -23.269  0.00  0.00     0.291 C 
ATOM     15  N   UNL d   1      31.056  16.622 -23.992  0.00  0.00    -0.207 NA
ATOM     16  O   UNL d   1      31.031  16.316 -22.598  0.00  0.00    -0.264 OA
BRANCH  15  17
ATOM     17  C   UNL d   1      30.255  16.433 -24.046  0.00  0.00     0.085 A 
ATOM     18  C   UNL d   1      29.692  17.027 -24.164  0.00  0.00     0.019 A 
ATOM     19  C   UNL d   1      28.893  16.846 -24.219  0.00  0.00     0.006 A 
ATOM     20  C   UNL d   1      28.642  16.055 -24.156  0.00  0.00     0.059 A 
ATOM     21  C   UNL d   1      29.195  15.453 -24.039  0.00  0.00     0.006 A 
ATOM     22  C   UNL d   1      30.008  15.641 -23.983  0.00  0.00     0.019 A 
BRANCH  20  23
ATOM     23  C   UNL d   1      27.849  15.864 -24.209  0.00  0.00     0.297 C 
ATOM     24  O   UNL d   1      27.523  15.591 -24.921  0.00  0.00    -0.264 OA
ATOM     25  N   UNL d   1      27.359  15.944 -23.536  0.00  0.00    -0.102 N 
ENDBRANCH  20  23
ENDBRANCH  15  17
ENDBRANCH  13  14
ENDBRANCH  10  13
ENDBRANCH   1  10
BRANCH   2  26
ATOM     26  C   UNL d   1      33.240  20.141 -22.123  0.00  0.00     0.142 C 
BRANCH  26  27
ATOM     27  C   UNL d   1      32.695  20.380 -21.556  0.00  0.00     0.282 C 
ATOM     28  N   UNL d   1      32.642  21.175 -21.344  0.00  0.00    -0.271 N 
ATOM     29  C   UNL d   1      33.134  21.737 -21.697  0.00  0.00     0.083 A 
ATOM     30  C   UNL d   1      32.097  21.415 -20.778  0.00  0.00     0.083 A 
ATOM     31  C   UNL d   1      33.081  22.536 -21.484  0.00  0.00     0.019 A 
ATOM     32  C   UNL d   1      32.536  22.771 -20.918  0.00  0.00     0.003 A 
ATOM     33  C   UNL d   1      32.043  22.217 -20.564  0.00  0.00     0.019 A 
ATOM     34  O   UNL d   1      32.202  19.826 -21.202  0.00  0.00    -0.265 OA
ENDBRANCH  26  27
ENDBRANCH   2  26
TORSDOF 7
ENDMDL
