MODEL 1
REMARK VINA RESULT:      39.5      0.000      0.000
REMARK  8 active torsions:
REMARK  status: ('A' for Active; 'I' for Inactive)
REMARK    1  A    between atoms: N_9  and  C_1 
REMARK    2  A    between atoms: C_4  and  S_15 
REMARK    3  A    between atoms: C_18  and  C_8 
REMARK       I    between atoms: C_13  and  N_9 
REMARK       I    between atoms: C_10  and  N_14 
REMARK    4  A    between atoms: C_16  and  C_10 
REMARK    5  A    between atoms: C_22  and  C_13 
REMARK    6  A    between atoms: N_14  and  C_18 
REMARK    7  A    between atoms: S_15  and  C_22 
REMARK    8  A    between atoms: O_26  and  C_23 
ROOT
ATOM      1  O   UNL d   1      46.397 -17.733  42.216  0.00  0.00    -0.262 OA
ATOM      2  C   UNL d   1      46.296 -18.292  41.608  0.00  0.00     0.236 A 
ATOM      3  N   UNL d   1      46.144 -19.018  41.956  0.00  0.00    -0.114 NA
ATOM      4  N   UNL d   1      46.148 -18.914  42.775  0.00  0.00    -0.119 NA
ATOM      5  C   UNL d   1      46.304 -18.124  42.934  0.00  0.00     0.224 A 
ENDROOT
BRANCH   2   6
ATOM      6  S   UNL d   1      46.344 -18.135  40.797  0.00  0.00    -0.036 SA
BRANCH   6   7
ATOM      7  C   UNL d   1      45.663 -18.050  40.353  0.00  0.00     0.101 C 
BRANCH   7   8
ATOM      8  C   UNL d   1      45.669 -17.581  39.656  0.00  0.00     0.288 C 
ATOM      9  N   UNL d   1      44.957 -17.296  39.347  0.00  0.00    -0.182 NA
ATOM     10  O   UNL d   1      46.379 -17.408  39.284  0.00  0.00    -0.265 OA
BRANCH   9  11
ATOM     11  C   UNL d   1      44.953 -16.832  38.657  0.00  0.00     0.197 A 
ATOM     12  N   UNL d   1      45.576 -16.342  38.405  0.00  0.00    -0.221 NA
ATOM     13  C   UNL d   1      45.344 -15.983  37.697  0.00  0.00     0.090 A 
ATOM     14  C   UNL d   1      45.721 -15.454  37.199  0.00  0.00     0.020 A 
ATOM     15  C   UNL d   1      44.573 -16.252  37.513  0.00  0.00     0.050 A 
ATOM     16  C   UNL d   1      45.348 -15.179  36.511  0.00  0.00     0.002 A 
ATOM     17  C   UNL d   1      44.582 -15.450  36.332  0.00  0.00     0.001 A 
ATOM     18  C   UNL d   1      44.205 -15.979  36.830  0.00  0.00     0.008 A 
ATOM     19  S   UNL d   1      44.333 -16.778  38.108  0.00  0.00    -0.047 SA
ENDBRANCH   9  11
ENDBRANCH   7   8
ENDBRANCH   6   7
ENDBRANCH   2   6
BRANCH   5  20
ATOM     20  C   UNL d   1      46.357 -17.782  43.685  0.00  0.00     0.149 C 
BRANCH  20  21
ATOM     21  N   UNL d   1      46.253 -16.972  43.782  0.00  0.00    -0.203 NA
ATOM     22  C   UNL d   1      45.804 -16.687  44.419  0.00  0.00     0.279 C 
ATOM     23  O   UNL d   1      45.462 -17.209  44.955  0.00  0.00    -0.265 OA
BRANCH  22  24
ATOM     24  C   UNL d   1      45.703 -15.869  44.511  0.00  0.00     0.058 A 
ATOM     25  C   UNL d   1      44.953 -15.559  44.671  0.00  0.00     0.007 A 
ATOM     26  C   UNL d   1      44.859 -14.746  44.762  0.00  0.00     0.024 A 
ATOM     27  C   UNL d   1      45.516 -14.255  44.692  0.00  0.00     0.094 A 
ATOM     28  C   UNL d   1      46.251 -14.560  44.535  0.00  0.00     0.024 A 
ATOM     29  C   UNL d   1      46.344 -15.373  44.444  0.00  0.00     0.007 A 
BRANCH  27  30
ATOM     30  O   UNL d   1      45.421 -13.436  44.783  0.00  0.00    -0.328 OA
ATOM     31  C   UNL d   1      45.665 -12.910  44.183  0.00  0.00     0.181 C 
ENDBRANCH  27  30
ENDBRANCH  22  24
ENDBRANCH  20  21
ENDBRANCH   5  20
TORSDOF 8
ENDMDL
