MODEL 1
REMARK VINA RESULT:      -3.9      0.000      0.000
REMARK  3 active torsions:
REMARK  status: ('A' for Active; 'I' for Inactive)
REMARK    1  A    between atoms: O_3  and  C_1 
REMARK    2  A    between atoms: C_4  and  O_3 
REMARK    3  A    between atoms: C_8  and  C_4 
ROOT
ATOM      1  C   UNL d   1      58.579  -0.580  30.326  0.00  0.00     0.131 A 
ATOM      2  C   UNL d   1      58.703  -1.105  29.699  0.00  0.00     0.106 A 
ATOM      3  C   UNL d   1      59.214  -0.908  29.083  0.00  0.00     0.030 A 
ATOM      4  C   UNL d   1      58.973   0.150  30.334  0.00  0.00     0.083 A 
ATOM      5  C   UNL d   1      59.608  -0.178  29.092  0.00  0.00     0.060 A 
ATOM      6  C   UNL d   1      59.489   0.348  29.712  0.00  0.00     0.025 A 
ATOM      7  N   UNL d   1      58.310  -1.832  29.692  0.00  0.00    -0.242 NA
ATOM      8 CL   UNL d   1      58.860   0.682  30.950  0.00  0.00    -0.080 Cl
ATOM      9 CL   UNL d   1      60.119   0.018  28.476  0.00  0.00    -0.082 Cl
ATOM     10  C   UNL d   1      59.335  -1.427  28.466  0.00  0.00     0.004 A 
ATOM     11  C   UNL d   1      58.430  -2.357  29.072  0.00  0.00     0.099 A 
ATOM     12  C   UNL d   1      58.944  -2.156  28.455  0.00  0.00     0.021 A 
ENDROOT
BRANCH   1  13
ATOM     13  O   UNL d   1      58.075  -0.768  30.939  0.00  0.00    -0.269 OA
BRANCH  13  14
ATOM     14  C   UNL d   1      57.357  -0.371  31.026  0.00  0.00     0.323 C 
ATOM     15  O   UNL d   1      57.134   0.191  30.468  0.00  0.00    -0.257 OA
BRANCH  14  16
ATOM     16  C   UNL d   1      56.865  -0.534  31.665  0.00  0.00     0.163 A 
ATOM     17  O   UNL d   1      56.639  -1.286  31.930  0.00  0.00    -0.300 OA
ATOM     18  C   UNL d   1      56.150  -1.192  32.576  0.00  0.00     0.123 A 
ATOM     19  C   UNL d   1      56.067  -0.372  32.722  0.00  0.00     0.029 A 
ATOM     20  C   UNL d   1      56.512   0.025  32.155  0.00  0.00     0.032 A 
ENDBRANCH  14  16
ENDBRANCH  13  14
ENDBRANCH   1  13
TORSDOF 3
ENDMDL
MODEL 2
REMARK VINA RESULT:      -3.8      1.624      2.062
REMARK  3 active torsions:
REMARK  status: ('A' for Active; 'I' for Inactive)
REMARK    1  A    between atoms: O_3  and  C_1 
REMARK    2  A    between atoms: C_4  and  O_3 
REMARK    3  A    between atoms: C_8  and  C_4 
ROOT
ATOM      1  C   UNL d   1      58.477   0.673  30.463  0.00  0.00     0.131 A 
ATOM      2  C   UNL d   1      59.286   0.676  30.633  0.00  0.00     0.106 A 
ATOM      3  C   UNL d   1      59.842   0.677  30.025  0.00  0.00     0.030 A 
ATOM      4  C   UNL d   1      58.224   0.671  29.673  0.00  0.00     0.083 A 
ATOM      5  C   UNL d   1      59.589   0.675  29.235  0.00  0.00     0.060 A 
ATOM      6  C   UNL d   1      58.785   0.672  29.059  0.00  0.00     0.025 A 
ATOM      7  N   UNL d   1      59.537   0.678  31.420  0.00  0.00    -0.242 NA
ATOM      8 CL   UNL d   1      57.423   0.668  29.488  0.00  0.00    -0.080 Cl
ATOM      9 CL   UNL d   1      60.144   0.676  28.627  0.00  0.00    -0.082 Cl
ATOM     10  C   UNL d   1      60.639   0.680  30.195  0.00  0.00     0.004 A 
ATOM     11  C   UNL d   1      60.340   0.681  31.596  0.00  0.00     0.099 A 
ATOM     12  C   UNL d   1      60.895   0.682  30.982  0.00  0.00     0.021 A 
ENDROOT
BRANCH   1  13
ATOM     13  O   UNL d   1      57.921   0.672  31.060  0.00  0.00    -0.269 OA
BRANCH  13  14
ATOM     14  C   UNL d   1      57.448   0.008  31.190  0.00  0.00     0.323 C 
ATOM     15  O   UNL d   1      57.469  -0.615  30.654  0.00  0.00    -0.257 OA
BRANCH  14  16
ATOM     16  C   UNL d   1      56.958  -0.032  31.850  0.00  0.00     0.163 A 
ATOM     17  O   UNL d   1      56.699   0.609  32.307  0.00  0.00    -0.300 OA
ATOM     18  C   UNL d   1      56.225   0.320  32.905  0.00  0.00     0.123 A 
ATOM     19  C   UNL d   1      56.184  -0.513  32.824  0.00  0.00     0.029 A 
ATOM     20  C   UNL d   1      56.640  -0.719  32.170  0.00  0.00     0.032 A 
ENDBRANCH  14  16
ENDBRANCH  13  14
ENDBRANCH   1  13
TORSDOF 3
ENDMDL
MODEL 3
REMARK VINA RESULT:      -2.6      9.103      9.480
REMARK  3 active torsions:
REMARK  status: ('A' for Active; 'I' for Inactive)
REMARK    1  A    between atoms: O_3  and  C_1 
REMARK    2  A    between atoms: C_4  and  O_3 
REMARK    3  A    between atoms: C_8  and  C_4 
ROOT
ATOM      1  C   UNL d   1      59.195  -9.816  32.545  0.00  0.00     0.131 A 
ATOM      2  C   UNL d   1      59.737  -9.816  31.921  0.00  0.00     0.106 A 
ATOM      3  C   UNL d   1      59.475  -9.815  31.139  0.00  0.00     0.030 A 
ATOM      4  C   UNL d   1      58.381  -9.815  32.383  0.00  0.00     0.083 A 
ATOM      5  C   UNL d   1      58.662  -9.814  30.977  0.00  0.00     0.060 A 
ATOM      6  C   UNL d   1      58.117  -9.814  31.594  0.00  0.00     0.025 A 
ATOM      7  N   UNL d   1      60.546  -9.817  32.085  0.00  0.00    -0.242 NA
ATOM      8 CL   UNL d   1      57.830  -9.815  32.993  0.00  0.00    -0.080 Cl
ATOM      9 CL   UNL d   1      58.401  -9.813  30.196  0.00  0.00    -0.082 Cl
ATOM     10  C   UNL d   1      60.011  -9.815  30.526  0.00  0.00     0.004 A 
ATOM     11  C   UNL d   1      61.090  -9.817  31.468  0.00  0.00     0.099 A 
ATOM     12  C   UNL d   1      60.824  -9.816  30.684  0.00  0.00     0.021 A 
ENDROOT
BRANCH   1  13
ATOM     13  O   UNL d   1      59.446  -9.817  33.321  0.00  0.00    -0.269 OA
BRANCH  13  14
ATOM     14  C   UNL d   1      59.423  -9.124  33.769  0.00  0.00     0.323 C 
ATOM     15  O   UNL d   1      59.128  -8.434  33.434  0.00  0.00    -0.257 OA
BRANCH  14  16
ATOM     16  C   UNL d   1      59.694  -9.120  34.546  0.00  0.00     0.163 A 
ATOM     17  O   UNL d   1      59.937  -9.782  34.983  0.00  0.00    -0.300 OA
ATOM     18  C   UNL d   1      60.161  -9.528  35.725  0.00  0.00     0.123 A 
ATOM     19  C   UNL d   1      60.060  -8.698  35.757  0.00  0.00     0.029 A 
ATOM     20  C   UNL d   1      59.771  -8.457  35.025  0.00  0.00     0.032 A 
ENDBRANCH  14  16
ENDBRANCH  13  14
ENDBRANCH   1  13
TORSDOF 3
ENDMDL
MODEL 4
REMARK VINA RESULT:      -2.4      1.227      1.962
REMARK  3 active torsions:
REMARK  status: ('A' for Active; 'I' for Inactive)
REMARK    1  A    between atoms: O_3  and  C_1 
REMARK    2  A    between atoms: C_4  and  O_3 
REMARK    3  A    between atoms: C_8  and  C_4 
ROOT
ATOM      1  C   UNL d   1      58.775  -0.242  29.870  0.00  0.00     0.131 A 
ATOM      2  C   UNL d   1      59.557  -0.029  30.035  0.00  0.00     0.106 A 
ATOM      3  C   UNL d   1      60.174  -0.308  29.567  0.00  0.00     0.030 A 
ATOM      4  C   UNL d   1      58.612  -0.740  29.227  0.00  0.00     0.083 A 
ATOM      5  C   UNL d   1      60.011  -0.807  28.924  0.00  0.00     0.060 A 
ATOM      6  C   UNL d   1      59.236  -1.022  28.754  0.00  0.00     0.025 A 
ATOM      7  N   UNL d   1      59.717   0.467  30.676  0.00  0.00    -0.242 NA
ATOM      8 CL   UNL d   1      57.840  -0.960  29.051  0.00  0.00    -0.080 Cl
ATOM      9 CL   UNL d   1      60.629  -1.086  28.455  0.00  0.00    -0.082 Cl
ATOM     10  C   UNL d   1      60.944  -0.097  29.731  0.00  0.00     0.004 A 
ATOM     11  C   UNL d   1      60.492   0.682  30.845  0.00  0.00     0.099 A 
ATOM     12  C   UNL d   1      61.110   0.400  30.372  0.00  0.00     0.021 A 
ENDROOT
BRANCH   1  13
ATOM     13  O   UNL d   1      58.158   0.030  30.329  0.00  0.00    -0.269 OA
BRANCH  13  14
ATOM     14  C   UNL d   1      57.762  -0.480  30.842  0.00  0.00     0.323 C 
ATOM     15  O   UNL d   1      57.878  -1.291  30.777  0.00  0.00    -0.257 OA
BRANCH  14  16
ATOM     16  C   UNL d   1      57.253  -0.182  31.417  0.00  0.00     0.163 A 
ATOM     17  O   UNL d   1      57.217   0.604  31.678  0.00  0.00    -0.300 OA
ATOM     18  C   UNL d   1      56.637   0.655  32.250  0.00  0.00     0.123 A 
ATOM     19  C   UNL d   1      56.303  -0.106  32.350  0.00  0.00     0.029 A 
ATOM     20  C   UNL d   1      56.690  -0.614  31.831  0.00  0.00     0.032 A 
ENDBRANCH  14  16
ENDBRANCH  13  14
ENDBRANCH   1  13
TORSDOF 3
ENDMDL
MODEL 5
REMARK VINA RESULT:      -2.4      2.323      4.733
REMARK  3 active torsions:
REMARK  status: ('A' for Active; 'I' for Inactive)
REMARK    1  A    between atoms: O_3  and  C_1 
REMARK    2  A    between atoms: C_4  and  O_3 
REMARK    3  A    between atoms: C_8  and  C_4 
ROOT
ATOM      1  C   UNL d   1      56.561   0.570  32.870  0.00  0.00     0.131 A 
ATOM      2  C   UNL d   1      56.994   0.607  33.573  0.00  0.00     0.106 A 
ATOM      3  C   UNL d   1      56.609   0.607  34.302  0.00  0.00     0.030 A 
ATOM      4  C   UNL d   1      55.733   0.532  32.898  0.00  0.00     0.083 A 
ATOM      5  C   UNL d   1      55.781   0.569  34.330  0.00  0.00     0.060 A 
ATOM      6  C   UNL d   1      55.345   0.532  33.634  0.00  0.00     0.025 A 
ATOM      7  N   UNL d   1      57.818   0.645  33.543  0.00  0.00    -0.242 NA
ATOM      8 CL   UNL d   1      55.289   0.495  32.207  0.00  0.00    -0.080 Cl
ATOM      9 CL   UNL d   1      55.396   0.568  35.059  0.00  0.00    -0.082 Cl
ATOM     10  C   UNL d   1      57.038   0.643  34.994  0.00  0.00     0.004 A 
ATOM     11  C   UNL d   1      58.254   0.682  34.239  0.00  0.00     0.099 A 
ATOM     12  C   UNL d   1      57.864   0.681  34.969  0.00  0.00     0.021 A 
ENDROOT
BRANCH   1  13
ATOM     13  O   UNL d   1      56.935   0.571  32.144  0.00  0.00    -0.269 OA
BRANCH  13  14
ATOM     14  C   UNL d   1      57.028  -0.132  31.722  0.00  0.00     0.323 C 
ATOM     15  O   UNL d   1      56.630  -0.808  31.966  0.00  0.00    -0.257 OA
BRANCH  14  16
ATOM     16  C   UNL d   1      57.516  -0.159  31.060  0.00  0.00     0.163 A 
ATOM     17  O   UNL d   1      57.862   0.492  30.679  0.00  0.00    -0.300 OA
ATOM     18  C   UNL d   1      58.300   0.216  30.050  0.00  0.00     0.123 A 
ATOM     19  C   UNL d   1      58.232  -0.619  30.032  0.00  0.00     0.029 A 
ATOM     20  C   UNL d   1      57.746  -0.838  30.659  0.00  0.00     0.032 A 
ENDBRANCH  14  16
ENDBRANCH  13  14
ENDBRANCH   1  13
TORSDOF 3
ENDMDL
MODEL 6
REMARK VINA RESULT:      -2.3      8.697      9.628
REMARK  3 active torsions:
REMARK  status: ('A' for Active; 'I' for Inactive)
REMARK    1  A    between atoms: O_3  and  C_1 
REMARK    2  A    between atoms: C_4  and  O_3 
REMARK    3  A    between atoms: C_8  and  C_4 
ROOT
ATOM      1  C   UNL d   1      59.709  -8.697  34.304  0.00  0.00     0.131 A 
ATOM      2  C   UNL d   1      59.539  -8.143  34.893  0.00  0.00     0.106 A 
ATOM      3  C   UNL d   1      60.010  -8.090  35.567  0.00  0.00     0.030 A 
ATOM      4  C   UNL d   1      60.359  -9.204  34.393  0.00  0.00     0.083 A 
ATOM      5  C   UNL d   1      60.661  -8.597  35.656  0.00  0.00     0.060 A 
ATOM      6  C   UNL d   1      60.835  -9.151  35.073  0.00  0.00     0.025 A 
ATOM      7  N   UNL d   1      58.891  -7.638  34.804  0.00  0.00    -0.242 NA
ATOM      8 CL   UNL d   1      60.541  -9.761  33.815  0.00  0.00    -0.080 Cl
ATOM      9 CL   UNL d   1      61.132  -8.544  36.329  0.00  0.00    -0.082 Cl
ATOM     10  C   UNL d   1      59.841  -7.543  36.147  0.00  0.00     0.004 A 
ATOM     11  C   UNL d   1      58.717  -7.085  35.386  0.00  0.00     0.099 A 
ATOM     12  C   UNL d   1      59.193  -7.035  36.061  0.00  0.00     0.021 A 
ENDROOT
BRANCH   1  13
ATOM     13  O   UNL d   1      59.247  -8.755  33.634  0.00  0.00    -0.269 OA
BRANCH  13  14
ATOM     14  C   UNL d   1      58.697  -9.366  33.557  0.00  0.00     0.323 C 
ATOM     15  O   UNL d   1      58.493  -9.813  34.216  0.00  0.00    -0.257 OA
BRANCH  14  16
ATOM     16  C   UNL d   1      58.355  -9.529  32.827  0.00  0.00     0.163 A 
ATOM     17  O   UNL d   1      58.749  -9.565  32.098  0.00  0.00    -0.300 OA
ATOM     18  C   UNL d   1      58.200  -9.741  31.521  0.00  0.00     0.123 A 
ATOM     19  C   UNL d   1      57.452  -9.818  31.888  0.00  0.00     0.029 A 
ATOM     20  C   UNL d   1      57.559  -9.685  32.693  0.00  0.00     0.032 A 
ENDBRANCH  14  16
ENDBRANCH  13  14
ENDBRANCH   1  13
TORSDOF 3
ENDMDL
MODEL 7
REMARK VINA RESULT:      -1.5      1.789      4.092
REMARK  3 active torsions:
REMARK  status: ('A' for Active; 'I' for Inactive)
REMARK    1  A    between atoms: O_3  and  C_1 
REMARK    2  A    between atoms: C_4  and  O_3 
REMARK    3  A    between atoms: C_8  and  C_4 
ROOT
ATOM      1  C   UNL d   1      58.014   0.655  31.207  0.00  0.00     0.131 A 
ATOM      2  C   UNL d   1      58.051   0.661  32.032  0.00  0.00     0.106 A 
ATOM      3  C   UNL d   1      57.361   0.652  32.482  0.00  0.00     0.030 A 
ATOM      4  C   UNL d   1      57.276   0.640  30.828  0.00  0.00     0.083 A 
ATOM      5  C   UNL d   1      56.623   0.637  32.104  0.00  0.00     0.060 A 
ATOM      6  C   UNL d   1      56.579   0.631  31.283  0.00  0.00     0.025 A 
ATOM      7  N   UNL d   1      58.787   0.676  32.407  0.00  0.00    -0.242 NA
ATOM      8 CL   UNL d   1      57.224   0.633  30.008  0.00  0.00    -0.080 Cl
ATOM      9 CL   UNL d   1      55.933   0.628  32.554  0.00  0.00    -0.082 Cl
ATOM     10  C   UNL d   1      57.400   0.658  33.296  0.00  0.00     0.004 A 
ATOM     11  C   UNL d   1      58.831   0.682  33.228  0.00  0.00     0.099 A 
ATOM     12  C   UNL d   1      58.135   0.673  33.677  0.00  0.00     0.021 A 
ENDROOT
BRANCH   1  13
ATOM     13  O   UNL d   1      58.693   0.664  30.754  0.00  0.00    -0.269 OA
BRANCH  13  14
ATOM     14  C   UNL d   1      58.934  -0.013  30.348  0.00  0.00     0.323 C 
ATOM     15  O   UNL d   1      58.524  -0.717  30.455  0.00  0.00    -0.257 OA
BRANCH  14  16
ATOM     16  C   UNL d   1      59.579   0.014  29.838  0.00  0.00     0.163 A 
ATOM     17  O   UNL d   1      60.288   0.425  29.966  0.00  0.00    -0.300 OA
ATOM     18  C   UNL d   1      60.773   0.301  29.322  0.00  0.00     0.123 A 
ATOM     19  C   UNL d   1      60.367  -0.192  28.781  0.00  0.00     0.029 A 
ATOM     20  C   UNL d   1      59.632  -0.363  29.109  0.00  0.00     0.032 A 
ENDBRANCH  14  16
ENDBRANCH  13  14
ENDBRANCH   1  13
TORSDOF 3
ENDMDL
