MODEL 1
REMARK VINA RESULT:      54.3      0.000      0.000
REMARK  3 active torsions:
REMARK  status: ('A' for Active; 'I' for Inactive)
REMARK       I    between atoms: C_4  and  N_1 
REMARK    1  A    between atoms: C_7  and  C_3 
REMARK    2  A    between atoms: C_9  and  C_4 
REMARK    3  A    between atoms: C_8  and  C_5 
ROOT
ATOM      1  N   UNL d   1      57.531  49.465  51.336  0.00  0.00    -0.191 N 
ATOM      2  N   UNL d   1      58.242  49.461  50.932  0.00  0.00    -0.163 NA
ATOM      3  C   UNL d   1      57.722  49.581  52.150  0.00  0.00     0.110 A 
ATOM      4  C   UNL d   1      56.788  49.375  51.026  0.00  0.00     0.303 C 
ATOM      5  C   UNL d   1      58.862  49.570  51.465  0.00  0.00     0.103 A 
ATOM      6  C   UNL d   1      58.545  49.644  52.206  0.00  0.00     0.042 A 
ATOM      7  O   UNL d   1      56.105  49.398  51.563  0.00  0.00    -0.263 OA
ENDROOT
BRANCH   3   8
ATOM      8  C   UNL d   1      57.180  49.624  52.772  0.00  0.00     0.118 A 
ATOM      9  O   UNL d   1      56.371  49.635  52.690  0.00  0.00    -0.304 OA
ATOM     10  C   UNL d   1      56.035  49.682  53.456  0.00  0.00     0.123 A 
ATOM     11  C   UNL d   1      56.658  49.699  53.997  0.00  0.00     0.029 A 
ATOM     12  C   UNL d   1      57.369  49.662  53.558  0.00  0.00     0.028 A 
ENDBRANCH   3   8
BRANCH   4  13
ATOM     13  C   UNL d   1      56.656  49.265  50.228  0.00  0.00     0.158 A 
ATOM     14  O   UNL d   1      57.096  48.798  49.716  0.00  0.00    -0.300 OA
ATOM     15  C   UNL d   1      56.774  48.844  48.964  0.00  0.00     0.123 A 
ATOM     16  C   UNL d   1      56.123  49.346  49.003  0.00  0.00     0.029 A 
ATOM     17  C   UNL d   1      56.045  49.611  49.785  0.00  0.00     0.032 A 
ENDBRANCH   4  13
BRANCH   5  18
ATOM     18  C   UNL d   1      59.667  49.597  51.249  0.00  0.00     0.019 A 
ATOM     19  C   UNL d   1      60.215  49.590  51.834  0.00  0.00     0.002 A 
ATOM     20  C   UNL d   1      61.019  49.615  51.656  0.00  0.00     0.000 A 
ATOM     21  C   UNL d   1      61.255  49.647  50.875  0.00  0.00     0.000 A 
ATOM     22  C   UNL d   1      60.699  49.655  50.254  0.00  0.00     0.000 A 
ATOM     23  C   UNL d   1      62.061  49.672  50.703  0.00  0.00     0.000 C 
ATOM     24  C   UNL d   1      59.877  49.629  50.456  0.00  0.00     0.002 A 
ENDBRANCH   5  18
TORSDOF 3
ENDMDL
