MODEL 1
REMARK VINA RESULT:      -7.2      0.000      0.000
REMARK  8 active torsions:
REMARK  status: ('A' for Active; 'I' for Inactive)
REMARK    1  A    between atoms: C_14  and  N_1 
REMARK    2  A    between atoms: N_9  and  C_2 
REMARK    3  A    between atoms: C_6  and  C_5 
REMARK    4  A    between atoms: C_7  and  C_6 
REMARK       I    between atoms: N_8  and  C_7 
REMARK    5  A    between atoms: C_10  and  N_8 
REMARK    6  A    between atoms: C_16  and  N_9 
REMARK    7  A    between atoms: O_15  and  C_13 
REMARK    8  A    between atoms: C_19  and  O_15 
ROOT
ATOM      1  C   UNL d   1      51.859  34.478  53.580  0.00  0.00     0.074 C 
ENDROOT
BRANCH   1   2
ATOM      2  C   UNL d   1      52.430  33.882  53.635  0.00  0.00     0.093 A 
ATOM      3  C   UNL d   1      53.173  33.951  53.987  0.00  0.00     0.272 A 
ATOM      4  N   UNL d   1      53.564  33.225  53.919  0.00  0.00    -0.252 N 
ATOM      5  O   UNL d   1      53.476  34.631  54.348  0.00  0.00    -0.266 OA
ATOM      6  C   UNL d   1      53.058  32.705  53.522  0.00  0.00     0.182 A 
ATOM      7  S   UNL d   1      52.361  33.104  53.346  0.00  0.00    -0.045 SA
BRANCH   4   8
ATOM      8  C   UNL d   1      54.318  33.061  54.199  0.00  0.00     0.085 C 
ATOM      9  C   UNL d   1      54.476  33.081  55.006  0.00  0.00     0.021 C 
ENDBRANCH   4   8
BRANCH   6  10
ATOM     10  N   UNL d   1      53.230  31.923  53.338  0.00  0.00    -0.221 NA
BRANCH  10  11
ATOM     11  C   UNL d   1      52.652  31.428  53.027  0.00  0.00     0.101 C 
ATOM     12  C   UNL d   1      52.800  30.623  52.915  0.00  0.00     0.022 C 
ENDBRANCH  10  11
ENDBRANCH   6  10
ENDBRANCH   1   2
BRANCH   1  13
ATOM     13  C   UNL d   1      51.332  34.483  52.946  0.00  0.00     0.280 C 
ATOM     14  N   UNL d   1      50.527  34.548  53.076  0.00  0.00    -0.206 NA
ATOM     15  O   UNL d   1      51.626  34.421  52.180  0.00  0.00    -0.265 OA
BRANCH  14  16
ATOM     16  C   UNL d   1      50.002  34.553  52.439  0.00  0.00     0.107 A 
ATOM     17  C   UNL d   1      49.284  34.953  52.495  0.00  0.00     0.118 A 
ATOM     18  C   UNL d   1      48.759  34.958  51.858  0.00  0.00     0.026 A 
ATOM     19  C   UNL d   1      48.962  34.554  51.159  0.00  0.00     0.002 A 
ATOM     20  C   UNL d   1      49.675  34.156  51.102  0.00  0.00     0.002 A 
ATOM     21  C   UNL d   1      50.202  34.150  51.736  0.00  0.00     0.021 A 
BRANCH  17  22
ATOM     22  O   UNL d   1      49.094  35.350  53.195  0.00  0.00    -0.304 OA
BRANCH  22  23
ATOM     23  C   UNL d   1      48.408  35.801  53.233  0.00  0.00     0.123 C 
ATOM     24  C   UNL d   1      48.199  36.183  53.935  0.00  0.00     0.029 C 
ENDBRANCH  22  23
ENDBRANCH  17  22
ENDBRANCH  14  16
ENDBRANCH   1  13
TORSDOF 8
ENDMDL
MODEL 2
REMARK VINA RESULT:      -6.7      1.897      4.733
REMARK  8 active torsions:
REMARK  status: ('A' for Active; 'I' for Inactive)
REMARK    1  A    between atoms: C_14  and  N_1 
REMARK    2  A    between atoms: N_9  and  C_2 
REMARK    3  A    between atoms: C_6  and  C_5 
REMARK    4  A    between atoms: C_7  and  C_6 
REMARK       I    between atoms: N_8  and  C_7 
REMARK    5  A    between atoms: C_10  and  N_8 
REMARK    6  A    between atoms: C_16  and  N_9 
REMARK    7  A    between atoms: O_15  and  C_13 
REMARK    8  A    between atoms: C_19  and  O_15 
ROOT
ATOM      1  C   UNL d   1      53.816  32.657  54.319  0.00  0.00     0.074 C 
ENDROOT
BRANCH   1   2
ATOM      2  C   UNL d   1      53.371  33.350  54.243  0.00  0.00     0.093 A 
ATOM      3  C   UNL d   1      53.500  34.059  54.643  0.00  0.00     0.272 A 
ATOM      4  N   UNL d   1      52.928  34.605  54.402  0.00  0.00    -0.252 N 
ATOM      5  O   UNL d   1      54.102  34.199  55.194  0.00  0.00    -0.266 OA
ATOM      6  C   UNL d   1      52.441  34.231  53.848  0.00  0.00     0.182 A 
ATOM      7  S   UNL d   1      52.710  33.459  53.747  0.00  0.00    -0.045 SA
BRANCH   4   8
ATOM      8  C   UNL d   1      52.863  35.379  54.671  0.00  0.00     0.085 C 
ATOM      9  C   UNL d   1      53.409  35.947  54.436  0.00  0.00     0.021 C 
ENDBRANCH   4   8
BRANCH   6  10
ATOM     10  N   UNL d   1      51.801  34.576  53.468  0.00  0.00    -0.221 NA
BRANCH  10  11
ATOM     11  C   UNL d   1      51.237  34.113  53.090  0.00  0.00     0.101 C 
ATOM     12  C   UNL d   1      50.582  34.457  52.723  0.00  0.00     0.022 C 
ENDBRANCH  10  11
ENDBRANCH   6  10
ENDBRANCH   1   2
BRANCH   1  13
ATOM     13  C   UNL d   1      53.673  32.021  53.814  0.00  0.00     0.280 C 
ATOM     14  N   UNL d   1      53.363  31.321  54.105  0.00  0.00    -0.206 NA
ATOM     15  O   UNL d   1      53.846  32.097  53.013  0.00  0.00    -0.265 OA
BRANCH  14  16
ATOM     16  C   UNL d   1      53.222  30.687  53.597  0.00  0.00     0.107 A 
ATOM     17  C   UNL d   1      53.202  29.916  53.890  0.00  0.00     0.118 A 
ATOM     18  C   UNL d   1      53.061  29.282  53.382  0.00  0.00     0.026 A 
ATOM     19  C   UNL d   1      52.938  29.426  52.571  0.00  0.00     0.002 A 
ATOM     20  C   UNL d   1      52.957  30.191  52.279  0.00  0.00     0.002 A 
ATOM     21  C   UNL d   1      53.099  30.828  52.784  0.00  0.00     0.021 A 
BRANCH  17  22
ATOM     22  O   UNL d   1      53.325  29.786  54.697  0.00  0.00    -0.304 OA
BRANCH  22  23
ATOM     23  C   UNL d   1      53.327  29.017  54.989  0.00  0.00     0.123 C 
ATOM     24  C   UNL d   1      53.340  28.881  55.803  0.00  0.00     0.029 C 
ENDBRANCH  22  23
ENDBRANCH  17  22
ENDBRANCH  14  16
ENDBRANCH   1  13
TORSDOF 8
ENDMDL
MODEL 3
REMARK VINA RESULT:      -6.3      2.003      3.969
REMARK  8 active torsions:
REMARK  status: ('A' for Active; 'I' for Inactive)
REMARK    1  A    between atoms: C_14  and  N_1 
REMARK    2  A    between atoms: N_9  and  C_2 
REMARK    3  A    between atoms: C_6  and  C_5 
REMARK    4  A    between atoms: C_7  and  C_6 
REMARK       I    between atoms: N_8  and  C_7 
REMARK    5  A    between atoms: C_10  and  N_8 
REMARK    6  A    between atoms: C_16  and  N_9 
REMARK    7  A    between atoms: O_15  and  C_13 
REMARK    8  A    between atoms: C_19  and  O_15 
ROOT
ATOM      1  C   UNL d   1      54.026  31.673  53.319  0.00  0.00     0.074 C 
ENDROOT
BRANCH   1   2
ATOM      2  C   UNL d   1      53.590  30.982  53.447  0.00  0.00     0.093 A 
ATOM      3  C   UNL d   1      52.980  30.695  52.971  0.00  0.00     0.272 A 
ATOM      4  N   UNL d   1      52.698  29.992  53.301  0.00  0.00    -0.252 N 
ATOM      5  O   UNL d   1      52.699  31.052  52.279  0.00  0.00    -0.266 OA
ATOM      6  C   UNL d   1      53.136  29.842  53.986  0.00  0.00     0.182 A 
ATOM      7  S   UNL d   1      53.685  30.448  54.080  0.00  0.00    -0.045 SA
BRANCH   4   8
ATOM      8  C   UNL d   1      52.091  29.530  52.995  0.00  0.00     0.085 C 
ATOM      9  C   UNL d   1      51.311  29.676  53.209  0.00  0.00     0.021 C 
ENDBRANCH   4   8
BRANCH   6  10
ATOM     10  N   UNL d   1      53.036  29.197  54.484  0.00  0.00    -0.221 NA
BRANCH  10  11
ATOM     11  C   UNL d   1      53.658  28.920  54.943  0.00  0.00     0.101 C 
ATOM     12  C   UNL d   1      53.540  28.320  55.499  0.00  0.00     0.022 C 
ENDBRANCH  10  11
ENDBRANCH   6  10
ENDBRANCH   1   2
BRANCH   1  13
ATOM     13  C   UNL d   1      53.886  32.338  53.787  0.00  0.00     0.280 C 
ATOM     14  N   UNL d   1      53.651  33.043  53.444  0.00  0.00    -0.206 NA
ATOM     15  O   UNL d   1      53.986  32.284  54.602  0.00  0.00    -0.265 OA
BRANCH  14  16
ATOM     16  C   UNL d   1      53.511  33.707  53.915  0.00  0.00     0.107 A 
ATOM     17  C   UNL d   1      52.914  34.239  53.717  0.00  0.00     0.118 A 
ATOM     18  C   UNL d   1      52.775  34.903  54.187  0.00  0.00     0.026 A 
ATOM     19  C   UNL d   1      53.243  35.030  54.864  0.00  0.00     0.002 A 
ATOM     20  C   UNL d   1      53.837  34.502  55.062  0.00  0.00     0.002 A 
ATOM     21  C   UNL d   1      53.979  33.837  54.594  0.00  0.00     0.021 A 
BRANCH  17  22
ATOM     22  O   UNL d   1      52.456  34.102  53.042  0.00  0.00    -0.304 OA
BRANCH  22  23
ATOM     23  C   UNL d   1      51.748  34.508  52.943  0.00  0.00     0.123 C 
ATOM     24  C   UNL d   1      51.240  34.313  52.322  0.00  0.00     0.029 C 
ENDBRANCH  22  23
ENDBRANCH  17  22
ENDBRANCH  14  16
ENDBRANCH   1  13
TORSDOF 8
ENDMDL
MODEL 4
REMARK VINA RESULT:      -6.1      1.160      4.847
REMARK  8 active torsions:
REMARK  status: ('A' for Active; 'I' for Inactive)
REMARK    1  A    between atoms: C_14  and  N_1 
REMARK    2  A    between atoms: N_9  and  C_2 
REMARK    3  A    between atoms: C_6  and  C_5 
REMARK    4  A    between atoms: C_7  and  C_6 
REMARK       I    between atoms: N_8  and  C_7 
REMARK    5  A    between atoms: C_10  and  N_8 
REMARK    6  A    between atoms: C_16  and  N_9 
REMARK    7  A    between atoms: O_15  and  C_13 
REMARK    8  A    between atoms: C_19  and  O_15 
ROOT
ATOM      1  C   UNL d   1      52.147  34.591  52.587  0.00  0.00     0.074 C 
ENDROOT
BRANCH   1   2
ATOM      2  C   UNL d   1      51.325  34.549  52.511  0.00  0.00     0.093 A 
ATOM      3  C   UNL d   1      50.910  34.237  51.870  0.00  0.00     0.272 A 
ATOM      4  N   UNL d   1      50.101  34.306  52.022  0.00  0.00    -0.252 N 
ATOM      5  O   UNL d   1      51.249  33.909  51.189  0.00  0.00    -0.266 OA
ATOM      6  C   UNL d   1      50.014  34.664  52.762  0.00  0.00     0.182 A 
ATOM      7  S   UNL d   1      50.763  34.815  53.066  0.00  0.00    -0.045 SA
BRANCH   4   8
ATOM      8  C   UNL d   1      49.498  34.060  51.521  0.00  0.00     0.085 C 
ATOM      9  C   UNL d   1      49.421  34.388  50.771  0.00  0.00     0.021 C 
ENDBRANCH   4   8
BRANCH   6  10
ATOM     10  N   UNL d   1      49.298  34.836  53.126  0.00  0.00    -0.221 NA
BRANCH  10  11
ATOM     11  C   UNL d   1      49.193  35.543  53.532  0.00  0.00     0.101 C 
ATOM     12  C   UNL d   1      48.443  35.780  53.783  0.00  0.00     0.022 C 
ENDBRANCH  10  11
ENDBRANCH   6  10
ENDBRANCH   1   2
BRANCH   1  13
ATOM     13  C   UNL d   1      52.513  34.277  53.257  0.00  0.00     0.280 C 
ATOM     14  N   UNL d   1      53.038  33.653  53.189  0.00  0.00    -0.206 NA
ATOM     15  O   UNL d   1      52.343  34.599  53.995  0.00  0.00    -0.265 OA
BRANCH  14  16
ATOM     16  C   UNL d   1      53.401  33.341  53.861  0.00  0.00     0.107 A 
ATOM     17  C   UNL d   1      53.484  32.526  53.949  0.00  0.00     0.118 A 
ATOM     18  C   UNL d   1      53.848  32.214  54.620  0.00  0.00     0.026 A 
ATOM     19  C   UNL d   1      54.131  32.731  55.209  0.00  0.00     0.002 A 
ATOM     20  C   UNL d   1      54.050  33.541  55.123  0.00  0.00     0.002 A 
ATOM     21  C   UNL d   1      53.687  33.856  54.453  0.00  0.00     0.021 A 
BRANCH  17  22
ATOM     22  O   UNL d   1      53.199  32.023  53.358  0.00  0.00    -0.304 OA
BRANCH  22  23
ATOM     23  C   UNL d   1      53.296  31.211  53.433  0.00  0.00     0.123 C 
ATOM     24  C   UNL d   1      52.939  30.696  52.895  0.00  0.00     0.029 C 
ENDBRANCH  22  23
ENDBRANCH  17  22
ENDBRANCH  14  16
ENDBRANCH   1  13
TORSDOF 8
ENDMDL
MODEL 5
REMARK VINA RESULT:      -6.0      1.196      4.848
REMARK  8 active torsions:
REMARK  status: ('A' for Active; 'I' for Inactive)
REMARK    1  A    between atoms: C_14  and  N_1 
REMARK    2  A    between atoms: N_9  and  C_2 
REMARK    3  A    between atoms: C_6  and  C_5 
REMARK    4  A    between atoms: C_7  and  C_6 
REMARK       I    between atoms: N_8  and  C_7 
REMARK    5  A    between atoms: C_10  and  N_8 
REMARK    6  A    between atoms: C_16  and  N_9 
REMARK    7  A    between atoms: O_15  and  C_13 
REMARK    8  A    between atoms: C_19  and  O_15 
ROOT
ATOM      1  C   UNL d   1      51.727  34.214  52.672  0.00  0.00     0.074 C 
ENDROOT
BRANCH   1   2
ATOM      2  C   UNL d   1      50.936  34.398  52.513  0.00  0.00     0.093 A 
ATOM      3  C   UNL d   1      50.581  34.418  51.769  0.00  0.00     0.272 A 
ATOM      4  N   UNL d   1      49.787  34.627  51.864  0.00  0.00    -0.252 N 
ATOM      5  O   UNL d   1      50.957  34.257  51.050  0.00  0.00    -0.266 OA
ATOM      6  C   UNL d   1      49.650  34.736  52.672  0.00  0.00     0.182 A 
ATOM      7  S   UNL d   1      50.354  34.596  53.075  0.00  0.00    -0.045 SA
BRANCH   4   8
ATOM      8  C   UNL d   1      49.239  34.708  51.257  0.00  0.00     0.085 C 
ATOM      9  C   UNL d   1      49.097  34.086  50.739  0.00  0.00     0.021 C 
ENDBRANCH   4   8
BRANCH   6  10
ATOM     10  N   UNL d   1      48.931  34.948  53.008  0.00  0.00    -0.221 NA
BRANCH  10  11
ATOM     11  C   UNL d   1      48.887  35.564  53.551  0.00  0.00     0.101 C 
ATOM     12  C   UNL d   1      48.156  35.868  53.787  0.00  0.00     0.022 C 
ENDBRANCH  10  11
ENDBRANCH   6  10
ENDBRANCH   1   2
BRANCH   1  13
ATOM     13  C   UNL d   1      51.928  33.454  52.923  0.00  0.00     0.280 C 
ATOM     14  N   UNL d   1      52.710  33.213  52.928  0.00  0.00    -0.206 NA
ATOM     15  O   UNL d   1      51.333  32.941  53.168  0.00  0.00    -0.265 OA
BRANCH  14  16
ATOM     16  C   UNL d   1      52.909  32.452  53.179  0.00  0.00     0.107 A 
ATOM     17  C   UNL d   1      53.491  32.342  53.753  0.00  0.00     0.118 A 
ATOM     18  C   UNL d   1      53.689  31.582  54.004  0.00  0.00     0.026 A 
ATOM     19  C   UNL d   1      53.296  30.926  53.673  0.00  0.00     0.002 A 
ATOM     20  C   UNL d   1      52.717  31.034  53.104  0.00  0.00     0.002 A 
ATOM     21  C   UNL d   1      52.516  31.793  52.850  0.00  0.00     0.021 A 
BRANCH  17  22
ATOM     22  O   UNL d   1      53.874  33.001  54.073  0.00  0.00    -0.304 OA
BRANCH  22  23
ATOM     23  C   UNL d   1      54.449  32.895  54.650  0.00  0.00     0.123 C 
ATOM     24  C   UNL d   1      54.826  33.548  54.988  0.00  0.00     0.029 C 
ENDBRANCH  22  23
ENDBRANCH  17  22
ENDBRANCH  14  16
ENDBRANCH   1  13
TORSDOF 8
ENDMDL
MODEL 6
REMARK VINA RESULT:      -5.9      1.566      5.205
REMARK  8 active torsions:
REMARK  status: ('A' for Active; 'I' for Inactive)
REMARK    1  A    between atoms: C_14  and  N_1 
REMARK    2  A    between atoms: N_9  and  C_2 
REMARK    3  A    between atoms: C_6  and  C_5 
REMARK    4  A    between atoms: C_7  and  C_6 
REMARK       I    between atoms: N_8  and  C_7 
REMARK    5  A    between atoms: C_10  and  N_8 
REMARK    6  A    between atoms: C_16  and  N_9 
REMARK    7  A    between atoms: O_15  and  C_13 
REMARK    8  A    between atoms: C_19  and  O_15 
ROOT
ATOM      1  C   UNL d   1      49.779  34.250  52.352  0.00  0.00     0.074 C 
ENDROOT
BRANCH   1   2
ATOM      2  C   UNL d   1      49.162  34.800  52.387  0.00  0.00     0.093 A 
ATOM      3  C   UNL d   1      48.665  35.016  51.765  0.00  0.00     0.272 A 
ATOM      4  N   UNL d   1      48.128  35.580  52.042  0.00  0.00    -0.252 N 
ATOM      5  O   UNL d   1      48.700  34.718  50.994  0.00  0.00    -0.266 OA
ATOM      6  C   UNL d   1      48.293  35.714  52.841  0.00  0.00     0.182 A 
ATOM      7  S   UNL d   1      48.928  35.236  53.057  0.00  0.00    -0.045 SA
BRANCH   4   8
ATOM      8  C   UNL d   1      47.539  35.938  51.595  0.00  0.00     0.085 C 
ATOM      9  C   UNL d   1      46.916  35.493  51.295  0.00  0.00     0.021 C 
ENDBRANCH   4   8
BRANCH   6  10
ATOM     10  N   UNL d   1      47.889  36.235  53.329  0.00  0.00    -0.221 NA
BRANCH  10  11
ATOM     11  C   UNL d   1      47.934  36.165  54.147  0.00  0.00     0.101 C 
ATOM     12  C   UNL d   1      47.554  36.708  54.640  0.00  0.00     0.022 C 
ENDBRANCH  10  11
ENDBRANCH   6  10
ENDBRANCH   1   2
BRANCH   1  13
ATOM     13  C   UNL d   1      50.482  34.397  52.757  0.00  0.00     0.280 C 
ATOM     14  N   UNL d   1      51.138  33.922  52.635  0.00  0.00    -0.206 NA
ATOM     15  O   UNL d   1      50.518  35.028  53.284  0.00  0.00    -0.265 OA
BRANCH  14  16
ATOM     16  C   UNL d   1      51.840  34.071  53.042  0.00  0.00     0.107 A 
ATOM     17  C   UNL d   1      52.352  33.453  53.228  0.00  0.00     0.118 A 
ATOM     18  C   UNL d   1      53.054  33.603  53.634  0.00  0.00     0.026 A 
ATOM     19  C   UNL d   1      53.241  34.384  53.855  0.00  0.00     0.002 A 
ATOM     20  C   UNL d   1      52.733  34.999  53.670  0.00  0.00     0.002 A 
ATOM     21  C   UNL d   1      52.030  34.853  53.264  0.00  0.00     0.021 A 
BRANCH  17  22
ATOM     22  O   UNL d   1      52.156  32.682  53.004  0.00  0.00    -0.304 OA
BRANCH  22  23
ATOM     23  C   UNL d   1      52.714  32.083  53.078  0.00  0.00     0.123 C 
ATOM     24  C   UNL d   1      52.521  31.307  52.873  0.00  0.00     0.029 C 
ENDBRANCH  22  23
ENDBRANCH  17  22
ENDBRANCH  14  16
ENDBRANCH   1  13
TORSDOF 8
ENDMDL
MODEL 7
REMARK VINA RESULT:      -5.6      1.198      1.981
REMARK  8 active torsions:
REMARK  status: ('A' for Active; 'I' for Inactive)
REMARK    1  A    between atoms: C_14  and  N_1 
REMARK    2  A    between atoms: N_9  and  C_2 
REMARK    3  A    between atoms: C_6  and  C_5 
REMARK    4  A    between atoms: C_7  and  C_6 
REMARK       I    between atoms: N_8  and  C_7 
REMARK    5  A    between atoms: C_10  and  N_8 
REMARK    6  A    between atoms: C_16  and  N_9 
REMARK    7  A    between atoms: O_15  and  C_13 
REMARK    8  A    between atoms: C_19  and  O_15 
ROOT
ATOM      1  C   UNL d   1      50.764  33.499  53.220  0.00  0.00     0.074 C 
ENDROOT
BRANCH   1   2
ATOM      2  C   UNL d   1      51.562  33.677  53.344  0.00  0.00     0.093 A 
ATOM      3  C   UNL d   1      52.199  33.166  53.227  0.00  0.00     0.272 A 
ATOM      4  N   UNL d   1      52.895  33.568  53.417  0.00  0.00    -0.252 N 
ATOM      5  O   UNL d   1      52.148  32.383  52.964  0.00  0.00    -0.266 OA
ATOM      6  C   UNL d   1      52.688  34.333  53.653  0.00  0.00     0.182 A 
ATOM      7  S   UNL d   1      51.869  34.404  53.610  0.00  0.00    -0.045 SA
BRANCH   4   8
ATOM      8  C   UNL d   1      53.654  33.255  53.376  0.00  0.00     0.085 C 
ATOM      9  C   UNL d   1      53.857  32.596  53.824  0.00  0.00     0.021 C 
ENDBRANCH   4   8
BRANCH   6  10
ATOM     10  N   UNL d   1      53.215  34.917  53.890  0.00  0.00    -0.221 NA
BRANCH  10  11
ATOM     11  C   UNL d   1      52.961  35.551  54.347  0.00  0.00     0.101 C 
ATOM     12  C   UNL d   1      53.485  36.149  54.570  0.00  0.00     0.022 C 
ENDBRANCH  10  11
ENDBRANCH   6  10
ENDBRANCH   1   2
BRANCH   1  13
ATOM     13  C   UNL d   1      50.339  33.904  52.640  0.00  0.00     0.280 C 
ATOM     14  N   UNL d   1      49.580  34.171  52.792  0.00  0.00    -0.206 NA
ATOM     15  O   UNL d   1      50.687  34.037  51.906  0.00  0.00    -0.265 OA
BRANCH  14  16
ATOM     16  C   UNL d   1      49.158  34.575  52.210  0.00  0.00     0.107 A 
ATOM     17  C   UNL d   1      48.675  35.211  52.413  0.00  0.00     0.118 A 
ATOM     18  C   UNL d   1      48.253  35.616  51.831  0.00  0.00     0.026 A 
ATOM     19  C   UNL d   1      48.319  35.376  51.036  0.00  0.00     0.002 A 
ATOM     20  C   UNL d   1      48.799  34.745  50.833  0.00  0.00     0.002 A 
ATOM     21  C   UNL d   1      49.223  34.338  51.412  0.00  0.00     0.021 A 
BRANCH  17  22
ATOM     22  O   UNL d   1      48.617  35.439  53.205  0.00  0.00    -0.304 OA
BRANCH  22  23
ATOM     23  C   UNL d   1      48.106  36.048  53.416  0.00  0.00     0.123 C 
ATOM     24  C   UNL d   1      48.023  36.267  54.208  0.00  0.00     0.029 C 
ENDBRANCH  22  23
ENDBRANCH  17  22
ENDBRANCH  14  16
ENDBRANCH   1  13
TORSDOF 8
ENDMDL
MODEL 8
REMARK VINA RESULT:      -5.3      1.153      2.268
REMARK  8 active torsions:
REMARK  status: ('A' for Active; 'I' for Inactive)
REMARK    1  A    between atoms: C_14  and  N_1 
REMARK    2  A    between atoms: N_9  and  C_2 
REMARK    3  A    between atoms: C_6  and  C_5 
REMARK    4  A    between atoms: C_7  and  C_6 
REMARK       I    between atoms: N_8  and  C_7 
REMARK    5  A    between atoms: C_10  and  N_8 
REMARK    6  A    between atoms: C_16  and  N_9 
REMARK    7  A    between atoms: O_15  and  C_13 
REMARK    8  A    between atoms: C_19  and  O_15 
ROOT
ATOM      1  C   UNL d   1      51.844  33.111  52.528  0.00  0.00     0.074 C 
ENDROOT
BRANCH   1   2
ATOM      2  C   UNL d   1      52.436  32.753  52.981  0.00  0.00     0.093 A 
ATOM      3  C   UNL d   1      52.608  31.947  53.008  0.00  0.00     0.272 A 
ATOM      4  N   UNL d   1      53.239  31.831  53.530  0.00  0.00    -0.252 N 
ATOM      5  O   UNL d   1      52.215  31.355  52.585  0.00  0.00    -0.266 OA
ATOM      6  C   UNL d   1      53.459  32.571  53.827  0.00  0.00     0.182 A 
ATOM      7  S   UNL d   1      52.968  33.140  53.493  0.00  0.00    -0.045 SA
BRANCH   4   8
ATOM      8  C   UNL d   1      53.580  31.106  53.714  0.00  0.00     0.085 C 
ATOM      9  C   UNL d   1      53.688  30.538  53.129  0.00  0.00     0.021 C 
ENDBRANCH   4   8
BRANCH   6  10
ATOM     10  N   UNL d   1      54.064  32.706  54.365  0.00  0.00    -0.221 NA
BRANCH  10  11
ATOM     11  C   UNL d   1      54.280  33.472  54.569  0.00  0.00     0.101 C 
ATOM     12  C   UNL d   1      54.856  33.611  55.146  0.00  0.00     0.022 C 
ENDBRANCH  10  11
ENDBRANCH   6  10
ENDBRANCH   1   2
BRANCH   1  13
ATOM     13  C   UNL d   1      51.260  33.560  52.899  0.00  0.00     0.280 C 
ATOM     14  N   UNL d   1      50.862  34.145  52.487  0.00  0.00    -0.206 NA
ATOM     15  O   UNL d   1      51.082  33.414  53.689  0.00  0.00    -0.265 OA
BRANCH  14  16
ATOM     16  C   UNL d   1      50.278  34.592  52.860  0.00  0.00     0.107 A 
ATOM     17  C   UNL d   1      49.570  34.759  52.473  0.00  0.00     0.118 A 
ATOM     18  C   UNL d   1      48.986  35.207  52.846  0.00  0.00     0.026 A 
ATOM     19  C   UNL d   1      49.119  35.488  53.619  0.00  0.00     0.002 A 
ATOM     20  C   UNL d   1      49.821  35.324  54.005  0.00  0.00     0.002 A 
ATOM     21  C   UNL d   1      50.408  34.876  53.635  0.00  0.00     0.021 A 
BRANCH  17  22
ATOM     22  O   UNL d   1      49.450  34.474  51.706  0.00  0.00    -0.304 OA
BRANCH  22  23
ATOM     23  C   UNL d   1      48.770  34.685  51.296  0.00  0.00     0.123 C 
ATOM     24  C   UNL d   1      48.498  34.217  50.672  0.00  0.00     0.029 C 
ENDBRANCH  22  23
ENDBRANCH  17  22
ENDBRANCH  14  16
ENDBRANCH   1  13
TORSDOF 8
ENDMDL
MODEL 9
REMARK VINA RESULT:      -4.8      1.384      4.730
REMARK  8 active torsions:
REMARK  status: ('A' for Active; 'I' for Inactive)
REMARK    1  A    between atoms: C_14  and  N_1 
REMARK    2  A    between atoms: N_9  and  C_2 
REMARK    3  A    between atoms: C_6  and  C_5 
REMARK    4  A    between atoms: C_7  and  C_6 
REMARK       I    between atoms: N_8  and  C_7 
REMARK    5  A    between atoms: C_10  and  N_8 
REMARK    6  A    between atoms: C_16  and  N_9 
REMARK    7  A    between atoms: O_15  and  C_13 
REMARK    8  A    between atoms: C_19  and  O_15 
ROOT
ATOM      1  C   UNL d   1      51.606  32.959  52.299  0.00  0.00     0.074 C 
ENDROOT
BRANCH   1   2
ATOM      2  C   UNL d   1      51.403  33.643  52.718  0.00  0.00     0.093 A 
ATOM      3  C   UNL d   1      50.654  33.984  52.760  0.00  0.00     0.272 A 
ATOM      4  N   UNL d   1      50.699  34.658  53.236  0.00  0.00    -0.252 N 
ATOM      5  O   UNL d   1      49.972  33.700  52.387  0.00  0.00    -0.266 OA
ATOM      6  C   UNL d   1      51.482  34.734  53.491  0.00  0.00     0.182 A 
ATOM      7  S   UNL d   1      51.918  34.112  53.175  0.00  0.00    -0.045 SA
BRANCH   4   8
ATOM      8  C   UNL d   1      50.072  35.157  53.418  0.00  0.00     0.085 C 
ATOM      9  C   UNL d   1      49.379  35.133  52.975  0.00  0.00     0.021 C 
ENDBRANCH   4   8
BRANCH   6  10
ATOM     10  N   UNL d   1      51.768  35.331  53.977  0.00  0.00    -0.221 NA
BRANCH  10  11
ATOM     11  C   UNL d   1      52.545  35.319  54.243  0.00  0.00     0.101 C 
ATOM     12  C   UNL d   1      52.845  35.935  54.704  0.00  0.00     0.022 C 
ENDBRANCH  10  11
ENDBRANCH   6  10
ENDBRANCH   1   2
BRANCH   1  13
ATOM     13  C   UNL d   1      51.903  32.304  52.703  0.00  0.00     0.280 C 
ATOM     14  N   UNL d   1      52.675  32.059  52.585  0.00  0.00    -0.206 NA
ATOM     15  O   UNL d   1      51.413  31.899  53.225  0.00  0.00    -0.265 OA
BRANCH  14  16
ATOM     16  C   UNL d   1      52.969  31.404  52.991  0.00  0.00     0.107 A 
ATOM     17  C   UNL d   1      53.666  31.463  53.426  0.00  0.00     0.118 A 
ATOM     18  C   UNL d   1      53.960  30.807  53.832  0.00  0.00     0.026 A 
ATOM     19  C   UNL d   1      53.546  30.085  53.797  0.00  0.00     0.002 A 
ATOM     20  C   UNL d   1      52.854  30.025  53.365  0.00  0.00     0.002 A 
ATOM     21  C   UNL d   1      52.557  30.679  52.958  0.00  0.00     0.021 A 
BRANCH  17  22
ATOM     22  O   UNL d   1      54.068  32.185  53.454  0.00  0.00    -0.304 OA
BRANCH  22  23
ATOM     23  C   UNL d   1      54.715  32.271  53.953  0.00  0.00     0.123 C 
ATOM     24  C   UNL d   1      55.112  32.993  53.999  0.00  0.00     0.029 C 
ENDBRANCH  22  23
ENDBRANCH  17  22
ENDBRANCH  14  16
ENDBRANCH   1  13
TORSDOF 8
ENDMDL
