MODEL 1
REMARK VINA RESULT:      28.5      0.000      0.000
REMARK  3 active torsions:
REMARK  status: ('A' for Active; 'I' for Inactive)
REMARK       I    between atoms: N_2  and  C_1 
REMARK    1  A    between atoms: C_4  and  C_1 
REMARK    2  A    between atoms: C_3  and  N_2 
REMARK    3  A    between atoms: C_5  and  C_6 
ROOT
ATOM      1  C   UNL d   1      15.015  12.351  -1.475  0.00  0.00     0.058 A 
ATOM      2  C   UNL d   1      13.906  12.443  -2.645  0.00  0.00    -0.023 A 
ATOM      3  C   UNL d   1      15.160  12.819  -2.101  0.00  0.00     0.004 A 
ATOM      4  C   UNL d   1      14.327  11.904  -1.383  0.00  0.00     0.004 A 
ATOM      5  C   UNL d   1      13.768  11.959  -1.987  0.00  0.00    -0.004 A 
ATOM      6  C   UNL d   1      14.594  12.866  -2.698  0.00  0.00    -0.004 A 
ENDROOT
BRANCH   1   7
ATOM      7  C   UNL d   1      15.598  12.311  -0.875  0.00  0.00     0.279 C 
ATOM      8  N   UNL d   1      15.566  12.805  -0.211  0.00  0.00    -0.207 NA
ATOM      9  O   UNL d   1      16.213  11.780  -0.937  0.00  0.00    -0.265 OA
BRANCH   8  10
ATOM     10  C   UNL d   1      14.949  13.340  -0.146  0.00  0.00     0.095 A 
ATOM     11  C   UNL d   1      15.090  14.125  -0.141  0.00  0.00     0.075 A 
ATOM     12 CL   UNL d   1      15.870  14.426  -0.202  0.00  0.00    -0.081 Cl
ATOM     13  C   UNL d   1      14.467  14.679  -0.075  0.00  0.00     0.013 A 
ATOM     14  C   UNL d   1      13.686  14.378  -0.014  0.00  0.00     0.001 A 
ATOM     15  C   UNL d   1      13.556  13.572  -0.020  0.00  0.00     0.002 A 
ATOM     16  C   UNL d   1      14.163  13.057  -0.084  0.00  0.00     0.020 A 
ENDBRANCH   8  10
ENDBRANCH   1   7
BRANCH   2  17
ATOM     17  C   UNL d   1      13.341  12.490  -3.241  0.00  0.00     0.019 C 
ATOM     18  C   UNL d   1      13.673  13.200  -3.499  0.00  0.00     0.004 C 
ATOM     19  C   UNL d   1      13.011  11.783  -2.983  0.00  0.00     0.004 C 
ATOM     20  C   UNL d   1      12.774  12.537  -3.838  0.00  0.00     0.004 C 
ENDBRANCH   2  17
TORSDOF 3
ENDMDL
