MODEL 1
REMARK VINA RESULT:      -4.0      0.000      0.000
REMARK  2 active torsions:
REMARK  status: ('A' for Active; 'I' for Inactive)
REMARK    1  A    between atoms: C_6  and  N_2 
REMARK    2  A    between atoms: C_8  and  C_6 
ROOT
ATOM      1  C   UNL d   1      57.545   0.526  32.593  0.00  0.00     0.151 A 
ATOM      2  N   UNL d   1      56.854   0.193  32.297  0.00  0.00    -0.286 N 
ATOM      3  S   UNL d   1      57.421   0.682  33.384  0.00  0.00    -0.057 SA
ATOM      4  C   UNL d   1      56.317   0.147  32.901  0.00  0.00     0.071 A 
ATOM      5  C   UNL d   1      56.668   0.449  33.574  0.00  0.00     0.048 A 
ATOM      6  S   UNL d   1      58.239   0.681  32.186  0.00  0.00    -0.052 SA
ATOM      7  C   UNL d   1      55.543  -0.134  32.933  0.00  0.00     0.018 A 
ATOM      8  C   UNL d   1      56.249   0.475  34.286  0.00  0.00     0.008 A 
ATOM      9  C   UNL d   1      55.116  -0.111  33.643  0.00  0.00     0.002 A 
ATOM     10  C   UNL d   1      55.468   0.191  34.316  0.00  0.00     0.001 A 
ENDROOT
BRANCH   2  11
ATOM     11  C   UNL d   1      56.744  -0.051  31.503  0.00  0.00     0.152 C 
BRANCH  11  12
ATOM     12  C   UNL d   1      57.109  -0.732  31.214  0.00  0.00     0.230 C 
ATOM     13  O   UNL d   1      56.870  -1.479  31.485  0.00  0.00    -0.643 OA
ATOM     14  O   UNL d   1      57.707  -0.672  30.659  0.00  0.00    -0.643 OA
ENDBRANCH  11  12
ENDBRANCH   2  11
TORSDOF 2
ENDMDL
MODEL 2
REMARK VINA RESULT:      -3.7      1.828      2.960
REMARK  2 active torsions:
REMARK  status: ('A' for Active; 'I' for Inactive)
REMARK    1  A    between atoms: C_6  and  N_2 
REMARK    2  A    between atoms: C_8  and  C_6 
ROOT
ATOM      1  C   UNL d   1      56.082  -0.728  32.808  0.00  0.00     0.151 A 
ATOM      2  N   UNL d   1      56.356   0.043  32.723  0.00  0.00    -0.286 N 
ATOM      3  S   UNL d   1      56.410  -1.171  32.206  0.00  0.00    -0.057 SA
ATOM      4  C   UNL d   1      56.844   0.069  32.078  0.00  0.00     0.071 A 
ATOM      5  C   UNL d   1      56.878  -0.682  31.758  0.00  0.00     0.048 A 
ATOM      6  S   UNL d   1      55.575  -1.018  33.382  0.00  0.00    -0.052 SA
ATOM      7  C   UNL d   1      57.271   0.682  31.730  0.00  0.00     0.018 A 
ATOM      8  C   UNL d   1      57.339  -0.828  31.087  0.00  0.00     0.008 A 
ATOM      9  C   UNL d   1      57.735   0.543  31.058  0.00  0.00     0.002 A 
ATOM     10  C   UNL d   1      57.768  -0.208  30.738  0.00  0.00     0.001 A 
ENDROOT
BRANCH   2  11
ATOM     11  C   UNL d   1      56.153   0.680  33.229  0.00  0.00     0.152 C 
BRANCH  11  12
ATOM     12  C   UNL d   1      56.305   0.643  34.039  0.00  0.00     0.230 C 
ATOM     13  O   UNL d   1      55.676   0.602  34.579  0.00  0.00    -0.643 OA
ATOM     14  O   UNL d   1      57.076   0.646  34.311  0.00  0.00    -0.643 OA
ENDBRANCH  11  12
ENDBRANCH   2  11
TORSDOF 2
ENDMDL
MODEL 3
REMARK VINA RESULT:      -3.5      1.212      2.495
REMARK  2 active torsions:
REMARK  status: ('A' for Active; 'I' for Inactive)
REMARK    1  A    between atoms: C_6  and  N_2 
REMARK    2  A    between atoms: C_8  and  C_6 
ROOT
ATOM      1  C   UNL d   1      56.839   0.317  33.168  0.00  0.00     0.151 A 
ATOM      2  N   UNL d   1      56.583  -0.128  32.525  0.00  0.00    -0.286 N 
ATOM      3  S   UNL d   1      57.536   0.680  32.951  0.00  0.00    -0.057 SA
ATOM      4  C   UNL d   1      57.118  -0.036  31.925  0.00  0.00     0.071 A 
ATOM      5  C   UNL d   1      57.708   0.464  32.189  0.00  0.00     0.048 A 
ATOM      6  S   UNL d   1      56.476   0.394  33.899  0.00  0.00    -0.052 SA
ATOM      7  C   UNL d   1      57.151  -0.343  31.161  0.00  0.00     0.018 A 
ATOM      8  C   UNL d   1      58.338   0.662  31.691  0.00  0.00     0.008 A 
ATOM      9  C   UNL d   1      57.779  -0.149  30.657  0.00  0.00     0.002 A 
ATOM     10  C   UNL d   1      58.370   0.351  30.920  0.00  0.00     0.001 A 
ENDROOT
BRANCH   2  11
ATOM     11  C   UNL d   1      55.884  -0.590  32.513  0.00  0.00     0.152 C 
BRANCH  11  12
ATOM     12  C   UNL d   1      55.824  -1.281  32.962  0.00  0.00     0.230 C 
ATOM     13  O   UNL d   1      55.395  -1.280  33.672  0.00  0.00    -0.643 OA
ATOM     14  O   UNL d   1      56.190  -1.967  32.706  0.00  0.00    -0.643 OA
ENDBRANCH  11  12
ENDBRANCH   2  11
TORSDOF 2
ENDMDL
MODEL 4
REMARK VINA RESULT:      -2.7      3.885      5.115
REMARK  2 active torsions:
REMARK  status: ('A' for Active; 'I' for Inactive)
REMARK    1  A    between atoms: C_6  and  N_2 
REMARK    2  A    between atoms: C_8  and  C_6 
ROOT
ATOM      1  C   UNL d   1      60.205  -0.676  29.063  0.00  0.00     0.151 A 
ATOM      2  N   UNL d   1      59.421  -0.924  29.087  0.00  0.00    -0.286 N 
ATOM      3  S   UNL d   1      60.670  -1.344  29.003  0.00  0.00    -0.057 SA
ATOM      4  C   UNL d   1      59.410  -1.732  29.041  0.00  0.00     0.071 A 
ATOM      5  C   UNL d   1      60.183  -1.992  28.990  0.00  0.00     0.048 A 
ATOM      6  S   UNL d   1      60.488   0.092  29.093  0.00  0.00    -0.052 SA
ATOM      7  C   UNL d   1      58.793  -2.278  29.040  0.00  0.00     0.018 A 
ATOM      8  C   UNL d   1      60.347  -2.801  28.936  0.00  0.00     0.008 A 
ATOM      9  C   UNL d   1      58.949  -3.090  28.986  0.00  0.00     0.002 A 
ATOM     10  C   UNL d   1      59.722  -3.350  28.935  0.00  0.00     0.001 A 
ENDROOT
BRANCH   2  11
ATOM     11  C   UNL d   1      58.760  -0.412  29.147  0.00  0.00     0.152 C 
BRANCH  11  12
ATOM     12  C   UNL d   1      58.472  -0.178  29.884  0.00  0.00     0.230 C 
ATOM     13  O   UNL d   1      57.750  -0.477  30.163  0.00  0.00    -0.643 OA
ATOM     14  O   UNL d   1      58.898   0.351  30.341  0.00  0.00    -0.643 OA
ENDBRANCH  11  12
ENDBRANCH   2  11
TORSDOF 2
ENDMDL
MODEL 5
REMARK VINA RESULT:      -2.6      2.259      3.028
REMARK  2 active torsions:
REMARK  status: ('A' for Active; 'I' for Inactive)
REMARK    1  A    between atoms: C_6  and  N_2 
REMARK    2  A    between atoms: C_8  and  C_6 
ROOT
ATOM      1  C   UNL d   1      59.158   0.208  29.847  0.00  0.00     0.151 A 
ATOM      2  N   UNL d   1      58.556  -0.352  29.845  0.00  0.00    -0.286 N 
ATOM      3  S   UNL d   1      59.050   0.680  30.503  0.00  0.00    -0.057 SA
ATOM      4  C   UNL d   1      58.088  -0.222  30.493  0.00  0.00     0.071 A 
ATOM      5  C   UNL d   1      58.394   0.417  30.900  0.00  0.00     0.048 A 
ATOM      6  S   UNL d   1      59.762   0.294  29.300  0.00  0.00    -0.052 SA
ATOM      7  C   UNL d   1      57.413  -0.603  30.775  0.00  0.00     0.018 A 
ATOM      8  C   UNL d   1      58.029   0.682  31.593  0.00  0.00     0.008 A 
ATOM      9  C   UNL d   1      57.043  -0.343  31.469  0.00  0.00     0.002 A 
ATOM     10  C   UNL d   1      57.349   0.296  31.876  0.00  0.00     0.001 A 
ENDROOT
BRANCH   2  11
ATOM     11  C   UNL d   1      58.459  -0.948  29.264  0.00  0.00     0.152 C 
BRANCH  11  12
ATOM     12  C   UNL d   1      58.899  -1.646  29.295  0.00  0.00     0.230 C 
ATOM     13  O   UNL d   1      58.545  -2.350  29.556  0.00  0.00    -0.643 OA
ATOM     14  O   UNL d   1      59.685  -1.644  29.070  0.00  0.00    -0.643 OA
ENDBRANCH  11  12
ENDBRANCH   2  11
TORSDOF 2
ENDMDL
MODEL 6
REMARK VINA RESULT:      -2.5      3.964      4.733
REMARK  2 active torsions:
REMARK  status: ('A' for Active; 'I' for Inactive)
REMARK    1  A    between atoms: C_6  and  N_2 
REMARK    2  A    between atoms: C_8  and  C_6 
ROOT
ATOM      1  C   UNL d   1      60.454  -1.221  28.823  0.00  0.00     0.151 A 
ATOM      2  N   UNL d   1      59.657  -1.411  28.895  0.00  0.00    -0.286 N 
ATOM      3  S   UNL d   1      60.567  -0.501  29.190  0.00  0.00    -0.057 SA
ATOM      4  C   UNL d   1      59.290  -0.814  29.300  0.00  0.00     0.071 A 
ATOM      5  C   UNL d   1      59.854  -0.251  29.483  0.00  0.00     0.048 A 
ATOM      6  S   UNL d   1      61.041  -1.659  28.455  0.00  0.00    -0.052 SA
ATOM      7  C   UNL d   1      58.508  -0.702  29.533  0.00  0.00     0.018 A 
ATOM      8  C   UNL d   1      59.641   0.430  29.901  0.00  0.00     0.008 A 
ATOM      9  C   UNL d   1      58.287  -0.022  29.952  0.00  0.00     0.002 A 
ATOM     10  C   UNL d   1      58.850   0.541  30.135  0.00  0.00     0.001 A 
ENDROOT
BRANCH   2  11
ATOM     11  C   UNL d   1      59.303  -2.108  28.592  0.00  0.00     0.152 C 
BRANCH  11  12
ATOM     12  C   UNL d   1      59.232  -2.784  29.061  0.00  0.00     0.230 C 
ATOM     13  O   UNL d   1      58.481  -3.072  29.264  0.00  0.00    -0.643 OA
ATOM     14  O   UNL d   1      59.902  -3.171  29.325  0.00  0.00    -0.643 OA
ENDBRANCH  11  12
ENDBRANCH   2  11
TORSDOF 2
ENDMDL
MODEL 7
REMARK VINA RESULT:      -2.1      9.030      9.414
REMARK  2 active torsions:
REMARK  status: ('A' for Active; 'I' for Inactive)
REMARK    1  A    between atoms: C_6  and  N_2 
REMARK    2  A    between atoms: C_8  and  C_6 
ROOT
ATOM      1  C   UNL d   1      59.332  -7.396  35.588  0.00  0.00     0.151 A 
ATOM      2  N   UNL d   1      60.078  -7.481  35.923  0.00  0.00    -0.286 N 
ATOM      3  S   UNL d   1      59.134  -8.111  35.248  0.00  0.00    -0.057 SA
ATOM      4  C   UNL d   1      60.331  -8.238  35.789  0.00  0.00     0.071 A 
ATOM      5  C   UNL d   1      59.747  -8.628  35.371  0.00  0.00     0.048 A 
ATOM      6  S   UNL d   1      58.859  -6.727  35.584  0.00  0.00    -0.052 SA
ATOM      7  C   UNL d   1      61.024  -8.635  35.992  0.00  0.00     0.018 A 
ATOM      8  C   UNL d   1      59.849  -9.419  35.152  0.00  0.00     0.008 A 
ATOM      9  C   UNL d   1      61.133  -9.428  35.776  0.00  0.00     0.002 A 
ATOM     10  C   UNL d   1      60.549  -9.818  35.359  0.00  0.00     0.001 A 
ENDROOT
BRANCH   2  11
ATOM     11  C   UNL d   1      60.490  -6.876  36.330  0.00  0.00     0.152 C 
BRANCH  11  12
ATOM     12  C   UNL d   1      60.731  -6.190  35.939  0.00  0.00     0.230 C 
ATOM     13  O   UNL d   1      60.566  -5.445  36.265  0.00  0.00    -0.643 OA
ATOM     14  O   UNL d   1      61.133  -6.244  35.228  0.00  0.00    -0.643 OA
ENDBRANCH  11  12
ENDBRANCH   2  11
TORSDOF 2
ENDMDL
MODEL 8
REMARK VINA RESULT:      -1.9      5.054      5.862
REMARK  2 active torsions:
REMARK  status: ('A' for Active; 'I' for Inactive)
REMARK    1  A    between atoms: C_6  and  N_2 
REMARK    2  A    between atoms: C_8  and  C_6 
ROOT
ATOM      1  C   UNL d   1      59.299  -3.003  28.650  0.00  0.00     0.151 A 
ATOM      2  N   UNL d   1      60.056  -2.684  28.701  0.00  0.00    -0.286 N 
ATOM      3  S   UNL d   1      58.770  -2.395  28.774  0.00  0.00    -0.057 SA
ATOM      4  C   UNL d   1      59.987  -1.893  28.853  0.00  0.00     0.071 A 
ATOM      5  C   UNL d   1      59.191  -1.713  28.898  0.00  0.00     0.048 A 
ATOM      6  S   UNL d   1      59.094  -3.782  28.504  0.00  0.00    -0.052 SA
ATOM      7  C   UNL d   1      60.548  -1.298  28.959  0.00  0.00     0.018 A 
ATOM      8  C   UNL d   1      58.948  -0.937  29.050  0.00  0.00     0.008 A 
ATOM      9  C   UNL d   1      60.311  -0.519  29.112  0.00  0.00     0.002 A 
ATOM     10  C   UNL d   1      59.516  -0.339  29.157  0.00  0.00     0.001 A 
ENDROOT
BRANCH   2  11
ATOM     11  C   UNL d   1      60.765  -3.122  28.607  0.00  0.00     0.152 C 
BRANCH  11  12
ATOM     12  C   UNL d   1      61.009  -3.661  29.182  0.00  0.00     0.230 C 
ATOM     13  O   UNL d   1      61.132  -4.457  28.981  0.00  0.00    -0.643 OA
ATOM     14  O   UNL d   1      61.130  -3.412  29.952  0.00  0.00    -0.643 OA
ENDBRANCH  11  12
ENDBRANCH   2  11
TORSDOF 2
ENDMDL
MODEL 9
REMARK VINA RESULT:      -1.8      3.553      4.485
REMARK  2 active torsions:
REMARK  status: ('A' for Active; 'I' for Inactive)
REMARK    1  A    between atoms: C_6  and  N_2 
REMARK    2  A    between atoms: C_8  and  C_6 
ROOT
ATOM      1  C   UNL d   1      59.055  -1.625  29.021  0.00  0.00     0.151 A 
ATOM      2  N   UNL d   1      59.321  -0.847  28.989  0.00  0.00    -0.286 N 
ATOM      3  S   UNL d   1      58.463  -1.657  29.581  0.00  0.00    -0.057 SA
ATOM      4  C   UNL d   1      58.897  -0.413  29.524  0.00  0.00     0.071 A 
ATOM      5  C   UNL d   1      58.366  -0.914  29.890  0.00  0.00     0.048 A 
ATOM      6  S   UNL d   1      59.320  -2.263  28.580  0.00  0.00    -0.052 SA
ATOM      7  C   UNL d   1      58.919   0.384  29.733  0.00  0.00     0.018 A 
ATOM      8  C   UNL d   1      57.851  -0.624  30.470  0.00  0.00     0.008 A 
ATOM      9  C   UNL d   1      58.407   0.682  30.312  0.00  0.00     0.002 A 
ATOM     10  C   UNL d   1      57.876   0.181  30.679  0.00  0.00     0.001 A 
ENDROOT
BRANCH   2  11
ATOM     11  C   UNL d   1      59.929  -0.571  28.483  0.00  0.00     0.152 C 
BRANCH  11  12
ATOM     12  C   UNL d   1      60.711  -0.530  28.743  0.00  0.00     0.230 C 
ATOM     13  O   UNL d   1      61.099   0.203  28.783  0.00  0.00    -0.643 OA
ATOM     14  O   UNL d   1      61.106  -1.212  28.963  0.00  0.00    -0.643 OA
ENDBRANCH  11  12
ENDBRANCH   2  11
TORSDOF 2
ENDMDL
