MODEL 1
REMARK VINA RESULT:      -1.1      0.000      0.000
REMARK  6 active torsions:
REMARK  status: ('A' for Active; 'I' for Inactive)
REMARK    1  A    between atoms: C_2  and  S_1 
REMARK    2  A    between atoms: N_3  and  S_1 
REMARK    3  A    between atoms: C_9  and  N_3 
REMARK    4  A    between atoms: C_13  and  C_7 
REMARK    5  A    between atoms: O_14  and  C_8 
REMARK    6  A    between atoms: C_20  and  O_14 
ROOT
ATOM      1  C   UNL d   1     -41.373-122.499 -52.340  0.00  0.00     0.128 A 
ATOM      2  C   UNL d   1     -41.537-123.030 -52.951  0.00  0.00     0.015 A 
ATOM      3  C   UNL d   1     -41.653-122.752 -53.720  0.00  0.00     0.001 A 
ATOM      4  C   UNL d   1     -41.326-121.696 -52.502  0.00  0.00     0.112 A 
ATOM      5  C   UNL d   1     -41.604-121.943 -53.876  0.00  0.00     0.002 A 
ATOM      6  C   UNL d   1     -41.440-121.413 -53.264  0.00  0.00     0.025 A 
ENDROOT
BRANCH   1   7
ATOM      7  S   UNL d   1     -41.260-122.783 -51.578  0.00  0.00     0.287 S 
ATOM      8  O   UNL d   1     -41.135-122.024 -51.302  0.00  0.00    -0.198 OA
ATOM      9  O   UNL d   1     -41.384-123.550 -51.852  0.00  0.00    -0.198 OA
BRANCH   7  10
ATOM     10  N   UNL d   1     -41.146-123.075 -50.814  0.00  0.00    -0.157 NA
BRANCH  10  11
ATOM     11  C   UNL d   1     -41.796-123.182 -50.316  0.00  0.00     0.113 A 
ATOM     12  C   UNL d   1     -42.387-123.708 -50.520  0.00  0.00     0.119 A 
ATOM     13  N   UNL d   1     -43.036-123.815 -50.022  0.00  0.00    -0.241 NA
ATOM     14  C   UNL d   1     -43.091-123.388 -49.310  0.00  0.00     0.099 A 
ATOM     15  C   UNL d   1     -42.488-122.858 -49.110  0.00  0.00     0.022 A 
ATOM     16  C   UNL d   1     -41.840-122.751 -49.608  0.00  0.00     0.023 A 
ENDBRANCH  10  11
ENDBRANCH   7  10
ENDBRANCH   1   7
BRANCH   4  17
ATOM     17  O   UNL d   1     -41.162-121.165 -51.890  0.00  0.00    -0.304 OA
BRANCH  17  18
ATOM     18  C   UNL d   1     -41.378-120.372 -51.961  0.00  0.00     0.123 C 
ATOM     19  C   UNL d   1     -41.145-119.826 -51.386  0.00  0.00     0.029 C 
ENDBRANCH  17  18
ENDBRANCH   4  17
BRANCH   3  20
ATOM     20  C   UNL d   1     -41.817-123.283 -54.332  0.00  0.00     0.000 C 
ATOM     21  C   UNL d   1     -41.236-123.809 -54.591  0.00  0.00     0.000 C 
ATOM     22  C   UNL d   1     -42.570-123.286 -54.686  0.00  0.00     0.000 C 
ENDBRANCH   3  20
TORSDOF 6
ENDMDL
MODEL 2
REMARK VINA RESULT:      -0.1      1.698      3.996
REMARK  6 active torsions:
REMARK  status: ('A' for Active; 'I' for Inactive)
REMARK    1  A    between atoms: C_2  and  S_1 
REMARK    2  A    between atoms: N_3  and  S_1 
REMARK    3  A    between atoms: C_9  and  N_3 
REMARK    4  A    between atoms: C_13  and  C_7 
REMARK    5  A    between atoms: O_14  and  C_8 
REMARK    6  A    between atoms: C_20  and  O_14 
ROOT
ATOM      1  C   UNL d   1     -41.656-121.727 -52.485  0.00  0.00     0.128 A 
ATOM      2  C   UNL d   1     -41.554-120.914 -52.594  0.00  0.00     0.015 A 
ATOM      3  C   UNL d   1     -41.288-120.443 -51.971  0.00  0.00     0.001 A 
ATOM      4  C   UNL d   1     -41.491-122.061 -51.753  0.00  0.00     0.112 A 
ATOM      5  C   UNL d   1     -41.124-120.786 -51.238  0.00  0.00     0.002 A 
ATOM      6  C   UNL d   1     -41.226-121.598 -51.129  0.00  0.00     0.025 A 
ENDROOT
BRANCH   1   7
ATOM      7  S   UNL d   1     -41.920-122.189 -53.109  0.00  0.00     0.287 S 
ATOM      8  O   UNL d   1     -42.679-121.902 -53.015  0.00  0.00    -0.198 OA
ATOM      9  O   UNL d   1     -41.155-122.481 -53.208  0.00  0.00    -0.198 OA
BRANCH   7  10
ATOM     10  N   UNL d   1     -42.179-122.657 -53.738  0.00  0.00    -0.157 NA
BRANCH  10  11
ATOM     11  C   UNL d   1     -42.129-122.370 -54.510  0.00  0.00     0.113 A 
ATOM     12  C   UNL d   1     -41.399-122.284 -54.869  0.00  0.00     0.119 A 
ATOM     13  N   UNL d   1     -41.350-121.998 -55.641  0.00  0.00    -0.241 NA
ATOM     14  C   UNL d   1     -42.042-121.795 -56.057  0.00  0.00     0.099 A 
ATOM     15  C   UNL d   1     -42.776-121.884 -55.687  0.00  0.00     0.022 A 
ATOM     16  C   UNL d   1     -42.825-122.171 -54.915  0.00  0.00     0.023 A 
ENDBRANCH  10  11
ENDBRANCH   7  10
ENDBRANCH   1   7
BRANCH   4  17
ATOM     17  O   UNL d   1     -41.592-122.874 -51.644  0.00  0.00    -0.304 OA
BRANCH  17  18
ATOM     18  C   UNL d   1     -41.498-123.205 -50.894  0.00  0.00     0.123 C 
ATOM     19  C   UNL d   1     -41.996-123.817 -50.647  0.00  0.00     0.029 C 
ENDBRANCH  17  18
ENDBRANCH   4  17
BRANCH   3  20
ATOM     20  C   UNL d   1     -41.186-119.629 -52.080  0.00  0.00     0.000 C 
ATOM     21  C   UNL d   1     -41.123-119.130 -51.427  0.00  0.00     0.000 C 
ATOM     22  C   UNL d   1     -41.149-119.318 -52.850  0.00  0.00     0.000 C 
ENDBRANCH   3  20
TORSDOF 6
ENDMDL
MODEL 3
REMARK VINA RESULT:       1.1      1.398      3.785
REMARK  6 active torsions:
REMARK  status: ('A' for Active; 'I' for Inactive)
REMARK    1  A    between atoms: C_2  and  S_1 
REMARK    2  A    between atoms: N_3  and  S_1 
REMARK    3  A    between atoms: C_9  and  N_3 
REMARK    4  A    between atoms: C_13  and  C_7 
REMARK    5  A    between atoms: O_14  and  C_8 
REMARK    6  A    between atoms: C_20  and  O_14 
ROOT
ATOM      1  C   UNL d   1     -42.209-122.782 -50.579  0.00  0.00     0.128 A 
ATOM      2  C   UNL d   1     -42.957-122.460 -50.719  0.00  0.00     0.015 A 
ATOM      3  C   UNL d   1     -43.507-122.408 -50.105  0.00  0.00     0.001 A 
ATOM      4  C   UNL d   1     -42.018-123.050 -49.827  0.00  0.00     0.112 A 
ATOM      5  C   UNL d   1     -43.307-122.679 -49.352  0.00  0.00     0.002 A 
ATOM      6  C   UNL d   1     -42.560-123.002 -49.212  0.00  0.00     0.025 A 
ENDROOT
BRANCH   1   7
ATOM      7  S   UNL d   1     -41.668-122.831 -51.194  0.00  0.00     0.287 S 
ATOM      8  O   UNL d   1     -41.442-122.055 -51.071  0.00  0.00    -0.198 OA
ATOM      9  O   UNL d   1     -41.893-123.614 -51.321  0.00  0.00    -0.198 OA
BRANCH   7  10
ATOM     10  N   UNL d   1     -41.125-122.887 -51.813  0.00  0.00    -0.157 NA
BRANCH  10  11
ATOM     11  C   UNL d   1     -41.375-122.759 -52.590  0.00  0.00     0.113 A 
ATOM     12  C   UNL d   1     -41.597-122.009 -52.831  0.00  0.00     0.119 A 
ATOM     13  N   UNL d   1     -41.847-121.882 -53.607  0.00  0.00    -0.241 NA
ATOM     14  C   UNL d   1     -41.873-122.514 -54.146  0.00  0.00     0.099 A 
ATOM     15  C   UNL d   1     -41.646-123.269 -53.895  0.00  0.00     0.022 A 
ATOM     16  C   UNL d   1     -41.397-123.396 -53.119  0.00  0.00     0.023 A 
ENDBRANCH  10  11
ENDBRANCH   7  10
ENDBRANCH   1   7
BRANCH   4  17
ATOM     17  O   UNL d   1     -41.270-123.373 -49.687  0.00  0.00    -0.304 OA
BRANCH  17  18
ATOM     18  C   UNL d   1     -41.132-123.817 -49.006  0.00  0.00     0.123 C 
ATOM     19  C   UNL d   1     -41.123-123.449 -48.266  0.00  0.00     0.029 C 
ENDBRANCH  17  18
ENDBRANCH   4  17
BRANCH   3  20
ATOM     20  C   UNL d   1     -44.255-122.085 -50.245  0.00  0.00     0.000 C 
ATOM     21  C   UNL d   1     -44.922-122.569 -50.235  0.00  0.00     0.000 C 
ATOM     22  C   UNL d   1     -44.332-121.270 -50.396  0.00  0.00     0.000 C 
ENDBRANCH   3  20
TORSDOF 6
ENDMDL
