MODEL 1
REMARK VINA RESULT:      -5.1      0.000      0.000
REMARK  4 active torsions:
REMARK  status: ('A' for Active; 'I' for Inactive)
REMARK    1  A    between atoms: C_8  and  N_2 
REMARK    2  A    between atoms: C_7  and  O_14 
REMARK    3  A    between atoms: C_15  and  C_8 
REMARK    4  A    between atoms: O_14  and  C_15 
ROOT
ATOM      1  C   UNL d   1      57.199   0.281  31.301  0.00  0.00     0.108 C 
ENDROOT
BRANCH   1   2
ATOM      2  N   UNL d   1      56.806  -0.264  31.790  0.00  0.00    -0.285 N 
ATOM      3  C   UNL d   1      56.871  -1.139  31.781  0.00  0.00     0.183 A 
ATOM      4  N   UNL d   1      56.330  -1.415  32.419  0.00  0.00    -0.224 NA
ATOM      5  C   UNL d   1      55.961  -0.770  32.793  0.00  0.00     0.099 A 
ATOM      6  C   UNL d   1      56.234  -0.042  32.426  0.00  0.00     0.083 A 
ATOM      7  C   UNL d   1      55.444  -0.738  33.380  0.00  0.00     0.021 A 
ATOM      8  C   UNL d   1      55.970   0.661  32.675  0.00  0.00     0.019 A 
ATOM      9  C   UNL d   1      55.399   0.682  33.325  0.00  0.00     0.002 A 
ATOM     10  C   UNL d   1      55.137  -0.016  33.676  0.00  0.00     0.002 A 
ENDBRANCH   1   2
BRANCH   1  11
ATOM     11  C   UNL d   1      57.802   0.050  30.808  0.00  0.00     0.142 C 
BRANCH  11  12
ATOM     12  O   UNL d   1      58.110   0.585  30.259  0.00  0.00    -0.304 OA
BRANCH  12  13
ATOM     13  C   UNL d   1      58.783   0.392  29.811  0.00  0.00     0.100 A 
ATOM     14  C   UNL d   1      59.528   0.610  30.088  0.00  0.00     0.026 A 
ATOM     15  C   UNL d   1      60.209   0.436  29.672  0.00  0.00     0.013 A 
ATOM     16  C   UNL d   1      60.165   0.022  28.937  0.00  0.00     0.058 A 
ATOM     17  C   UNL d   1      59.402  -0.196  28.665  0.00  0.00     0.013 A 
ATOM     18 CL   UNL d   1      60.875  -0.155  28.514  0.00  0.00    -0.082 Cl
ATOM     19  C   UNL d   1      58.729  -0.013  29.095  0.00  0.00     0.026 A 
ENDBRANCH  12  13
ENDBRANCH  11  12
ENDBRANCH   1  11
TORSDOF 4
ENDMDL
MODEL 2
REMARK VINA RESULT:      -4.6      2.200      4.989
REMARK  4 active torsions:
REMARK  status: ('A' for Active; 'I' for Inactive)
REMARK    1  A    between atoms: C_8  and  N_2 
REMARK    2  A    between atoms: C_7  and  O_14 
REMARK    3  A    between atoms: C_15  and  C_8 
REMARK    4  A    between atoms: O_14  and  C_15 
ROOT
ATOM      1  C   UNL d   1      58.155  -0.099  30.304  0.00  0.00     0.108 C 
ENDROOT
BRANCH   1   2
ATOM      2  N   UNL d   1      58.954   0.108  30.213  0.00  0.00    -0.285 N 
ATOM      3  C   UNL d   1      59.419   0.682  30.688  0.00  0.00     0.183 A 
ATOM      4  N   UNL d   1      60.227   0.667  30.336  0.00  0.00    -0.224 NA
ATOM      5  C   UNL d   1      60.263   0.133  29.700  0.00  0.00     0.099 A 
ATOM      6  C   UNL d   1      59.490  -0.230  29.597  0.00  0.00     0.083 A 
ATOM      7  C   UNL d   1      60.851  -0.067  29.224  0.00  0.00     0.021 A 
ATOM      8  C   UNL d   1      59.367  -0.765  29.027  0.00  0.00     0.019 A 
ATOM      9  C   UNL d   1      60.026  -0.976  28.508  0.00  0.00     0.002 A 
ATOM     10  C   UNL d   1      60.766  -0.628  28.606  0.00  0.00     0.002 A 
ENDBRANCH   1   2
BRANCH   1  11
ATOM     11  C   UNL d   1      57.790  -0.071  31.029  0.00  0.00     0.142 C 
BRANCH  11  12
ATOM     12  O   UNL d   1      56.998  -0.297  31.098  0.00  0.00    -0.304 OA
BRANCH  12  13
ATOM     13  C   UNL d   1      56.599  -0.225  31.824  0.00  0.00     0.100 A 
ATOM     14  C   UNL d   1      56.388  -0.905  32.239  0.00  0.00     0.026 A 
ATOM     15  C   UNL d   1      55.995  -0.868  32.954  0.00  0.00     0.013 A 
ATOM     16  C   UNL d   1      55.792  -0.119  33.290  0.00  0.00     0.058 A 
ATOM     17  C   UNL d   1      56.012   0.567  32.859  0.00  0.00     0.013 A 
ATOM     18 CL   UNL d   1      55.385  -0.090  34.030  0.00  0.00    -0.082 Cl
ATOM     19  C   UNL d   1      56.406   0.511  32.143  0.00  0.00     0.026 A 
ENDBRANCH  12  13
ENDBRANCH  11  12
ENDBRANCH   1  11
TORSDOF 4
ENDMDL
