MODEL 1
REMARK VINA RESULT:     104.9      0.000      0.000
REMARK  5 active torsions:
REMARK  status: ('A' for Active; 'I' for Inactive)
REMARK    1  A    between atoms: N_12  and  C_5 
REMARK    2  A    between atoms: C_21  and  N_9 
REMARK    3  A    between atoms: C_10  and  S_20 
REMARK    4  A    between atoms: S_20  and  C_26 
REMARK    5  A    between atoms: C_26  and  C_21 
ROOT
ATOM      1  C   UNL d   1     -50.191  24.585  33.396  0.00  0.00     0.191 A 
ATOM      2  C   UNL d   1     -49.913  25.354  33.462  0.00  0.00     0.173 A 
ATOM      3  N   UNL d   1     -51.013  24.612  33.358  0.00  0.00    -0.042 NA
ATOM      4  N   UNL d   1     -49.661  23.958  33.379  0.00  0.00    -0.240 N 
ATOM      5  C   UNL d   1     -51.239  25.401  33.401  0.00  0.00     0.722 A 
ATOM      6  N   UNL d   1     -48.570  24.866  33.494  0.00  0.00    -0.223 N 
ATOM      7  C   UNL d   1     -48.848  24.097  33.428  0.00  0.00     0.343 A 
ATOM      8  C   UNL d   1     -49.104  25.499  33.511  0.00  0.00     0.288 A 
ATOM      9  N   UNL d   1     -50.560  25.866  33.466  0.00  0.00    -0.132 N 
ATOM     10  O   UNL d   1     -48.314  23.456  33.410  0.00  0.00    -0.245 OA
ATOM     11  O   UNL d   1     -48.823  26.276  33.577  0.00  0.00    -0.265 OA
ATOM     12  C   UNL d   1     -49.938  23.189  33.313  0.00  0.00     0.105 C 
ATOM     13  C   UNL d   1     -47.762  25.007  33.542  0.00  0.00     0.107 C 
ENDROOT
BRANCH   9  14
ATOM     14  C   UNL d   1     -50.536  26.688  33.523  0.00  0.00     0.105 C 
BRANCH  14  15
ATOM     15  C   UNL d   1     -49.887  27.064  33.879  0.00  0.00     0.057 C 
BRANCH  15  16
ATOM     16  S   UNL d   1     -49.985  27.821  34.213  0.00  0.00    -0.059 SA
BRANCH  16  17
ATOM     17  C   UNL d   1     -49.336  28.192  34.585  0.00  0.00     0.141 A 
ATOM     18  N   UNL d   1     -49.391  28.420  35.367  0.00  0.00    -0.232 NA
ATOM     19  C   UNL d   1     -48.685  28.763  35.583  0.00  0.00     0.088 A 
ATOM     20  C   UNL d   1     -48.434  29.090  36.302  0.00  0.00     0.020 A 
ATOM     21  C   UNL d   1     -48.186  28.754  34.944  0.00  0.00     0.049 A 
ATOM     22  C   UNL d   1     -47.671  29.408  36.367  0.00  0.00     0.002 A 
ATOM     23  C   UNL d   1     -47.174  29.396  35.725  0.00  0.00     0.001 A 
ATOM     24  C   UNL d   1     -47.430  29.068  35.006  0.00  0.00     0.008 A 
ATOM     25  S   UNL d   1     -48.597  28.391  34.307  0.00  0.00    -0.060 SA
ENDBRANCH  16  17
ENDBRANCH  15  16
ENDBRANCH  14  15
ENDBRANCH   9  14
BRANCH   5  26
ATOM     26  N   UNL d   1     -52.025  25.639  33.380  0.00  0.00    -0.139 N 
ATOM     27  C   UNL d   1     -52.628  25.088  33.406  0.00  0.00     0.098 A 
ATOM     28  C   UNL d   1     -53.425  25.329  33.384  0.00  0.00     0.020 A 
ATOM     29  C   UNL d   1     -53.601  26.141  33.334  0.00  0.00     0.003 A 
ATOM     30  C   UNL d   1     -52.995  26.691  33.308  0.00  0.00     0.020 A 
ATOM     31  C   UNL d   1     -54.390  26.380  33.313  0.00  0.00     0.000 C 
ATOM     32  C   UNL d   1     -52.208  26.440  33.330  0.00  0.00     0.098 A 
ENDBRANCH   5  26
TORSDOF 5
ENDMDL
MODEL 2
REMARK VINA RESULT:     106.4      1.997      4.995
REMARK  5 active torsions:
REMARK  status: ('A' for Active; 'I' for Inactive)
REMARK    1  A    between atoms: N_12  and  C_5 
REMARK    2  A    between atoms: C_21  and  N_9 
REMARK    3  A    between atoms: C_10  and  S_20 
REMARK    4  A    between atoms: S_20  and  C_26 
REMARK    5  A    between atoms: C_26  and  C_21 
ROOT
ATOM      1  C   UNL d   1     -48.396  28.937  36.183  0.00  0.00     0.191 A 
ATOM      2  C   UNL d   1     -48.518  28.508  35.495  0.00  0.00     0.173 A 
ATOM      3  N   UNL d   1     -48.888  28.631  36.769  0.00  0.00    -0.042 NA
ATOM      4  N   UNL d   1     -47.851  29.553  36.191  0.00  0.00    -0.240 N 
ATOM      5  C   UNL d   1     -49.314  28.011  36.436  0.00  0.00     0.722 A 
ATOM      6  N   UNL d   1     -47.549  29.313  34.820  0.00  0.00    -0.223 N 
ATOM      7  C   UNL d   1     -47.427  29.742  35.508  0.00  0.00     0.343 A 
ATOM      8  C   UNL d   1     -48.097  28.692  34.812  0.00  0.00     0.288 A 
ATOM      9  N   UNL d   1     -49.088  27.931  35.646  0.00  0.00    -0.132 N 
ATOM     10  O   UNL d   1     -46.875  30.368  35.522  0.00  0.00    -0.245 OA
ATOM     11  O   UNL d   1     -48.221  28.258  34.116  0.00  0.00    -0.265 OA
ATOM     12  C   UNL d   1     -47.729  29.982  36.879  0.00  0.00     0.105 C 
ATOM     13  C   UNL d   1     -47.128  29.499  34.140  0.00  0.00     0.107 C 
ENDROOT
BRANCH   9  14
ATOM     14  C   UNL d   1     -49.380  27.376  35.111  0.00  0.00     0.105 C 
BRANCH  14  15
ATOM     15  C   UNL d   1     -49.948  27.597  34.547  0.00  0.00     0.057 C 
BRANCH  15  16
ATOM     16  S   UNL d   1     -49.955  27.222  33.803  0.00  0.00    -0.059 SA
BRANCH  16  17
ATOM     17  C   UNL d   1     -50.439  26.552  33.686  0.00  0.00     0.141 A 
ATOM     18  N   UNL d   1     -51.248  26.642  33.618  0.00  0.00    -0.232 NA
ATOM     19  C   UNL d   1     -51.578  25.905  33.508  0.00  0.00     0.088 A 
ATOM     20  C   UNL d   1     -52.366  25.670  33.408  0.00  0.00     0.020 A 
ATOM     21  C   UNL d   1     -50.984  25.353  33.507  0.00  0.00     0.049 A 
ATOM     22  C   UNL d   1     -52.547  24.867  33.306  0.00  0.00     0.002 A 
ATOM     23  C   UNL d   1     -51.950  24.317  33.306  0.00  0.00     0.001 A 
ATOM     24  C   UNL d   1     -51.162  24.558  33.407  0.00  0.00     0.008 A 
ATOM     25  S   UNL d   1     -50.259  25.761  33.620  0.00  0.00    -0.060 SA
ENDBRANCH  16  17
ENDBRANCH  15  16
ENDBRANCH  14  15
ENDBRANCH   9  14
BRANCH   5  26
ATOM     26  N   UNL d   1     -49.863  27.573  36.861  0.00  0.00    -0.139 N 
ATOM     27  C   UNL d   1     -50.221  27.886  37.526  0.00  0.00     0.098 A 
ATOM     28  C   UNL d   1     -50.779  27.442  37.957  0.00  0.00     0.020 A 
ATOM     29  C   UNL d   1     -50.967  26.672  37.702  0.00  0.00     0.003 A 
ATOM     30  C   UNL d   1     -50.607  26.361  37.036  0.00  0.00     0.020 A 
ATOM     31  C   UNL d   1     -51.519  26.232  38.129  0.00  0.00     0.000 C 
ATOM     32  C   UNL d   1     -50.056  26.811  36.616  0.00  0.00     0.098 A 
ENDBRANCH   5  26
TORSDOF 5
ENDMDL
MODEL 3
REMARK VINA RESULT:     107.1      3.122      4.200
REMARK  5 active torsions:
REMARK  status: ('A' for Active; 'I' for Inactive)
REMARK    1  A    between atoms: N_12  and  C_5 
REMARK    2  A    between atoms: C_21  and  N_9 
REMARK    3  A    between atoms: C_10  and  S_20 
REMARK    4  A    between atoms: S_20  and  C_26 
REMARK    5  A    between atoms: C_26  and  C_21 
ROOT
ATOM      1  C   UNL d   1     -50.195  26.213  34.082  0.00  0.00     0.191 A 
ATOM      2  C   UNL d   1     -50.647  26.513  34.697  0.00  0.00     0.173 A 
ATOM      3  N   UNL d   1     -50.619  25.603  33.725  0.00  0.00    -0.042 NA
ATOM      4  N   UNL d   1     -49.455  26.533  33.924  0.00  0.00    -0.240 N 
ATOM      5  C   UNL d   1     -51.334  25.530  34.125  0.00  0.00     0.722 A 
ATOM      6  N   UNL d   1     -49.615  27.455  34.996  0.00  0.00    -0.223 N 
ATOM      7  C   UNL d   1     -49.163  27.155  34.381  0.00  0.00     0.343 A 
ATOM      8  C   UNL d   1     -50.361  27.134  35.157  0.00  0.00     0.288 A 
ATOM      9  N   UNL d   1     -51.356  26.092  34.729  0.00  0.00    -0.132 N 
ATOM     10  O   UNL d   1     -48.410  27.475  34.215  0.00  0.00    -0.245 OA
ATOM     11  O   UNL d   1     -50.818  27.437  35.778  0.00  0.00    -0.265 OA
ATOM     12  C   UNL d   1     -49.003  26.233  33.309  0.00  0.00     0.105 C 
ATOM     13  C   UNL d   1     -49.327  28.074  35.453  0.00  0.00     0.107 C 
ENDROOT
BRANCH   9  14
ATOM     14  C   UNL d   1     -51.974  26.209  35.262  0.00  0.00     0.105 C 
BRANCH  14  15
ATOM     15  C   UNL d   1     -51.947  25.861  36.016  0.00  0.00     0.057 C 
BRANCH  15  16
ATOM     16  S   UNL d   1     -52.277  26.265  36.666  0.00  0.00    -0.059 SA
BRANCH  16  17
ATOM     17  C   UNL d   1     -52.360  25.869  37.395  0.00  0.00     0.141 A 
ATOM     18  N   UNL d   1     -52.926  25.285  37.479  0.00  0.00    -0.232 NA
ATOM     19  C   UNL d   1     -52.885  24.996  38.239  0.00  0.00     0.088 A 
ATOM     20  C   UNL d   1     -53.322  24.407  38.624  0.00  0.00     0.020 A 
ATOM     21  C   UNL d   1     -52.298  25.392  38.635  0.00  0.00     0.049 A 
ATOM     22  C   UNL d   1     -53.159  24.223  39.415  0.00  0.00     0.002 A 
ATOM     23  C   UNL d   1     -52.571  24.621  39.808  0.00  0.00     0.001 A 
ATOM     24  C   UNL d   1     -52.136  25.211  39.419  0.00  0.00     0.008 A 
ATOM     25  S   UNL d   1     -51.963  25.948  38.102  0.00  0.00    -0.060 SA
ENDBRANCH  16  17
ENDBRANCH  15  16
ENDBRANCH  14  15
ENDBRANCH   9  14
BRANCH   5  26
ATOM     26  N   UNL d   1     -51.901  24.973  33.919  0.00  0.00    -0.139 N 
ATOM     27  C   UNL d   1     -52.578  25.196  33.520  0.00  0.00     0.098 A 
ATOM     28  C   UNL d   1     -53.154  24.631  33.312  0.00  0.00     0.020 A 
ATOM     29  C   UNL d   1     -53.031  23.834  33.516  0.00  0.00     0.003 A 
ATOM     30  C   UNL d   1     -52.352  23.613  33.916  0.00  0.00     0.020 A 
ATOM     31  C   UNL d   1     -53.601  23.274  33.309  0.00  0.00     0.000 C 
ATOM     32  C   UNL d   1     -51.788  24.182  34.117  0.00  0.00     0.098 A 
ENDBRANCH   5  26
TORSDOF 5
ENDMDL
