MODEL 1
REMARK VINA RESULT:      -2.5      0.000      0.000
REMARK  4 active torsions:
REMARK  status: ('A' for Active; 'I' for Inactive)
REMARK    1  A    between atoms: N_4  and  C_1 
REMARK    2  A    between atoms: S_8  and  C_2 
REMARK    3  A    between atoms: N_6  and  C_9 
REMARK    4  A    between atoms: C_16  and  S_8 
ROOT
ATOM      1  S   UNL d   1      30.220  17.126 -25.066  0.00  0.00    -0.066 SA
ENDROOT
BRANCH   1   2
ATOM      2  C   UNL d   1      29.546  16.798 -24.718  0.00  0.00     0.136 A 
ATOM      3  C   UNL d   1      28.855  17.133 -24.416  0.00  0.00     0.232 A 
ATOM      4  N   UNL d   1      28.387  16.503 -24.141  0.00  0.00    -0.201 NA
ATOM      5  C   UNL d   1      28.796  15.795 -24.277  0.00  0.00     0.185 A 
ATOM      6  N   UNL d   1      29.497  15.999 -24.628  0.00  0.00    -0.279 N 
ATOM      7  C   UNL d   1      30.082  15.454 -24.861  0.00  0.00     0.101 C 
BRANCH   3   8
ATOM      8  N   UNL d   1      28.660  17.937 -24.390  0.00  0.00    -0.093 N 
ATOM      9  O   UNL d   1      28.515  18.306 -23.664  0.00  0.00    -0.530 OA
ATOM     10  O   UNL d   1      28.608  18.381 -25.095  0.00  0.00    -0.530 OA
ENDBRANCH   3   8
ENDBRANCH   1   2
BRANCH   1  11
ATOM     11  C   UNL d   1      30.875  17.341 -24.630  0.00  0.00     0.031 A 
ATOM     12  C   UNL d   1      31.283  18.035 -24.833  0.00  0.00     0.008 A 
ATOM     13  C   UNL d   1      31.948  18.261 -24.397  0.00  0.00     0.024 A 
ATOM     14  C   UNL d   1      32.200  17.807 -23.775  0.00  0.00     0.127 A 
ATOM     15  C   UNL d   1      31.788  17.114 -23.575  0.00  0.00     0.024 A 
ATOM     16  C   UNL d   1      31.143  16.897 -24.000  0.00  0.00     0.008 A 
BRANCH  14  17
ATOM     17  N   UNL d   1      32.862  18.034 -23.341  0.00  0.00    -0.114 N 
ATOM     18  O   UNL d   1      33.150  18.804 -23.412  0.00  0.00    -0.532 OA
ATOM     19  O   UNL d   1      33.233  17.498 -22.842  0.00  0.00    -0.532 OA
ENDBRANCH  14  17
ENDBRANCH   1  11
TORSDOF 4
ENDMDL
MODEL 2
REMARK VINA RESULT:      -2.0      1.505      2.124
REMARK  4 active torsions:
REMARK  status: ('A' for Active; 'I' for Inactive)
REMARK    1  A    between atoms: N_4  and  C_1 
REMARK    2  A    between atoms: S_8  and  C_2 
REMARK    3  A    between atoms: N_6  and  C_9 
REMARK    4  A    between atoms: C_16  and  S_8 
ROOT
ATOM      1  S   UNL d   1      29.453  16.505 -24.825  0.00  0.00    -0.066 SA
ENDROOT
BRANCH   1   2
ATOM      2  C   UNL d   1      28.985  16.965 -24.322  0.00  0.00     0.136 A 
ATOM      3  C   UNL d   1      28.544  16.782 -23.649  0.00  0.00     0.232 A 
ATOM      4  N   UNL d   1      28.195  17.492 -23.393  0.00  0.00    -0.201 NA
ATOM      5  C   UNL d   1      28.426  18.097 -23.911  0.00  0.00     0.185 A 
ATOM      6  N   UNL d   1      28.905  17.753 -24.466  0.00  0.00    -0.279 N 
ATOM      7  C   UNL d   1      29.262  18.162 -25.097  0.00  0.00     0.101 C 
BRANCH   3   8
ATOM      8  N   UNL d   1      28.462  16.039 -23.293  0.00  0.00    -0.093 N 
ATOM      9  O   UNL d   1      28.004  15.453 -23.655  0.00  0.00    -0.530 OA
ATOM     10  O   UNL d   1      28.839  15.876 -22.566  0.00  0.00    -0.530 OA
ENDBRANCH   3   8
ENDBRANCH   1   2
BRANCH   1  11
ATOM     11  C   UNL d   1      30.260  16.438 -24.727  0.00  0.00     0.031 A 
ATOM     12  C   UNL d   1      30.596  15.680 -24.672  0.00  0.00     0.008 A 
ATOM     13  C   UNL d   1      31.413  15.601 -24.573  0.00  0.00     0.024 A 
ATOM     14  C   UNL d   1      31.883  16.260 -24.530  0.00  0.00     0.127 A 
ATOM     15  C   UNL d   1      31.543  17.016 -24.586  0.00  0.00     0.024 A 
ATOM     16  C   UNL d   1      30.749  17.090 -24.682  0.00  0.00     0.008 A 
BRANCH  14  17
ATOM     17  N   UNL d   1      32.696  16.180 -24.432  0.00  0.00    -0.114 N 
ATOM     18  O   UNL d   1      33.072  15.495 -24.699  0.00  0.00    -0.532 OA
ATOM     19  O   UNL d   1      33.131  16.776 -24.071  0.00  0.00    -0.532 OA
ENDBRANCH  14  17
ENDBRANCH   1  11
TORSDOF 4
ENDMDL
MODEL 3
REMARK VINA RESULT:      -1.7      4.291      5.840
REMARK  4 active torsions:
REMARK  status: ('A' for Active; 'I' for Inactive)
REMARK    1  A    between atoms: N_4  and  C_1 
REMARK    2  A    between atoms: S_8  and  C_2 
REMARK    3  A    between atoms: N_6  and  C_9 
REMARK    4  A    between atoms: C_16  and  S_8 
ROOT
ATOM      1  S   UNL d   1      33.241  21.948 -21.793  0.00  0.00    -0.066 SA
ENDROOT
BRANCH   1   2
ATOM      2  C   UNL d   1      32.615  22.481 -21.705  0.00  0.00     0.136 A 
ATOM      3  C   UNL d   1      32.050  22.584 -21.113  0.00  0.00     0.232 A 
ATOM      4  N   UNL d   1      31.570  23.220 -21.351  0.00  0.00    -0.201 NA
ATOM      5  C   UNL d   1      31.846  23.496 -22.082  0.00  0.00     0.185 A 
ATOM      6  N   UNL d   1      32.481  23.032 -22.277  0.00  0.00    -0.279 N 
ATOM      7  C   UNL d   1      32.930  23.117 -22.973  0.00  0.00     0.101 C 
BRANCH   3   8
ATOM      8  N   UNL d   1      31.971  22.145 -20.415  0.00  0.00    -0.093 N 
ATOM      9  O   UNL d   1      32.561  22.175 -19.836  0.00  0.00    -0.530 OA
ATOM     10  O   UNL d   1      31.297  21.669 -20.291  0.00  0.00    -0.530 OA
ENDBRANCH   3   8
ENDBRANCH   1   2
BRANCH   1  11
ATOM     11  C   UNL d   1      33.148  21.225 -22.158  0.00  0.00     0.031 A 
ATOM     12  C   UNL d   1      33.239  20.533 -21.707  0.00  0.00     0.008 A 
ATOM     13  C   UNL d   1      33.147  19.795 -22.069  0.00  0.00     0.024 A 
ATOM     14  C   UNL d   1      32.969  19.747 -22.857  0.00  0.00     0.127 A 
ATOM     15  C   UNL d   1      32.879  20.442 -23.304  0.00  0.00     0.024 A 
ATOM     16  C   UNL d   1      32.969  21.157 -22.951  0.00  0.00     0.008 A 
BRANCH  14  17
ATOM     17  N   UNL d   1      32.877  19.012 -23.216  0.00  0.00    -0.114 N 
ATOM     18  O   UNL d   1      32.927  18.328 -22.757  0.00  0.00    -0.532 OA
ATOM     19  O   UNL d   1      32.738  18.958 -24.023  0.00  0.00    -0.532 OA
ENDBRANCH  14  17
ENDBRANCH   1  11
TORSDOF 4
ENDMDL
MODEL 4
REMARK VINA RESULT:      -0.5      1.781      3.923
REMARK  4 active torsions:
REMARK  status: ('A' for Active; 'I' for Inactive)
REMARK    1  A    between atoms: N_4  and  C_1 
REMARK    2  A    between atoms: S_8  and  C_2 
REMARK    3  A    between atoms: N_6  and  C_9 
REMARK    4  A    between atoms: C_16  and  S_8 
ROOT
ATOM      1  S   UNL d   1      32.797  17.867 -23.433  0.00  0.00    -0.066 SA
ENDROOT
BRANCH   1   2
ATOM      2  C   UNL d   1      32.954  18.599 -23.783  0.00  0.00     0.136 A 
ATOM      3  C   UNL d   1      32.995  19.365 -23.479  0.00  0.00     0.232 A 
ATOM      4  N   UNL d   1      33.175  19.865 -24.119  0.00  0.00    -0.201 NA
ATOM      5  C   UNL d   1      33.241  19.401 -24.802  0.00  0.00     0.185 A 
ATOM      6  N   UNL d   1      33.103  18.636 -24.573  0.00  0.00    -0.279 N 
ATOM      7  C   UNL d   1      33.114  17.982 -25.089  0.00  0.00     0.101 C 
BRANCH   3   8
ATOM      8  N   UNL d   1      32.881  19.597 -22.692  0.00  0.00    -0.093 N 
ATOM      9  O   UNL d   1      33.173  19.130 -22.075  0.00  0.00    -0.530 OA
ATOM     10  O   UNL d   1      32.470  20.302 -22.516  0.00  0.00    -0.530 OA
ENDBRANCH   3   8
ENDBRANCH   1   2
BRANCH   1  11
ATOM     11  C   UNL d   1      32.149  17.416 -23.637  0.00  0.00     0.031 A 
ATOM     12  C   UNL d   1      32.207  16.588 -23.598  0.00  0.00     0.008 A 
ATOM     13  C   UNL d   1      31.555  16.123 -23.803  0.00  0.00     0.024 A 
ATOM     14  C   UNL d   1      30.865  16.472 -24.041  0.00  0.00     0.127 A 
ATOM     15  C   UNL d   1      30.811  17.301 -24.080  0.00  0.00     0.024 A 
ATOM     16  C   UNL d   1      31.445  17.750 -23.880  0.00  0.00     0.008 A 
BRANCH  14  17
ATOM     17  N   UNL d   1      30.216  16.008 -24.246  0.00  0.00    -0.114 N 
ATOM     18  O   UNL d   1      30.159  15.705 -25.012  0.00  0.00    -0.532 OA
ATOM     19  O   UNL d   1      29.632  15.845 -23.693  0.00  0.00    -0.532 OA
ENDBRANCH  14  17
ENDBRANCH   1  11
TORSDOF 4
ENDMDL
MODEL 5
REMARK VINA RESULT:      -0.1      2.737      3.921
REMARK  4 active torsions:
REMARK  status: ('A' for Active; 'I' for Inactive)
REMARK    1  A    between atoms: N_4  and  C_1 
REMARK    2  A    between atoms: S_8  and  C_2 
REMARK    3  A    between atoms: N_6  and  C_9 
REMARK    4  A    between atoms: C_16  and  S_8 
ROOT
ATOM      1  S   UNL d   1      33.240  19.101 -23.280  0.00  0.00    -0.066 SA
ENDROOT
BRANCH   1   2
ATOM      2  C   UNL d   1      32.772  18.427 -23.375  0.00  0.00     0.136 A 
ATOM      3  C   UNL d   1      32.252  18.189 -23.970  0.00  0.00     0.232 A 
ATOM      4  N   UNL d   1      31.950  17.449 -23.739  0.00  0.00    -0.201 NA
ATOM      5  C   UNL d   1      32.289  17.245 -23.010  0.00  0.00     0.185 A 
ATOM      6  N   UNL d   1      32.784  17.854 -22.810  0.00  0.00    -0.279 N 
ATOM      7  C   UNL d   1      33.240  17.878 -22.114  0.00  0.00     0.101 C 
BRANCH   3   8
ATOM      8  N   UNL d   1      32.062  18.601 -24.662  0.00  0.00    -0.093 N 
ATOM      9  O   UNL d   1      32.656  18.980 -25.096  0.00  0.00    -0.530 OA
ATOM     10  O   UNL d   1      31.272  18.638 -24.927  0.00  0.00    -0.530 OA
ENDBRANCH   3   8
ENDBRANCH   1   2
BRANCH   1  11
ATOM     11  C   UNL d   1      33.080  19.667 -22.715  0.00  0.00     0.031 A 
ATOM     12  C   UNL d   1      32.794  20.408 -22.958  0.00  0.00     0.008 A 
ATOM     13  C   UNL d   1      32.628  20.987 -22.392  0.00  0.00     0.024 A 
ATOM     14  C   UNL d   1      32.743  20.833 -21.606  0.00  0.00     0.127 A 
ATOM     15  C   UNL d   1      33.030  20.090 -21.367  0.00  0.00     0.024 A 
ATOM     16  C   UNL d   1      33.190  19.529 -21.918  0.00  0.00     0.008 A 
BRANCH  14  17
ATOM     17  N   UNL d   1      32.578  21.411 -21.043  0.00  0.00    -0.114 N 
ATOM     18  O   UNL d   1      33.184  21.691 -20.558  0.00  0.00    -0.532 OA
ATOM     19  O   UNL d   1      31.816  21.707 -20.965  0.00  0.00    -0.532 OA
ENDBRANCH  14  17
ENDBRANCH   1  11
TORSDOF 4
ENDMDL
