MODEL 1
REMARK VINA RESULT:     -10.2      0.000      0.000
REMARK  4 active torsions:
REMARK  status: ('A' for Active; 'I' for Inactive)
REMARK       I    between atoms: C_2  and  N_1 
REMARK       I    between atoms: N_8  and  C_2 
REMARK    1  A    between atoms: C_12  and  N_8 
REMARK    2  A    between atoms: C_9  and  C_12 
REMARK    3  A    between atoms: O_13  and  C_9 
REMARK    4  A    between atoms: C_18  and  O_13 
ROOT
ATOM      1  N   UNL d   1      52.804  32.917  53.501  0.00  0.00    -0.258 N 
ATOM      2  C   UNL d   1      52.721  32.145  53.225  0.00  0.00     0.354 C 
ATOM      3  S   UNL d   1      52.971  34.475  54.056  0.00  0.00    -0.084 SA
ATOM      4  C   UNL d   1      52.322  33.517  53.204  0.00  0.00     0.074 A 
ATOM      5  C   UNL d   1      53.371  33.089  54.075  0.00  0.00     0.074 A 
ATOM      6  C   UNL d   1      52.403  34.296  53.479  0.00  0.00     0.046 A 
ATOM      7  C   UNL d   1      53.455  33.871  54.354  0.00  0.00     0.046 A 
ATOM      8  N   UNL d   1      53.210  31.542  53.528  0.00  0.00    -0.185 NA
ATOM      9  O   UNL d   1      52.157  31.973  52.653  0.00  0.00    -0.244 OA
ATOM     10  C   UNL d   1      51.762  33.338  52.633  0.00  0.00     0.018 A 
ATOM     11  C   UNL d   1      53.846  32.489  54.366  0.00  0.00     0.018 A 
ATOM     12  C   UNL d   1      54.013  34.047  54.921  0.00  0.00     0.008 A 
ATOM     13  C   UNL d   1      51.919  34.893  53.179  0.00  0.00     0.008 A 
ATOM     14  C   UNL d   1      51.271  33.930  52.326  0.00  0.00     0.002 A 
ATOM     15  C   UNL d   1      54.422  32.669  54.952  0.00  0.00     0.002 A 
ATOM     16  C   UNL d   1      54.502  33.448  55.226  0.00  0.00     0.001 A 
ATOM     17  C   UNL d   1      51.350  34.705  52.599  0.00  0.00     0.001 A 
ENDROOT
BRANCH   8  18
ATOM     18  C   UNL d   1      53.124  30.746  53.244  0.00  0.00     0.172 C 
BRANCH  18  19
ATOM     19  C   UNL d   1      53.553  30.151  53.597  0.00  0.00     0.320 C 
ATOM     20  O   UNL d   1      54.293  29.949  53.297  0.00  0.00    -0.257 OA
BRANCH  19  21
ATOM     21  O   UNL d   1      53.255  29.756  54.243  0.00  0.00    -0.270 OA
BRANCH  21  22
ATOM     22  C   UNL d   1      53.457  28.956  54.374  0.00  0.00     0.126 C 
ATOM     23  C   UNL d   1      53.304  28.608  55.100  0.00  0.00     0.029 C 
ENDBRANCH  21  22
ENDBRANCH  19  21
ENDBRANCH  18  19
ENDBRANCH   8  18
TORSDOF 4
ENDMDL
MODEL 2
REMARK VINA RESULT:      -9.1      1.995      4.028
REMARK  4 active torsions:
REMARK  status: ('A' for Active; 'I' for Inactive)
REMARK       I    between atoms: C_2  and  N_1 
REMARK       I    between atoms: N_8  and  C_2 
REMARK    1  A    between atoms: C_12  and  N_8 
REMARK    2  A    between atoms: C_9  and  C_12 
REMARK    3  A    between atoms: O_13  and  C_9 
REMARK    4  A    between atoms: C_18  and  O_13 
ROOT
ATOM      1  N   UNL d   1      53.062  33.376  53.827  0.00  0.00    -0.258 N 
ATOM      2  C   UNL d   1      52.546  33.978  53.604  0.00  0.00     0.354 C 
ATOM      3  S   UNL d   1      54.103  32.161  54.277  0.00  0.00    -0.084 SA
ATOM      4  C   UNL d   1      53.676  33.530  54.355  0.00  0.00     0.074 A 
ATOM      5  C   UNL d   1      52.963  32.617  53.519  0.00  0.00     0.074 A 
ATOM      6  C   UNL d   1      54.198  32.926  54.582  0.00  0.00     0.046 A 
ATOM      7  C   UNL d   1      53.486  32.006  53.745  0.00  0.00     0.046 A 
ATOM      8  N   UNL d   1      51.927  33.818  53.070  0.00  0.00    -0.185 NA
ATOM      9  O   UNL d   1      52.644  34.735  53.909  0.00  0.00    -0.244 OA
ATOM     10  C   UNL d   1      53.767  34.288  54.656  0.00  0.00     0.018 A 
ATOM     11  C   UNL d   1      52.352  32.470  52.995  0.00  0.00     0.018 A 
ATOM     12  C   UNL d   1      53.393  31.255  53.445  0.00  0.00     0.008 A 
ATOM     13  C   UNL d   1      54.810  33.085  55.111  0.00  0.00     0.008 A 
ATOM     14  C   UNL d   1      54.379  34.457  55.187  0.00  0.00     0.002 A 
ATOM     15  C   UNL d   1      52.254  31.694  52.684  0.00  0.00     0.002 A 
ATOM     16  C   UNL d   1      52.777  31.090  52.912  0.00  0.00     0.001 A 
ATOM     17  C   UNL d   1      54.898  33.857  55.414  0.00  0.00     0.001 A 
ENDROOT
BRANCH   8  18
ATOM     18  C   UNL d   1      51.395  34.439  52.840  0.00  0.00     0.172 C 
BRANCH  18  19
ATOM     19  C   UNL d   1      50.862  34.303  52.240  0.00  0.00     0.320 C 
ATOM     20  O   UNL d   1      51.131  34.224  51.466  0.00  0.00    -0.257 OA
BRANCH  19  21
ATOM     21  O   UNL d   1      50.067  34.245  52.402  0.00  0.00    -0.270 OA
BRANCH  21  22
ATOM     22  C   UNL d   1      49.507  34.567  51.871  0.00  0.00     0.126 C 
ATOM     23  C   UNL d   1      48.760  34.770  52.138  0.00  0.00     0.029 C 
ENDBRANCH  21  22
ENDBRANCH  19  21
ENDBRANCH  18  19
ENDBRANCH   8  18
TORSDOF 4
ENDMDL
MODEL 3
REMARK VINA RESULT:      -8.7      1.510      3.911
REMARK  4 active torsions:
REMARK  status: ('A' for Active; 'I' for Inactive)
REMARK       I    between atoms: C_2  and  N_1 
REMARK       I    between atoms: N_8  and  C_2 
REMARK    1  A    between atoms: C_12  and  N_8 
REMARK    2  A    between atoms: C_9  and  C_12 
REMARK    3  A    between atoms: O_13  and  C_9 
REMARK    4  A    between atoms: C_18  and  O_13 
ROOT
ATOM      1  N   UNL d   1      52.535  32.655  53.501  0.00  0.00    -0.258 N 
ATOM      2  C   UNL d   1      51.774  32.748  53.198  0.00  0.00     0.354 C 
ATOM      3  S   UNL d   1      54.069  32.468  54.112  0.00  0.00    -0.084 SA
ATOM      4  C   UNL d   1      52.917  31.926  53.447  0.00  0.00     0.074 A 
ATOM      5  C   UNL d   1      52.914  33.294  53.859  0.00  0.00     0.074 A 
ATOM      6  C   UNL d   1      53.683  31.829  53.751  0.00  0.00     0.046 A 
ATOM      7  C   UNL d   1      53.685  33.200  54.166  0.00  0.00     0.046 A 
ATOM      8  N   UNL d   1      51.392  33.485  53.255  0.00  0.00    -0.185 NA
ATOM      9  O   UNL d   1      51.395  32.111  52.842  0.00  0.00    -0.244 OA
ATOM     10  C   UNL d   1      52.533  31.296  53.090  0.00  0.00     0.018 A 
ATOM     11  C   UNL d   1      52.530  34.015  53.910  0.00  0.00     0.018 A 
ATOM     12  C   UNL d   1      54.065  33.828  54.520  0.00  0.00     0.008 A 
ATOM     13  C   UNL d   1      54.061  31.098  53.695  0.00  0.00     0.008 A 
ATOM     14  C   UNL d   1      52.904  30.558  53.029  0.00  0.00     0.002 A 
ATOM     15  C   UNL d   1      52.921  34.664  54.275  0.00  0.00     0.002 A 
ATOM     16  C   UNL d   1      53.687  34.566  54.579  0.00  0.00     0.001 A 
ATOM     17  C   UNL d   1      53.665  30.461  53.331  0.00  0.00     0.001 A 
ENDROOT
BRANCH   8  18
ATOM     18  C   UNL d   1      50.608  33.581  52.943  0.00  0.00     0.172 C 
BRANCH  18  19
ATOM     19  C   UNL d   1      50.372  34.314  52.679  0.00  0.00     0.320 C 
ATOM     20  O   UNL d   1      50.649  34.595  51.956  0.00  0.00    -0.257 OA
BRANCH  19  21
ATOM     21  O   UNL d   1      49.867  34.769  53.126  0.00  0.00    -0.270 OA
BRANCH  21  22
ATOM     22  C   UNL d   1      49.199  35.124  52.770  0.00  0.00     0.126 C 
ATOM     23  C   UNL d   1      48.699  35.595  53.216  0.00  0.00     0.029 C 
ENDBRANCH  21  22
ENDBRANCH  19  21
ENDBRANCH  18  19
ENDBRANCH   8  18
TORSDOF 4
ENDMDL
MODEL 4
REMARK VINA RESULT:      -8.4      0.803      2.297
REMARK  4 active torsions:
REMARK  status: ('A' for Active; 'I' for Inactive)
REMARK       I    between atoms: C_2  and  N_1 
REMARK       I    between atoms: N_8  and  C_2 
REMARK    1  A    between atoms: C_12  and  N_8 
REMARK    2  A    between atoms: C_9  and  C_12 
REMARK    3  A    between atoms: O_13  and  C_9 
REMARK    4  A    between atoms: C_18  and  O_13 
ROOT
ATOM      1  N   UNL d   1      53.412  32.843  53.957  0.00  0.00    -0.258 N 
ATOM      2  C   UNL d   1      53.708  32.079  53.875  0.00  0.00     0.354 C 
ATOM      3  S   UNL d   1      52.816  34.386  54.124  0.00  0.00    -0.084 SA
ATOM      4  C   UNL d   1      53.841  33.411  54.374  0.00  0.00     0.074 A 
ATOM      5  C   UNL d   1      52.685  33.040  53.621  0.00  0.00     0.074 A 
ATOM      6  C   UNL d   1      53.547  34.183  54.460  0.00  0.00     0.046 A 
ATOM      7  C   UNL d   1      52.385  33.815  53.705  0.00  0.00     0.046 A 
ATOM      8  N   UNL d   1      53.272  31.508  53.453  0.00  0.00    -0.185 NA
ATOM      9  O   UNL d   1      54.433  31.882  54.209  0.00  0.00    -0.244 OA
ATOM     10  C   UNL d   1      54.563  33.208  54.705  0.00  0.00     0.018 A 
ATOM     11  C   UNL d   1      52.264  32.473  53.209  0.00  0.00     0.018 A 
ATOM     12  C   UNL d   1      51.668  34.015  53.375  0.00  0.00     0.008 A 
ATOM     13  C   UNL d   1      53.979  34.747  54.877  0.00  0.00     0.008 A 
ATOM     14  C   UNL d   1      55.004  33.767  55.126  0.00  0.00     0.002 A 
ATOM     15  C   UNL d   1      51.523  32.677  52.868  0.00  0.00     0.002 A 
ATOM     16  C   UNL d   1      51.229  33.449  52.953  0.00  0.00     0.001 A 
ATOM     17  C   UNL d   1      54.712  34.534  55.212  0.00  0.00     0.001 A 
ENDROOT
BRANCH   8  18
ATOM     18  C   UNL d   1      53.577  30.720  53.368  0.00  0.00     0.172 C 
BRANCH  18  19
ATOM     19  C   UNL d   1      53.059  30.092  53.372  0.00  0.00     0.320 C 
ATOM     20  O   UNL d   1      52.681  29.872  52.674  0.00  0.00    -0.257 OA
BRANCH  19  21
ATOM     21  O   UNL d   1      52.914  29.683  54.060  0.00  0.00    -0.270 OA
BRANCH  21  22
ATOM     22  C   UNL d   1      53.215  28.909  54.157  0.00  0.00     0.126 C 
ATOM     23  C   UNL d   1      53.302  28.595  54.909  0.00  0.00     0.029 C 
ENDBRANCH  21  22
ENDBRANCH  19  21
ENDBRANCH  18  19
ENDBRANCH   8  18
TORSDOF 4
ENDMDL
