MODEL 1
REMARK VINA RESULT:      -0.8      0.000      0.000
REMARK  3 active torsions:
REMARK  status: ('A' for Active; 'I' for Inactive)
REMARK    1  A    between atoms: C_21  and  N_1 
REMARK       I    between atoms: N_6  and  C_8 
REMARK    2  A    between atoms: C_8  and  C_9 
REMARK    3  A    between atoms: C_24  and  C_21 
ROOT
ATOM      1  N   UNL d   1     -41.890-122.461 -54.120  0.00  0.00    -0.249 N 
ATOM      2  C   UNL d   1     -42.235-121.756 -53.894  0.00  0.00     0.208 A 
ATOM      3  C   UNL d   1     -41.537-122.950 -53.555  0.00  0.00     0.268 A 
ATOM      4  C   UNL d   1     -41.538-122.716 -52.764  0.00  0.00     0.074 A 
ATOM      5  N   UNL d   1     -42.234-121.524 -53.097  0.00  0.00    -0.218 NA
ATOM      6  C   UNL d   1     -41.883-122.013 -52.545  0.00  0.00     0.088 A 
ATOM      7  C   UNL d   1     -41.531-122.266 -51.180  0.00  0.00     0.058 A 
ATOM      8  C   UNL d   1     -41.883-121.782 -51.753  0.00  0.00     0.024 A 
ATOM      9  C   UNL d   1     -41.187-123.203 -52.203  0.00  0.00     0.006 A 
ATOM     10  S   UNL d   1     -42.592-121.263 -54.469  0.00  0.00    -0.038 SA
ATOM     11  O   UNL d   1     -41.188-123.662 -53.779  0.00  0.00    -0.267 OA
ATOM     12  C   UNL d   1     -41.184-122.974 -51.406  0.00  0.00     0.005 A 
ENDROOT
BRANCH   7  13
ATOM     13  C   UNL d   1     -41.530-122.034 -50.384  0.00  0.00     0.265 C 
ATOM     14  N   UNL d   1     -41.937-122.486 -49.829  0.00  0.00    -0.272 N 
ATOM     15  C   UNL d   1     -41.937-122.257 -49.041  0.00  0.00     0.083 A 
ATOM     16  C   UNL d   1     -42.344-123.165 -50.054  0.00  0.00     0.083 A 
ATOM     17  C   UNL d   1     -42.336-122.699 -48.492  0.00  0.00     0.018 A 
ATOM     18  C   UNL d   1     -42.329-122.458 -47.699  0.00  0.00     0.002 A 
ATOM     19  C   UNL d   1     -42.743-123.377 -48.714  0.00  0.00     0.003 A 
ATOM     20  C   UNL d   1     -42.735-122.904 -47.124  0.00  0.00     0.000 A 
ATOM     21  C   UNL d   1     -43.145-123.585 -47.344  0.00  0.00     0.000 A 
ATOM     22  C   UNL d   1     -43.145-123.817 -48.140  0.00  0.00     0.000 A 
ATOM     23  C   UNL d   1     -42.746-123.610 -49.497  0.00  0.00     0.019 A 
ATOM     24  O   UNL d   1     -41.123-121.354 -50.159  0.00  0.00    -0.267 OA
ENDBRANCH   7  13
BRANCH   1  25
ATOM     25  C   UNL d   1     -41.890-122.696 -54.925  0.00  0.00     0.085 C 
BRANCH  25  26
ATOM     26  C   UNL d   1     -41.500-122.233 -55.482  0.00  0.00     0.019 C 
ATOM     27  C   UNL d   1     -41.697-122.317 -56.283  0.00  0.00     0.002 C 
ENDBRANCH  25  26
ENDBRANCH   1  25
TORSDOF 3
ENDMDL
