MODEL 1
REMARK VINA RESULT:      -6.9      0.000      0.000
REMARK  3 active torsions:
REMARK  status: ('A' for Active; 'I' for Inactive)
REMARK    1  A    between atoms: C_6  and  C_1 
REMARK    2  A    between atoms: O_9  and  C_6 
REMARK    3  A    between atoms: C_12  and  O_9 
ROOT
ATOM      1  C   UNL d   1     -48.259  13.826  22.957  0.00  0.00     0.182 A 
ATOM      2  C   UNL d   1     -47.425  13.756  22.989  0.00  0.00     0.133 A 
ATOM      3  O   UNL d   1     -48.585  13.089  23.167  0.00  0.00    -0.300 OA
ATOM      4  C   UNL d   1     -47.242  12.979  23.217  0.00  0.00     0.044 A 
ATOM      5  C   UNL d   1     -47.957  12.563  23.328  0.00  0.00     0.102 A 
ATOM      6  N   UNL d   1     -46.880  14.354  22.823  0.00  0.00    -0.146 N 
ATOM      7  C   UNL d   1     -46.533  12.593  23.339  0.00  0.00     0.004 A 
ATOM      8  C   UNL d   1     -47.934  11.777  23.557  0.00  0.00     0.025 A 
ATOM      9  C   UNL d   1     -46.514  11.806  23.568  0.00  0.00     0.000 A 
ATOM     10  C   UNL d   1     -47.224  11.392  23.678  0.00  0.00     0.002 A 
ENDROOT
BRANCH   1  11
ATOM     11  C   UNL d   1     -48.684  14.502  22.755  0.00  0.00     0.325 C 
ATOM     12  O   UNL d   1     -48.705  14.748  21.975  0.00  0.00    -0.257 OA
BRANCH  11  13
ATOM     13  O   UNL d   1     -49.085  14.926  23.336  0.00  0.00    -0.269 OA
BRANCH  13  14
ATOM     14  C   UNL d   1     -49.640  15.497  23.117  0.00  0.00     0.126 C 
ATOM     15  C   UNL d   1     -50.079  15.888  23.695  0.00  0.00     0.029 C 
ENDBRANCH  13  14
ENDBRANCH  11  13
ENDBRANCH   1  11
TORSDOF 3
ENDMDL
MODEL 2
REMARK VINA RESULT:      -6.4      1.530      3.471
REMARK  3 active torsions:
REMARK  status: ('A' for Active; 'I' for Inactive)
REMARK    1  A    between atoms: C_6  and  C_1 
REMARK    2  A    between atoms: O_9  and  C_6 
REMARK    3  A    between atoms: C_12  and  O_9 
ROOT
ATOM      1  C   UNL d   1     -47.161  13.825  22.878  0.00  0.00     0.182 A 
ATOM      2  C   UNL d   1     -47.887  13.425  23.001  0.00  0.00     0.133 A 
ATOM      3  O   UNL d   1     -47.336  14.613  22.671  0.00  0.00    -0.300 OA
ATOM      4  C   UNL d   1     -48.502  13.966  22.869  0.00  0.00     0.044 A 
ATOM      5  C   UNL d   1     -48.166  14.702  22.665  0.00  0.00     0.102 A 
ATOM      6  N   UNL d   1     -47.975  12.632  23.214  0.00  0.00    -0.146 N 
ATOM      7  C   UNL d   1     -49.315  13.895  22.905  0.00  0.00     0.004 A 
ATOM      8  C   UNL d   1     -48.656  15.339  22.505  0.00  0.00     0.025 A 
ATOM      9  C   UNL d   1     -49.802  14.535  22.744  0.00  0.00     0.000 A 
ATOM     10  C   UNL d   1     -49.469  15.266  22.542  0.00  0.00     0.002 A 
ENDROOT
BRANCH   1  11
ATOM     11  C   UNL d   1     -46.407  13.501  22.949  0.00  0.00     0.325 C 
ATOM     12  O   UNL d   1     -46.108  13.332  23.692  0.00  0.00    -0.257 OA
BRANCH  11  13
ATOM     13  O   UNL d   1     -45.958  13.348  22.276  0.00  0.00    -0.269 OA
BRANCH  13  14
ATOM     14  C   UNL d   1     -45.170  13.117  22.352  0.00  0.00     0.126 C 
ATOM     15  C   UNL d   1     -44.710  12.992  21.679  0.00  0.00     0.029 C 
ENDBRANCH  13  14
ENDBRANCH  11  13
ENDBRANCH   1  11
TORSDOF 3
ENDMDL
MODEL 3
REMARK VINA RESULT:      -6.4      1.741      3.140
REMARK  3 active torsions:
REMARK  status: ('A' for Active; 'I' for Inactive)
REMARK    1  A    between atoms: C_6  and  C_1 
REMARK    2  A    between atoms: O_9  and  C_6 
REMARK    3  A    between atoms: C_12  and  O_9 
ROOT
ATOM      1  C   UNL d   1     -47.307  12.811  23.027  0.00  0.00     0.182 A 
ATOM      2  C   UNL d   1     -47.639  12.107  23.337  0.00  0.00     0.133 A 
ATOM      3  O   UNL d   1     -47.928  13.271  22.717  0.00  0.00    -0.300 OA
ATOM      4  C   UNL d   1     -48.459  12.137  23.216  0.00  0.00     0.044 A 
ATOM      5  C   UNL d   1     -48.643  12.855  22.833  0.00  0.00     0.102 A 
ATOM      6  N   UNL d   1     -47.224  11.491  23.698  0.00  0.00    -0.146 N 
ATOM      7  C   UNL d   1     -49.062  11.617  23.399  0.00  0.00     0.004 A 
ATOM      8  C   UNL d   1     -49.422  13.026  22.647  0.00  0.00     0.025 A 
ATOM      9  C   UNL d   1     -49.842  11.792  23.211  0.00  0.00     0.000 A 
ATOM     10  C   UNL d   1     -50.024  12.505  22.830  0.00  0.00     0.002 A 
ENDROOT
BRANCH   1  11
ATOM     11  C   UNL d   1     -46.509  13.015  23.028  0.00  0.00     0.325 C 
ATOM     12  O   UNL d   1     -46.182  13.364  23.692  0.00  0.00    -0.257 OA
BRANCH  11  13
ATOM     13  O   UNL d   1     -46.045  12.869  22.364  0.00  0.00    -0.269 OA
BRANCH  13  14
ATOM     14  C   UNL d   1     -45.333  13.273  22.264  0.00  0.00     0.126 C 
ATOM     15  C   UNL d   1     -44.769  12.990  21.733  0.00  0.00     0.029 C 
ENDBRANCH  13  14
ENDBRANCH  11  13
ENDBRANCH   1  11
TORSDOF 3
ENDMDL
MODEL 4
REMARK VINA RESULT:      -6.0      1.839      3.404
REMARK  3 active torsions:
REMARK  status: ('A' for Active; 'I' for Inactive)
REMARK    1  A    between atoms: C_6  and  C_1 
REMARK    2  A    between atoms: O_9  and  C_6 
REMARK    3  A    between atoms: C_12  and  O_9 
ROOT
ATOM      1  C   UNL d   1     -48.295  13.079  22.554  0.00  0.00     0.182 A 
ATOM      2  C   UNL d   1     -48.841  12.516  22.260  0.00  0.00     0.133 A 
ATOM      3  O   UNL d   1     -48.664  13.825  22.539  0.00  0.00    -0.300 OA
ATOM      4  C   UNL d   1     -49.541  12.916  22.067  0.00  0.00     0.044 A 
ATOM      5  C   UNL d   1     -49.436  13.726  22.237  0.00  0.00     0.102 A 
ATOM      6  N   UNL d   1     -48.707  11.705  22.178  0.00  0.00    -0.146 N 
ATOM      7  C   UNL d   1     -50.254  12.662  21.761  0.00  0.00     0.004 A 
ATOM      8  C   UNL d   1     -50.049  14.251  22.096  0.00  0.00     0.025 A 
ATOM      9  C   UNL d   1     -50.866  13.191  21.621  0.00  0.00     0.000 A 
ATOM     10  C   UNL d   1     -50.762  13.995  21.790  0.00  0.00     0.002 A 
ENDROOT
BRANCH   1  11
ATOM     11  C   UNL d   1     -47.528  12.925  22.813  0.00  0.00     0.325 C 
ATOM     12  O   UNL d   1     -47.411  12.543  23.527  0.00  0.00    -0.257 OA
BRANCH  11  13
ATOM     13  O   UNL d   1     -46.883  13.156  22.356  0.00  0.00    -0.269 OA
BRANCH  13  14
ATOM     14  C   UNL d   1     -46.128  13.169  22.687  0.00  0.00     0.126 C 
ATOM     15  C   UNL d   1     -45.477  13.368  22.222  0.00  0.00     0.029 C 
ENDBRANCH  13  14
ENDBRANCH  11  13
ENDBRANCH   1  11
TORSDOF 3
ENDMDL
MODEL 5
REMARK VINA RESULT:      -5.8      1.663      2.483
REMARK  3 active torsions:
REMARK  status: ('A' for Active; 'I' for Inactive)
REMARK    1  A    between atoms: C_6  and  C_1 
REMARK    2  A    between atoms: O_9  and  C_6 
REMARK    3  A    between atoms: C_12  and  O_9 
ROOT
ATOM      1  C   UNL d   1     -48.394  12.509  22.885  0.00  0.00     0.182 A 
ATOM      2  C   UNL d   1     -47.615  12.275  23.083  0.00  0.00     0.133 A 
ATOM      3  O   UNL d   1     -48.371  13.311  22.663  0.00  0.00    -0.300 OA
ATOM      4  C   UNL d   1     -47.119  12.932  22.983  0.00  0.00     0.044 A 
ATOM      5  C   UNL d   1     -47.582  13.575  22.723  0.00  0.00     0.102 A 
ATOM      6  N   UNL d   1     -47.381  11.524  23.334  0.00  0.00    -0.146 N 
ATOM      7  C   UNL d   1     -46.315  13.037  23.090  0.00  0.00     0.004 A 
ATOM      8  C   UNL d   1     -47.225  14.299  22.581  0.00  0.00     0.025 A 
ATOM      9  C   UNL d   1     -45.961  13.763  22.947  0.00  0.00     0.000 A 
ATOM     10  C   UNL d   1     -46.422  14.402  22.689  0.00  0.00     0.002 A 
ENDROOT
BRANCH   1  11
ATOM     11  C   UNL d   1     -49.066  12.032  22.904  0.00  0.00     0.325 C 
ATOM     12  O   UNL d   1     -49.144  11.421  22.366  0.00  0.00    -0.257 OA
BRANCH  11  13
ATOM     13  O   UNL d   1     -49.655  12.171  23.462  0.00  0.00    -0.269 OA
BRANCH  13  14
ATOM     14  C   UNL d   1     -50.392  11.809  23.380  0.00  0.00     0.126 C 
ATOM     15  C   UNL d   1     -51.064  12.166  23.697  0.00  0.00     0.029 C 
ENDBRANCH  13  14
ENDBRANCH  11  13
ENDBRANCH   1  11
TORSDOF 3
ENDMDL
MODEL 6
REMARK VINA RESULT:      -5.2      9.323     10.185
REMARK  3 active torsions:
REMARK  status: ('A' for Active; 'I' for Inactive)
REMARK    1  A    between atoms: C_6  and  C_1 
REMARK    2  A    between atoms: O_9  and  C_6 
REMARK    3  A    between atoms: C_12  and  O_9 
ROOT
ATOM      1  C   UNL d   1     -39.952  14.063  18.018  0.00  0.00     0.182 A 
ATOM      2  C   UNL d   1     -39.792  14.549  17.354  0.00  0.00     0.133 A 
ATOM      3  O   UNL d   1     -39.423  13.419  17.996  0.00  0.00    -0.300 OA
ATOM      4  C   UNL d   1     -39.169  14.203  16.930  0.00  0.00     0.044 A 
ATOM      5  C   UNL d   1     -38.938  13.505  17.322  0.00  0.00     0.102 A 
ATOM      6  N   UNL d   1     -40.185  15.248  17.158  0.00  0.00    -0.146 N 
ATOM      7  C   UNL d   1     -38.780  14.423  16.245  0.00  0.00     0.004 A 
ATOM      8  C   UNL d   1     -38.327  13.052  17.016  0.00  0.00     0.025 A 
ATOM      9  C   UNL d   1     -38.169  13.968  15.942  0.00  0.00     0.000 A 
ATOM     10  C   UNL d   1     -37.940  13.273  16.332  0.00  0.00     0.002 A 
ENDROOT
BRANCH   1  11
ATOM     11  C   UNL d   1     -40.528  14.195  18.592  0.00  0.00     0.325 C 
ATOM     12  O   UNL d   1     -41.314  14.047  18.416  0.00  0.00    -0.257 OA
BRANCH  11  13
ATOM     13  O   UNL d   1     -40.314  14.473  19.336  0.00  0.00    -0.269 OA
BRANCH  13  14
ATOM     14  C   UNL d   1     -40.860  14.455  19.954  0.00  0.00     0.126 C 
ATOM     15  C   UNL d   1     -40.654  14.753  20.695  0.00  0.00     0.029 C 
ENDBRANCH  13  14
ENDBRANCH  11  13
ENDBRANCH   1  11
TORSDOF 3
ENDMDL
