MODEL 1
REMARK VINA RESULT:     108.3      0.000      0.000
REMARK  6 active torsions:
REMARK  status: ('A' for Active; 'I' for Inactive)
REMARK    1  A    between atoms: S_5  and  C_3 
REMARK    2  A    between atoms: C_16  and  S_5 
REMARK    3  A    between atoms: C_20  and  N_6 
REMARK    4  A    between atoms: N_19  and  C_25 
REMARK    5  A    between atoms: C_24  and  C_20 
REMARK    6  A    between atoms: C_25  and  C_24 
ROOT
ATOM      1  C   UNL d   1     -50.743  26.915  35.963  0.00  0.00     0.155 A 
ATOM      2  C   UNL d   1     -50.322  27.209  36.609  0.00  0.00     0.092 A 
ATOM      3  C   UNL d   1     -49.412  27.857  35.717  0.00  0.00     0.124 A 
ATOM      4  N   UNL d   1     -51.412  26.441  36.089  0.00  0.00    -0.210 NA
ATOM      5  N   UNL d   1     -50.503  27.088  35.202  0.00  0.00    -0.273 N 
ATOM      6  C   UNL d   1     -49.833  27.563  35.071  0.00  0.00     0.181 A 
ATOM      7  C   UNL d   1     -50.567  27.032  37.387  0.00  0.00     0.269 A 
ATOM      8  N   UNL d   1     -51.232  26.561  37.508  0.00  0.00    -0.258 N 
ATOM      9  C   UNL d   1     -49.650  27.684  36.493  0.00  0.00     0.022 A 
ATOM     10  C   UNL d   1     -51.660  26.263  36.857  0.00  0.00     0.152 A 
ATOM     11  N   UNL d   1     -49.593  27.737  34.299  0.00  0.00    -0.128 N 
ATOM     12  C   UNL d   1     -51.476  26.385  38.280  0.00  0.00     0.084 A 
ATOM     13  O   UNL d   1     -50.139  27.330  38.031  0.00  0.00    -0.266 OA
ATOM     14  C   UNL d   1     -52.320  25.795  36.984  0.00  0.00     0.038 A 
ATOM     15  C   UNL d   1     -52.141  25.914  38.394  0.00  0.00     0.019 A 
ATOM     16  C   UNL d   1     -52.566  25.617  37.741  0.00  0.00     0.005 A 
ENDROOT
BRANCH   3  17
ATOM     17  S   UNL d   1     -48.746  28.328  35.586  0.00  0.00     0.213 S 
ATOM     18  O   UNL d   1     -49.065  28.965  35.990  0.00  0.00    -0.217 OA
ATOM     19  O   UNL d   1     -48.391  27.706  35.170  0.00  0.00    -0.217 OA
BRANCH  17  20
ATOM     20  C   UNL d   1     -48.079  28.795  35.453  0.00  0.00     0.088 A 
ATOM     21  C   UNL d   1     -47.369  28.435  35.234  0.00  0.00     0.011 A 
ATOM     22  C   UNL d   1     -46.702  28.894  35.100  0.00  0.00     0.001 A 
ATOM     23  C   UNL d   1     -46.741  29.714  35.185  0.00  0.00     0.000 A 
ATOM     24  C   UNL d   1     -47.456  30.074  35.406  0.00  0.00     0.001 A 
ATOM     25  C   UNL d   1     -48.122  29.606  35.538  0.00  0.00     0.011 A 
ENDBRANCH  17  20
ENDBRANCH   3  17
BRANCH   5  26
ATOM     26  C   UNL d   1     -50.926  26.793  34.553  0.00  0.00     0.085 C 
BRANCH  26  27
ATOM     27  C   UNL d   1     -50.674  26.101  34.181  0.00  0.00     0.038 C 
BRANCH  27  28
ATOM     28  C   UNL d   1     -51.068  25.820  33.524  0.00  0.00     0.082 C 
BRANCH  28  29
ATOM     29  N   UNL d   1     -51.246  25.019  33.451  0.00  0.00    -0.299 N 
ATOM     30  C   UNL d   1     -52.031  24.773  33.450  0.00  0.00     0.107 A 
ATOM     31  C   UNL d   1     -52.219  23.980  33.378  0.00  0.00     0.142 A 
ATOM     32  O   UNL d   1     -51.620  23.418  33.306  0.00  0.00    -0.300 OA
ATOM     33  C   UNL d   1     -50.825  23.656  33.306  0.00  0.00     0.142 A 
ATOM     34  C   UNL d   1     -50.638  24.465  33.379  0.00  0.00     0.107 A 
ENDBRANCH  28  29
ENDBRANCH  27  28
ENDBRANCH  26  27
ENDBRANCH   5  26
TORSDOF 6
ENDMDL
MODEL 2
REMARK VINA RESULT:     108.9      1.080      1.405
REMARK  6 active torsions:
REMARK  status: ('A' for Active; 'I' for Inactive)
REMARK    1  A    between atoms: S_5  and  C_3 
REMARK    2  A    between atoms: C_16  and  S_5 
REMARK    3  A    between atoms: C_20  and  N_6 
REMARK    4  A    between atoms: N_19  and  C_25 
REMARK    5  A    between atoms: C_24  and  C_20 
REMARK    6  A    between atoms: C_25  and  C_24 
ROOT
ATOM      1  C   UNL d   1     -49.702  27.496  36.126  0.00  0.00     0.155 A 
ATOM      2  C   UNL d   1     -49.577  28.059  36.717  0.00  0.00     0.092 A 
ATOM      3  C   UNL d   1     -48.707  28.780  35.841  0.00  0.00     0.124 A 
ATOM      4  N   UNL d   1     -50.203  26.851  36.271  0.00  0.00    -0.210 NA
ATOM      5  N   UNL d   1     -49.335  27.573  35.401  0.00  0.00    -0.273 N 
ATOM      6  C   UNL d   1     -48.832  28.218  35.250  0.00  0.00     0.181 A 
ATOM      7  C   UNL d   1     -49.952  27.981  37.458  0.00  0.00     0.269 A 
ATOM      8  N   UNL d   1     -50.448  27.339  37.599  0.00  0.00    -0.258 N 
ATOM      9  C   UNL d   1     -49.077  28.709  36.581  0.00  0.00     0.022 A 
ATOM     10  C   UNL d   1     -50.577  26.769  37.004  0.00  0.00     0.152 A 
ATOM     11  N   UNL d   1     -48.462  28.292  34.515  0.00  0.00    -0.128 N 
ATOM     12  C   UNL d   1     -50.821  27.261  38.334  0.00  0.00     0.084 A 
ATOM     13  O   UNL d   1     -49.822  28.550  38.047  0.00  0.00    -0.266 OA
ATOM     14  C   UNL d   1     -51.072  26.133  37.149  0.00  0.00     0.038 A 
ATOM     15  C   UNL d   1     -51.316  26.618  38.469  0.00  0.00     0.019 A 
ATOM     16  C   UNL d   1     -51.442  26.049  37.872  0.00  0.00     0.005 A 
ENDROOT
BRANCH   3  17
ATOM     17  S   UNL d   1     -48.207  29.421  35.691  0.00  0.00     0.213 S 
ATOM     18  O   UNL d   1     -48.715  29.741  35.134  0.00  0.00    -0.217 OA
ATOM     19  O   UNL d   1     -47.669  29.127  36.247  0.00  0.00    -0.217 OA
BRANCH  17  20
ATOM     20  C   UNL d   1     -47.706  30.059  35.544  0.00  0.00     0.088 A 
ATOM     21  C   UNL d   1     -47.835  30.531  34.879  0.00  0.00     0.011 A 
ATOM     22  C   UNL d   1     -47.339  31.167  34.727  0.00  0.00     0.001 A 
ATOM     23  C   UNL d   1     -46.714  31.335  35.239  0.00  0.00     0.000 A 
ATOM     24  C   UNL d   1     -46.586  30.860  35.907  0.00  0.00     0.001 A 
ATOM     25  C   UNL d   1     -47.088  30.222  36.052  0.00  0.00     0.011 A 
ENDBRANCH  17  20
ENDBRANCH   3  17
BRANCH   5  26
ATOM     26  C   UNL d   1     -49.461  27.008  34.807  0.00  0.00     0.085 C 
BRANCH  26  27
ATOM     27  C   UNL d   1     -49.980  27.174  34.188  0.00  0.00     0.038 C 
BRANCH  27  28
ATOM     28  C   UNL d   1     -50.025  26.675  33.543  0.00  0.00     0.082 C 
BRANCH  28  29
ATOM     29  N   UNL d   1     -50.652  26.146  33.464  0.00  0.00    -0.299 N 
ATOM     30  C   UNL d   1     -51.423  26.430  33.413  0.00  0.00     0.107 A 
ATOM     31  C   UNL d   1     -52.052  25.914  33.335  0.00  0.00     0.142 A 
ATOM     32  O   UNL d   1     -51.919  25.100  33.306  0.00  0.00    -0.300 OA
ATOM     33  C   UNL d   1     -51.146  24.804  33.356  0.00  0.00     0.142 A 
ATOM     34  C   UNL d   1     -50.507  25.334  33.436  0.00  0.00     0.107 A 
ENDBRANCH  28  29
ENDBRANCH  27  28
ENDBRANCH  26  27
ENDBRANCH   5  26
TORSDOF 6
ENDMDL
