MODEL 1
REMARK VINA RESULT:      -6.5      0.000      0.000
REMARK  4 active torsions:
REMARK  status: ('A' for Active; 'I' for Inactive)
REMARK    1  A    between atoms: C_2  and  C_1 
REMARK    2  A    between atoms: C_3  and  C_1 
REMARK       I    between atoms: N_6  and  C_2 
REMARK    3  A    between atoms: C_13  and  C_3 
REMARK    4  A    between atoms: C_8  and  N_6 
ROOT
ATOM      1  C   UNL d   1     -41.605-123.276 -51.141  0.00  0.00     0.282 C 
ATOM      2  N   UNL d   1     -41.123-122.798 -51.665  0.00  0.00    -0.208 NA
ATOM      3  O   UNL d   1     -42.191-123.771 -51.448  0.00  0.00    -0.265 OA
ENDROOT
BRANCH   1   4
ATOM      4  C   UNL d   1     -41.478-123.237 -50.335  0.00  0.00     0.104 C 
BRANCH   4   5
ATOM      5  C   UNL d   1     -42.126-123.128 -49.826  0.00  0.00     0.200 C 
ATOM      6  O   UNL d   1     -42.864-122.908 -50.129  0.00  0.00    -0.286 OA
BRANCH   5   7
ATOM      7  C   UNL d   1     -42.025-123.241 -49.019  0.00  0.00     0.039 A 
ATOM      8  C   UNL d   1     -41.265-123.254 -48.697  0.00  0.00     0.003 A 
ATOM      9  C   UNL d   1     -41.173-123.369 -47.883  0.00  0.00     0.000 A 
ATOM     10  C   UNL d   1     -41.830-123.469 -47.404  0.00  0.00     0.000 A 
ATOM     11  C   UNL d   1     -42.596-123.455 -47.734  0.00  0.00     0.000 A 
ATOM     12  C   UNL d   1     -42.697-123.342 -48.542  0.00  0.00     0.003 A 
ENDBRANCH   5   7
ENDBRANCH   4   5
ENDBRANCH   1   4
BRANCH   2  13
ATOM     13  C   UNL d   1     -41.266-122.849 -52.496  0.00  0.00     0.087 A 
ATOM     14  C   UNL d   1     -41.538-122.204 -52.905  0.00  0.00     0.046 A 
ATOM     15  C   UNL d   1     -41.673-122.252 -53.694  0.00  0.00     0.124 A 
ATOM     16  O   UNL d   1     -41.953-121.596 -54.126  0.00  0.00    -0.301 OA
ATOM     17  C   UNL d   1     -41.535-122.966 -54.096  0.00  0.00     0.123 A 
ATOM     18  C   UNL d   1     -42.091-121.640 -54.923  0.00  0.00     0.149 A 
ATOM     19  C   UNL d   1     -41.952-122.354 -55.325  0.00  0.00     0.149 A 
ATOM     20  O   UNL d   1     -41.677-123.017 -54.927  0.00  0.00    -0.301 OA
ATOM     21  C   UNL d   1     -41.262-123.625 -53.706  0.00  0.00     0.028 A 
ATOM     22  C   UNL d   1     -41.127-123.562 -52.898  0.00  0.00     0.021 A 
ENDBRANCH   2  13
TORSDOF 4
ENDMDL
MODEL 2
REMARK VINA RESULT:      -6.4      0.996      5.109
REMARK  4 active torsions:
REMARK  status: ('A' for Active; 'I' for Inactive)
REMARK    1  A    between atoms: C_2  and  C_1 
REMARK    2  A    between atoms: C_3  and  C_1 
REMARK       I    between atoms: N_6  and  C_2 
REMARK    3  A    between atoms: C_13  and  C_3 
REMARK    4  A    between atoms: C_8  and  N_6 
ROOT
ATOM      1  C   UNL d   1     -41.493-122.903 -51.989  0.00  0.00     0.282 C 
ATOM      2  N   UNL d   1     -41.817-123.557 -51.539  0.00  0.00    -0.208 NA
ATOM      3  O   UNL d   1     -41.174-122.246 -51.600  0.00  0.00    -0.265 OA
ENDROOT
BRANCH   1   4
ATOM      4  C   UNL d   1     -41.502-122.934 -52.806  0.00  0.00     0.104 C 
BRANCH   4   5
ATOM      5  C   UNL d   1     -41.450-122.227 -53.240  0.00  0.00     0.200 C 
ATOM      6  O   UNL d   1     -41.201-121.528 -52.875  0.00  0.00    -0.286 OA
BRANCH   5   7
ATOM      7  C   UNL d   1     -41.648-122.233 -54.037  0.00  0.00     0.039 A 
ATOM      8  C   UNL d   1     -41.188-122.660 -54.573  0.00  0.00     0.003 A 
ATOM      9  C   UNL d   1     -41.396-122.659 -55.374  0.00  0.00     0.000 A 
ATOM     10  C   UNL d   1     -42.051-122.239 -55.629  0.00  0.00     0.000 A 
ATOM     11  C   UNL d   1     -42.513-121.809 -55.084  0.00  0.00     0.000 A 
ATOM     12  C   UNL d   1     -42.314-121.804 -54.286  0.00  0.00     0.003 A 
ENDBRANCH   5   7
ENDBRANCH   4   5
ENDBRANCH   1   4
BRANCH   2  13
ATOM     13  C   UNL d   1     -41.801-123.510 -50.697  0.00  0.00     0.087 A 
ATOM     14  C   UNL d   1     -42.414-123.166 -50.294  0.00  0.00     0.046 A 
ATOM     15  C   UNL d   1     -42.398-123.121 -49.493  0.00  0.00     0.124 A 
ATOM     16  O   UNL d   1     -43.023-122.769 -49.067  0.00  0.00    -0.301 OA
ATOM     17  C   UNL d   1     -41.751-123.429 -49.072  0.00  0.00     0.123 A 
ATOM     18  C   UNL d   1     -43.011-122.722 -48.258  0.00  0.00     0.149 A 
ATOM     19  C   UNL d   1     -42.364-123.030 -47.838  0.00  0.00     0.149 A 
ATOM     20  O   UNL d   1     -41.734-123.382 -48.230  0.00  0.00    -0.301 OA
ATOM     21  C   UNL d   1     -41.125-123.778 -49.457  0.00  0.00     0.028 A 
ATOM     22  C   UNL d   1     -41.153-123.817 -50.276  0.00  0.00     0.021 A 
ENDBRANCH   2  13
TORSDOF 4
ENDMDL
MODEL 3
REMARK VINA RESULT:      -6.3      0.985      5.195
REMARK  4 active torsions:
REMARK  status: ('A' for Active; 'I' for Inactive)
REMARK    1  A    between atoms: C_2  and  C_1 
REMARK    2  A    between atoms: C_3  and  C_1 
REMARK       I    between atoms: N_6  and  C_2 
REMARK    3  A    between atoms: C_13  and  C_3 
REMARK    4  A    between atoms: C_8  and  N_6 
ROOT
ATOM      1  C   UNL d   1     -41.688-122.717 -51.757  0.00  0.00     0.282 C 
ATOM      2  N   UNL d   1     -41.868-122.154 -51.136  0.00  0.00    -0.208 NA
ATOM      3  O   UNL d   1     -41.723-123.529 -51.608  0.00  0.00    -0.265 OA
ENDROOT
BRANCH   1   4
ATOM      4  C   UNL d   1     -41.483-122.442 -52.499  0.00  0.00     0.104 C 
BRANCH   4   5
ATOM      5  C   UNL d   1     -41.534-122.955 -53.151  0.00  0.00     0.200 C 
ATOM      6  O   UNL d   1     -41.463-123.772 -53.047  0.00  0.00    -0.286 OA
BRANCH   5   7
ATOM      7  C   UNL d   1     -41.656-122.640 -53.899  0.00  0.00     0.039 A 
ATOM      8  C   UNL d   1     -42.171-122.002 -53.999  0.00  0.00     0.003 A 
ATOM      9  C   UNL d   1     -42.288-121.691 -54.757  0.00  0.00     0.000 A 
ATOM     10  C   UNL d   1     -41.895-122.014 -55.399  0.00  0.00     0.000 A 
ATOM     11  C   UNL d   1     -41.375-122.658 -55.294  0.00  0.00     0.000 A 
ATOM     12  C   UNL d   1     -41.253-122.973 -54.545  0.00  0.00     0.003 A 
ENDBRANCH   5   7
ENDBRANCH   4   5
ENDBRANCH   1   4
BRANCH   2  13
ATOM     13  C   UNL d   1     -42.079-122.453 -50.375  0.00  0.00     0.087 A 
ATOM     14  C   UNL d   1     -41.504-122.688 -49.854  0.00  0.00     0.046 A 
ATOM     15  C   UNL d   1     -41.704-122.972 -49.131  0.00  0.00     0.124 A 
ATOM     16  O   UNL d   1     -41.123-123.217 -48.586  0.00  0.00    -0.301 OA
ATOM     17  C   UNL d   1     -42.504-123.026 -48.913  0.00  0.00     0.123 A 
ATOM     18  C   UNL d   1     -41.320-123.504 -47.855  0.00  0.00     0.149 A 
ATOM     19  C   UNL d   1     -42.120-123.558 -47.637  0.00  0.00     0.149 A 
ATOM     20  O   UNL d   1     -42.715-123.325 -48.152  0.00  0.00    -0.301 OA
ATOM     21  C   UNL d   1     -43.097-122.795 -49.420  0.00  0.00     0.028 A 
ATOM     22  C   UNL d   1     -42.879-122.507 -50.157  0.00  0.00     0.021 A 
ENDBRANCH   2  13
TORSDOF 4
ENDMDL
