MODEL 1
REMARK VINA RESULT:      -9.2      0.000      0.000
REMARK  1 active torsions:
REMARK  status: ('A' for Active; 'I' for Inactive)
REMARK    1  A    between atoms: C_12  and  N_2 
ROOT
ATOM      1  C   UNL d   1     -49.111  13.689  23.146  0.00  0.00     0.267 A 
ATOM      2  N   UNL d   1     -48.432  14.082  22.991  0.00  0.00    -0.271 N 
ATOM      3  C   UNL d   1     -49.176  13.016  23.284  0.00  0.00     0.081 A 
ATOM      4  C   UNL d   1     -48.647  12.388  23.344  0.00  0.00     0.105 A 
ATOM      5  O   UNL d   1     -47.945  12.330  23.273  0.00  0.00    -0.305 OA
ATOM      6  C   UNL d   1     -47.669  13.742  22.968  0.00  0.00     0.090 A 
ATOM      7  C   UNL d   1     -47.441  12.935  23.097  0.00  0.00     0.116 A 
ATOM      8  C   UNL d   1     -49.984  12.896  23.402  0.00  0.00     0.028 A 
ATOM      9  O   UNL d   1     -49.804  14.134  23.141  0.00  0.00    -0.267 OA
ATOM     10  C   UNL d   1     -48.922  11.635  23.522  0.00  0.00     0.026 A 
ATOM     11  C   UNL d   1     -50.261  12.141  23.580  0.00  0.00     0.103 A 
ATOM     12  N   UNL d   1     -51.063  12.016  23.698  0.00  0.00    -0.148 N 
ATOM     13  C   UNL d   1     -49.727  11.507  23.641  0.00  0.00     0.023 A 
ATOM     14  C   UNL d   1     -47.074  14.323  22.786  0.00  0.00     0.020 A 
ATOM     15  C   UNL d   1     -46.626  12.705  23.047  0.00  0.00     0.026 A 
ATOM     16  C   UNL d   1     -46.258  14.091  22.736  0.00  0.00     0.002 A 
ATOM     17  C   UNL d   1     -46.035  13.278  22.867  0.00  0.00     0.002 A 
ENDROOT
BRANCH   2  18
ATOM     18  C   UNL d   1     -48.489  14.886  22.842  0.00  0.00     0.083 C 
ATOM     19  C   UNL d   1     -48.890  15.152  22.183  0.00  0.00     0.021 C 
ENDBRANCH   2  18
TORSDOF 1
ENDMDL
MODEL 2
REMARK VINA RESULT:      -9.1      0.948      2.933
REMARK  1 active torsions:
REMARK  status: ('A' for Active; 'I' for Inactive)
REMARK    1  A    between atoms: C_12  and  N_2 
ROOT
ATOM      1  C   UNL d   1     -48.429  14.111  22.873  0.00  0.00     0.267 A 
ATOM      2  N   UNL d   1     -49.206  13.955  22.983  0.00  0.00    -0.271 N 
ATOM      3  C   UNL d   1     -47.903  13.672  22.956  0.00  0.00     0.081 A 
ATOM      4  C   UNL d   1     -47.845  12.882  23.181  0.00  0.00     0.105 A 
ATOM      5  O   UNL d   1     -48.318  12.388  23.364  0.00  0.00    -0.305 OA
ATOM      6  C   UNL d   1     -49.523  13.220  23.223  0.00  0.00     0.090 A 
ATOM      7  C   UNL d   1     -49.117  12.495  23.399  0.00  0.00     0.116 A 
ATOM      8  C   UNL d   1     -47.226  14.107  22.774  0.00  0.00     0.028 A 
ATOM      9  O   UNL d   1     -48.237  14.876  22.635  0.00  0.00    -0.267 OA
ATOM     10  C   UNL d   1     -47.109  12.521  23.224  0.00  0.00     0.026 A 
ATOM     11  C   UNL d   1     -46.487  13.746  22.817  0.00  0.00     0.103 A 
ATOM     12  N   UNL d   1     -45.811  14.173  22.636  0.00  0.00    -0.148 N 
ATOM     13  C   UNL d   1     -46.428  12.948  23.043  0.00  0.00     0.023 A 
ATOM     14  C   UNL d   1     -50.372  13.252  23.285  0.00  0.00     0.020 A 
ATOM     15  C   UNL d   1     -49.551  11.807  23.636  0.00  0.00     0.026 A 
ATOM     16  C   UNL d   1     -50.805  12.560  23.522  0.00  0.00     0.002 A 
ATOM     17  C   UNL d   1     -50.390  11.835  23.698  0.00  0.00     0.002 A 
ENDROOT
BRANCH   2  18
ATOM     18  C   UNL d   1     -49.735  14.567  22.850  0.00  0.00     0.083 C 
ATOM     19  C   UNL d   1     -49.731  15.223  23.335  0.00  0.00     0.021 C 
ENDBRANCH   2  18
TORSDOF 1
ENDMDL
MODEL 3
REMARK VINA RESULT:      -9.0      1.334      2.389
REMARK  1 active torsions:
REMARK  status: ('A' for Active; 'I' for Inactive)
REMARK    1  A    between atoms: C_12  and  N_2 
ROOT
ATOM      1  C   UNL d   1     -47.512  14.063  22.915  0.00  0.00     0.267 A 
ATOM      2  N   UNL d   1     -47.002  13.469  23.079  0.00  0.00    -0.271 N 
ATOM      3  C   UNL d   1     -48.201  14.025  22.910  0.00  0.00     0.081 A 
ATOM      4  C   UNL d   1     -48.745  13.425  23.055  0.00  0.00     0.105 A 
ATOM      5  O   UNL d   1     -48.685  12.742  23.233  0.00  0.00    -0.305 OA
ATOM      6  C   UNL d   1     -47.216  12.686  23.277  0.00  0.00     0.090 A 
ATOM      7  C   UNL d   1     -47.991  12.347  23.349  0.00  0.00     0.116 A 
ATOM      8  C   UNL d   1     -48.458  14.783  22.709  0.00  0.00     0.028 A 
ATOM      9  O   UNL d   1     -47.180  14.794  22.732  0.00  0.00    -0.267 OA
ATOM     10  C   UNL d   1     -49.550  13.577  22.999  0.00  0.00     0.026 A 
ATOM     11  C   UNL d   1     -49.265  14.937  22.653  0.00  0.00     0.103 A 
ATOM     12  N   UNL d   1     -49.526  15.689  22.453  0.00  0.00    -0.148 N 
ATOM     13  C   UNL d   1     -49.814  14.331  22.799  0.00  0.00     0.023 A 
ATOM     14  C   UNL d   1     -46.530  12.201  23.416  0.00  0.00     0.020 A 
ATOM     15  C   UNL d   1     -48.085  11.531  23.558  0.00  0.00     0.026 A 
ATOM     16  C   UNL d   1     -46.626  11.383  23.626  0.00  0.00     0.002 A 
ATOM     17  C   UNL d   1     -47.409  11.049  23.697  0.00  0.00     0.002 A 
ENDROOT
BRANCH   2  18
ATOM     18  C   UNL d   1     -46.201  13.643  23.050  0.00  0.00     0.083 C 
ATOM     19  C   UNL d   1     -45.823  13.707  22.330  0.00  0.00     0.021 C 
ENDBRANCH   2  18
TORSDOF 1
ENDMDL
MODEL 4
REMARK VINA RESULT:      -9.0      1.082      2.240
REMARK  1 active torsions:
REMARK  status: ('A' for Active; 'I' for Inactive)
REMARK    1  A    between atoms: C_12  and  N_2 
ROOT
ATOM      1  C   UNL d   1     -49.085  13.212  22.933  0.00  0.00     0.267 A 
ATOM      2  N   UNL d   1     -48.398  12.803  22.957  0.00  0.00    -0.271 N 
ATOM      3  C   UNL d   1     -49.156  13.897  22.886  0.00  0.00     0.081 A 
ATOM      4  C   UNL d   1     -48.629  14.528  22.840  0.00  0.00     0.105 A 
ATOM      5  O   UNL d   1     -47.923  14.576  22.833  0.00  0.00    -0.305 OA
ATOM      6  C   UNL d   1     -47.633  13.138  22.930  0.00  0.00     0.090 A 
ATOM      7  C   UNL d   1     -47.410  13.955  22.873  0.00  0.00     0.116 A 
ATOM      8  C   UNL d   1     -49.970  14.031  22.881  0.00  0.00     0.028 A 
ATOM      9  O   UNL d   1     -49.779  12.770  22.967  0.00  0.00    -0.267 OA
ATOM     10  C   UNL d   1     -48.912  15.297  22.789  0.00  0.00     0.026 A 
ATOM     11  C   UNL d   1     -50.256  14.802  22.830  0.00  0.00     0.103 A 
ATOM     12  N   UNL d   1     -51.064  14.941  22.825  0.00  0.00    -0.148 N 
ATOM     13  C   UNL d   1     -49.724  15.438  22.784  0.00  0.00     0.023 A 
ATOM     14  C   UNL d   1     -47.030  12.538  22.968  0.00  0.00     0.020 A 
ATOM     15  C   UNL d   1     -46.592  14.176  22.854  0.00  0.00     0.026 A 
ATOM     16  C   UNL d   1     -46.209  12.762  22.949  0.00  0.00     0.002 A 
ATOM     17  C   UNL d   1     -45.993  13.586  22.891  0.00  0.00     0.002 A 
ENDROOT
BRANCH   2  18
ATOM     18  C   UNL d   1     -48.449  11.987  23.013  0.00  0.00     0.083 C 
ATOM     19  C   UNL d   1     -48.742  11.642  23.692  0.00  0.00     0.021 C 
ENDBRANCH   2  18
TORSDOF 1
ENDMDL
MODEL 5
REMARK VINA RESULT:      -8.7      1.139      2.849
REMARK  1 active torsions:
REMARK  status: ('A' for Active; 'I' for Inactive)
REMARK    1  A    between atoms: C_12  and  N_2 
ROOT
ATOM      1  C   UNL d   1     -48.162  13.408  22.835  0.00  0.00     0.267 A 
ATOM      2  N   UNL d   1     -48.929  13.619  22.755  0.00  0.00    -0.271 N 
ATOM      3  C   UNL d   1     -47.923  12.818  23.103  0.00  0.00     0.081 A 
ATOM      4  C   UNL d   1     -48.275  12.147  23.422  0.00  0.00     0.105 A 
ATOM      5  O   UNL d   1     -48.947  11.950  23.529  0.00  0.00    -0.305 OA
ATOM      6  C   UNL d   1     -49.587  13.157  22.984  0.00  0.00     0.090 A 
ATOM      7  C   UNL d   1     -49.599  12.387  23.341  0.00  0.00     0.116 A 
ATOM      8  C   UNL d   1     -47.101  12.878  23.057  0.00  0.00     0.028 A 
ATOM      9  O   UNL d   1     -47.601  13.949  22.571  0.00  0.00    -0.267 OA
ATOM     10  C   UNL d   1     -47.809  11.529  23.698  0.00  0.00     0.026 A 
ATOM     11  C   UNL d   1     -46.632  12.259  23.333  0.00  0.00     0.103 A 
ATOM     12  N   UNL d   1     -45.815  12.313  23.289  0.00  0.00    -0.148 N 
ATOM     13  C   UNL d   1     -46.988  11.581  23.655  0.00  0.00     0.023 A 
ATOM     14  C   UNL d   1     -50.321  13.554  22.816  0.00  0.00     0.020 A 
ATOM     15  C   UNL d   1     -50.335  12.013  23.531  0.00  0.00     0.026 A 
ATOM     16  C   UNL d   1     -51.059  13.178  23.008  0.00  0.00     0.002 A 
ATOM     17  C   UNL d   1     -51.063  12.403  23.367  0.00  0.00     0.002 A 
ENDROOT
BRANCH   2  18
ATOM     18  C   UNL d   1     -49.084  14.351  22.419  0.00  0.00     0.083 C 
ATOM     19  C   UNL d   1     -48.822  15.031  22.785  0.00  0.00     0.021 C 
ENDBRANCH   2  18
TORSDOF 1
ENDMDL
MODEL 6
REMARK VINA RESULT:      -8.4      1.240      2.894
REMARK  1 active torsions:
REMARK  status: ('A' for Active; 'I' for Inactive)
REMARK    1  A    between atoms: C_12  and  N_2 
ROOT
ATOM      1  C   UNL d   1     -48.621  12.167  23.204  0.00  0.00     0.267 A 
ATOM      2  N   UNL d   1     -49.253  12.629  23.041  0.00  0.00    -0.271 N 
ATOM      3  C   UNL d   1     -47.963  12.369  23.249  0.00  0.00     0.081 A 
ATOM      4  C   UNL d   1     -47.576  13.090  23.163  0.00  0.00     0.105 A 
ATOM      5  O   UNL d   1     -47.792  13.748  23.015  0.00  0.00    -0.305 OA
ATOM      6  C   UNL d   1     -49.228  13.451  22.893  0.00  0.00     0.090 A 
ATOM      7  C   UNL d   1     -48.556  13.970  22.880  0.00  0.00     0.116 A 
ATOM      8  C   UNL d   1     -47.538  11.684  23.427  0.00  0.00     0.028 A 
ATOM      9  O   UNL d   1     -48.773  11.368  23.333  0.00  0.00    -0.267 OA
ATOM     10  C   UNL d   1     -46.761  13.133  23.256  0.00  0.00     0.026 A 
ATOM     11  C   UNL d   1     -46.721  11.725  23.520  0.00  0.00     0.103 A 
ATOM     12  N   UNL d   1     -46.293  11.048  23.698  0.00  0.00    -0.148 N 
ATOM     13  C   UNL d   1     -46.330  12.454  23.434  0.00  0.00     0.023 A 
ATOM     14  C   UNL d   1     -50.004  13.764  22.739  0.00  0.00     0.020 A 
ATOM     15  C   UNL d   1     -48.655  14.796  22.716  0.00  0.00     0.026 A 
ATOM     16  C   UNL d   1     -50.101  14.593  22.575  0.00  0.00     0.002 A 
ATOM     17  C   UNL d   1     -49.421  15.109  22.563  0.00  0.00     0.002 A 
ENDROOT
BRANCH   2  18
ATOM     18  C   UNL d   1     -49.988  12.266  23.017  0.00  0.00     0.083 C 
ATOM     19  C   UNL d   1     -50.307  11.945  23.696  0.00  0.00     0.021 C 
ENDBRANCH   2  18
TORSDOF 1
ENDMDL
MODEL 7
REMARK VINA RESULT:      -8.1      1.119      3.513
REMARK  1 active torsions:
REMARK  status: ('A' for Active; 'I' for Inactive)
REMARK    1  A    between atoms: C_12  and  N_2 
ROOT
ATOM      1  C   UNL d   1     -47.236  12.627  23.276  0.00  0.00     0.267 A 
ATOM      2  N   UNL d   1     -47.773  12.065  23.465  0.00  0.00    -0.271 N 
ATOM      3  C   UNL d   1     -47.369  13.272  23.068  0.00  0.00     0.081 A 
ATOM      4  C   UNL d   1     -48.057  13.703  22.938  0.00  0.00     0.105 A 
ATOM      5  O   UNL d   1     -48.747  13.554  22.995  0.00  0.00    -0.305 OA
ATOM      6  C   UNL d   1     -48.603  12.161  23.444  0.00  0.00     0.090 A 
ATOM      7  C   UNL d   1     -49.056  12.846  23.228  0.00  0.00     0.116 A 
ATOM      8  C   UNL d   1     -46.629  13.617  22.947  0.00  0.00     0.028 A 
ATOM      9  O   UNL d   1     -46.443  12.413  23.335  0.00  0.00    -0.267 OA
ATOM     10  C   UNL d   1     -48.012  14.483  22.684  0.00  0.00     0.026 A 
ATOM     11  C   UNL d   1     -46.582  14.399  22.693  0.00  0.00     0.103 A 
ATOM     12  N   UNL d   1     -45.849  14.747  22.571  0.00  0.00    -0.148 N 
ATOM     13  C   UNL d   1     -47.277  14.835  22.561  0.00  0.00     0.023 A 
ATOM     14  C   UNL d   1     -49.005  11.449  23.680  0.00  0.00     0.020 A 
ATOM     15  C   UNL d   1     -49.903  12.824  23.247  0.00  0.00     0.026 A 
ATOM     16  C   UNL d   1     -49.855  11.429  23.698  0.00  0.00     0.002 A 
ATOM     17  C   UNL d   1     -50.303  12.121  23.479  0.00  0.00     0.002 A 
ENDROOT
BRANCH   2  18
ATOM     18  C   UNL d   1     -47.486  11.334  23.698  0.00  0.00     0.083 C 
ATOM     19  C   UNL d   1     -46.781  11.056  23.394  0.00  0.00     0.021 C 
ENDBRANCH   2  18
TORSDOF 1
ENDMDL
