MODEL 1
REMARK VINA RESULT:      -2.1      0.000      0.000
REMARK  4 active torsions:
REMARK  status: ('A' for Active; 'I' for Inactive)
REMARK    1  A    between atoms: N_5  and  C_9 
REMARK    2  A    between atoms: O_11  and  C_8 
REMARK    3  A    between atoms: C_20  and  O_11 
REMARK    4  A    between atoms: C_21  and  C_20 
ROOT
ATOM      1  C   UNL d   1      59.540  -9.776  30.800  0.00  0.00     0.009 A 
ATOM      2  C   UNL d   1      58.750  -9.780  31.023  0.00  0.00     0.046 A 
ATOM      3  C   UNL d   1      59.751  -9.778  30.010  0.00  0.00     0.064 A 
ATOM      4  C   UNL d   1      59.166  -9.786  29.432  0.00  0.00     0.300 A 
ATOM      5  C   UNL d   1      58.156  -9.788  30.454  0.00  0.00     0.105 A 
ATOM      6  O   UNL d   1      58.372  -9.791  29.646  0.00  0.00    -0.273 OA
ATOM      7  C   UNL d   1      58.542  -9.777  31.828  0.00  0.00     0.102 A 
ATOM      8  C   UNL d   1      57.365  -9.792  30.665  0.00  0.00     0.025 A 
ATOM      9  C   UNL d   1      57.737  -9.782  32.049  0.00  0.00     0.025 A 
ATOM     10  O   UNL d   1      59.368  -9.789  28.621  0.00  0.00    -0.259 OA
ATOM     11  C   UNL d   1      57.158  -9.789  31.464  0.00  0.00     0.004 A 
ATOM     12  C   UNL d   1      60.129  -9.768  31.381  0.00  0.00     0.000 A 
ATOM     13  C   UNL d   1      60.545  -9.774  29.783  0.00  0.00     0.005 A 
ATOM     14  C   UNL d   1      56.355  -9.794  31.687  0.00  0.00     0.000 C 
ATOM     15  C   UNL d   1      60.928  -9.763  31.172  0.00  0.00     0.000 A 
ATOM     16  C   UNL d   1      61.133  -9.766  30.364  0.00  0.00     0.000 A 
ENDROOT
BRANCH   7  17
ATOM     17  O   UNL d   1      59.124  -9.770  32.397  0.00  0.00    -0.305 OA
BRANCH  17  18
ATOM     18  C   UNL d   1      58.921  -9.818  33.204  0.00  0.00     0.122 C 
BRANCH  18  19
ATOM     19  C   UNL d   1      59.337  -9.368  33.752  0.00  0.00     0.025 A 
ATOM     20  C   UNL d   1      58.984  -8.704  34.090  0.00  0.00     0.004 A 
ATOM     21  C   UNL d   1      59.389  -8.249  34.637  0.00  0.00     0.024 A 
ATOM     22  C   UNL d   1      60.156  -8.457  34.853  0.00  0.00     0.127 A 
ATOM     23  C   UNL d   1      60.521  -9.119  34.523  0.00  0.00     0.024 A 
ATOM     24  C   UNL d   1      60.104  -9.580  33.965  0.00  0.00     0.004 A 
BRANCH  22  25
ATOM     25  N   UNL d   1      60.573  -8.005  35.403  0.00  0.00    -0.114 N 
ATOM     26  O   UNL d   1      61.091  -7.422  35.158  0.00  0.00    -0.532 OA
ATOM     27  O   UNL d   1      60.461  -8.149  36.209  0.00  0.00    -0.532 OA
ENDBRANCH  22  25
ENDBRANCH  18  19
ENDBRANCH  17  18
ENDBRANCH   7  17
TORSDOF 4
ENDMDL
MODEL 2
REMARK VINA RESULT:      -0.4      8.736      9.140
REMARK  4 active torsions:
REMARK  status: ('A' for Active; 'I' for Inactive)
REMARK    1  A    between atoms: N_5  and  C_9 
REMARK    2  A    between atoms: O_11  and  C_8 
REMARK    3  A    between atoms: C_20  and  O_11 
REMARK    4  A    between atoms: C_21  and  C_20 
ROOT
ATOM      1  C   UNL d   1      59.351  -0.587  30.005  0.00  0.00     0.009 A 
ATOM      2  C   UNL d   1      58.940  -1.216  29.675  0.00  0.00     0.046 A 
ATOM      3  C   UNL d   1      60.074  -0.355  29.703  0.00  0.00     0.064 A 
ATOM      4  C   UNL d   1      60.395  -0.757  29.060  0.00  0.00     0.300 A 
ATOM      5  C   UNL d   1      59.251  -1.626  29.032  0.00  0.00     0.105 A 
ATOM      6  O   UNL d   1      59.991  -1.388  28.723  0.00  0.00    -0.273 OA
ATOM      7  C   UNL d   1      58.205  -1.447  29.987  0.00  0.00     0.102 A 
ATOM      8  C   UNL d   1      58.850  -2.254  28.695  0.00  0.00     0.025 A 
ATOM      9  C   UNL d   1      57.792  -2.088  29.646  0.00  0.00     0.025 A 
ATOM     10  O   UNL d   1      61.133  -0.530  28.742  0.00  0.00    -0.259 OA
ATOM     11  C   UNL d   1      58.120  -2.484  29.004  0.00  0.00     0.004 A 
ATOM     12  C   UNL d   1      59.028  -0.183  30.651  0.00  0.00     0.000 A 
ATOM     13  C   UNL d   1      60.489   0.277  30.034  0.00  0.00     0.005 A 
ATOM     14  C   UNL d   1      57.706  -3.123  28.666  0.00  0.00     0.000 C 
ATOM     15  C   UNL d   1      59.429   0.452  30.995  0.00  0.00     0.000 A 
ATOM     16  C   UNL d   1      60.166   0.681  30.679  0.00  0.00     0.000 A 
ENDROOT
BRANCH   7  17
ATOM     17  O   UNL d   1      57.890  -1.047  30.623  0.00  0.00    -0.305 OA
BRANCH  17  18
ATOM     18  C   UNL d   1      57.135  -1.247  30.910  0.00  0.00     0.122 C 
BRANCH  18  19
ATOM     19  C   UNL d   1      56.848  -0.873  31.585  0.00  0.00     0.025 A 
ATOM     20  C   UNL d   1      56.567  -0.099  31.537  0.00  0.00     0.004 A 
ATOM     21  C   UNL d   1      56.279   0.282  32.202  0.00  0.00     0.024 A 
ATOM     22  C   UNL d   1      56.270  -0.111  32.925  0.00  0.00     0.127 A 
ATOM     23  C   UNL d   1      56.547  -0.885  32.987  0.00  0.00     0.024 A 
ATOM     24  C   UNL d   1      56.841  -1.270  32.305  0.00  0.00     0.004 A 
BRANCH  22  25
ATOM     25  N   UNL d   1      55.982   0.264  33.601  0.00  0.00    -0.114 N 
ATOM     26  O   UNL d   1      55.238   0.604  33.605  0.00  0.00    -0.532 OA
ATOM     27  O   UNL d   1      56.455   0.293  34.278  0.00  0.00    -0.532 OA
ENDBRANCH  22  25
ENDBRANCH  18  19
ENDBRANCH  17  18
ENDBRANCH   7  17
TORSDOF 4
ENDMDL
MODEL 3
REMARK VINA RESULT:      -0.1      9.354     10.840
REMARK  4 active torsions:
REMARK  status: ('A' for Active; 'I' for Inactive)
REMARK    1  A    between atoms: N_5  and  C_9 
REMARK    2  A    between atoms: O_11  and  C_8 
REMARK    3  A    between atoms: C_20  and  O_11 
REMARK    4  A    between atoms: C_21  and  C_20 
ROOT
ATOM      1  C   UNL d   1      57.307   0.659  34.104  0.00  0.00     0.009 A 
ATOM      2  C   UNL d   1      56.501   0.649  33.944  0.00  0.00     0.046 A 
ATOM      3  C   UNL d   1      57.580   0.670  34.874  0.00  0.00     0.064 A 
ATOM      4  C   UNL d   1      57.043   0.671  35.497  0.00  0.00     0.300 A 
ATOM      5  C   UNL d   1      55.954   0.649  34.559  0.00  0.00     0.105 A 
ATOM      6  O   UNL d   1      56.234   0.660  35.347  0.00  0.00    -0.273 OA
ATOM      7  C   UNL d   1      56.230   0.638  33.158  0.00  0.00     0.102 A 
ATOM      8  C   UNL d   1      55.149   0.639  34.412  0.00  0.00     0.025 A 
ATOM      9  C   UNL d   1      55.409   0.627  33.003  0.00  0.00     0.025 A 
ATOM     10  O   UNL d   1      57.309   0.682  36.289  0.00  0.00    -0.259 OA
ATOM     11  C   UNL d   1      54.879   0.628  33.632  0.00  0.00     0.004 A 
ATOM     12  C   UNL d   1      57.847   0.658  33.477  0.00  0.00     0.000 A 
ATOM     13  C   UNL d   1      58.389   0.680  35.037  0.00  0.00     0.005 A 
ATOM     14  C   UNL d   1      54.061   0.618  33.474  0.00  0.00     0.000 C 
ATOM     15  C   UNL d   1      58.660   0.668  33.621  0.00  0.00     0.000 A 
ATOM     16  C   UNL d   1      58.929   0.679  34.410  0.00  0.00     0.000 A 
ENDROOT
BRANCH   7  17
ATOM     17  O   UNL d   1      56.764   0.637  32.544  0.00  0.00    -0.305 OA
BRANCH  17  18
ATOM     18  C   UNL d   1      56.510   0.475  31.768  0.00  0.00     0.122 C 
BRANCH  18  19
ATOM     19  C   UNL d   1      57.046   0.174  31.222  0.00  0.00     0.025 A 
ATOM     20  C   UNL d   1      57.197  -0.637  31.201  0.00  0.00     0.004 A 
ATOM     21  C   UNL d   1      57.729  -0.948  30.662  0.00  0.00     0.024 A 
ATOM     22  C   UNL d   1      58.115  -0.447  30.135  0.00  0.00     0.127 A 
ATOM     23  C   UNL d   1      57.974   0.365  30.145  0.00  0.00     0.024 A 
ATOM     24  C   UNL d   1      57.430   0.678  30.698  0.00  0.00     0.004 A 
BRANCH  22  25
ATOM     25  N   UNL d   1      58.653  -0.751  29.588  0.00  0.00    -0.114 N 
ATOM     26  O   UNL d   1      58.497  -1.450  29.193  0.00  0.00    -0.532 OA
ATOM     27  O   UNL d   1      59.354  -0.339  29.441  0.00  0.00    -0.532 OA
ENDBRANCH  22  25
ENDBRANCH  18  19
ENDBRANCH  17  18
ENDBRANCH   7  17
TORSDOF 4
ENDMDL
