MODEL 1
REMARK VINA RESULT:     128.6      0.000      0.000
REMARK  4 active torsions:
REMARK  status: ('A' for Active; 'I' for Inactive)
REMARK    1  A    between atoms: S_3  and  N_1 
REMARK    2  A    between atoms: C_7  and  C_4 
REMARK    3  A    between atoms: C_12  and  C_5 
REMARK    4  A    between atoms: O_24  and  C_21 
ROOT
ATOM      1  N   UNL d   1      61.729  45.995  50.055  0.00  0.00    -0.155 N 
ATOM      2  N   UNL d   1      61.949  45.216  50.139  0.00  0.00    -0.156 NA
ATOM      3  C   UNL d   1      61.248  46.194  50.679  0.00  0.00     0.096 A 
ATOM      4  C   UNL d   1      61.603  44.931  50.819  0.00  0.00     0.103 A 
ATOM      5  C   UNL d   1      61.166  45.530  51.160  0.00  0.00     0.041 A 
ENDROOT
BRANCH   3   6
ATOM      6  C   UNL d   1      60.900  46.931  50.811  0.00  0.00     0.020 A 
ATOM      7  C   UNL d   1      61.354  47.553  51.106  0.00  0.00     0.022 A 
ATOM      8  C   UNL d   1      61.005  48.289  51.238  0.00  0.00     0.099 A 
ATOM      9  N   UNL d   1      61.459  48.913  51.533  0.00  0.00    -0.241 NA
ATOM     10  C   UNL d   1      60.209  48.402  51.077  0.00  0.00     0.099 A 
ATOM     11  C   UNL d   1      61.107  49.596  51.649  0.00  0.00     0.120 A 
ATOM     12  C   UNL d   1      60.311  49.708  51.488  0.00  0.00     0.120 A 
ATOM     13  N   UNL d   1      59.862  49.138  51.210  0.00  0.00    -0.241 NA
ATOM     14  C   UNL d   1      59.757  47.779  50.783  0.00  0.00     0.021 A 
ATOM     15  C   UNL d   1      60.104  47.043  50.650  0.00  0.00     0.003 A 
ENDBRANCH   3   6
BRANCH   1  16
ATOM     16  S   UNL d   1      61.949  46.498  49.451  0.00  0.00     0.266 S 
ATOM     17  O   UNL d   1      62.525  46.851  49.954  0.00  0.00    -0.203 OA
ATOM     18  O   UNL d   1      62.175  47.017  48.828  0.00  0.00    -0.203 OA
ATOM     19  C   UNL d   1      61.394  46.160  48.963  0.00  0.00     0.165 C 
ENDBRANCH   1  16
BRANCH   4  20
ATOM     20  C   UNL d   1      61.675  44.177  51.115  0.00  0.00     0.020 A 
ATOM     21  C   UNL d   1      61.280  43.949  51.783  0.00  0.00     0.004 A 
ATOM     22  C   UNL d   1      61.348  43.174  52.095  0.00  0.00     0.024 A 
ATOM     23  C   UNL d   1      61.836  42.629  51.705  0.00  0.00     0.094 A 
ATOM     24  C   UNL d   1      62.237  42.877  51.018  0.00  0.00     0.024 A 
ATOM     25  C   UNL d   1      62.162  43.629  50.728  0.00  0.00     0.004 A 
BRANCH  23  26
ATOM     26  O   UNL d   1      61.913  41.899  51.982  0.00  0.00    -0.328 OA
ATOM     27  C   UNL d   1      62.519  41.406  51.703  0.00  0.00     0.181 C 
ENDBRANCH  23  26
ENDBRANCH   4  20
TORSDOF 4
ENDMDL
