MODEL 1
REMARK VINA RESULT:      -4.0      0.000      0.000
REMARK  4 active torsions:
REMARK  status: ('A' for Active; 'I' for Inactive)
REMARK    1  A    between atoms: S_3  and  N_1 
REMARK    2  A    between atoms: C_7  and  C_4 
REMARK    3  A    between atoms: C_8  and  C_5 
REMARK    4  A    between atoms: O_19  and  C_17 
ROOT
ATOM      1  N   UNL d   1      58.148  -0.108  29.887  0.00  0.00    -0.155 N 
ATOM      2  N   UNL d   1      57.640   0.238  30.453  0.00  0.00    -0.155 NA
ATOM      3  C   UNL d   1      57.469  -0.335  31.007  0.00  0.00     0.110 A 
ATOM      4  C   UNL d   1      58.290  -0.894  30.089  0.00  0.00     0.096 A 
ATOM      5  C   UNL d   1      57.865  -1.052  30.799  0.00  0.00     0.041 A 
ENDROOT
BRANCH   4   6
ATOM      6  C   UNL d   1      58.760  -1.432  29.677  0.00  0.00     0.021 A 
ATOM      7  C   UNL d   1      58.419  -2.055  29.274  0.00  0.00     0.026 A 
ATOM      8  C   UNL d   1      58.889  -2.593  28.862  0.00  0.00     0.094 A 
ATOM      9  C   UNL d   1      59.701  -2.509  28.854  0.00  0.00     0.024 A 
ATOM     10  C   UNL d   1      60.051  -1.882  29.260  0.00  0.00     0.002 A 
ATOM     11  C   UNL d   1      59.580  -1.344  29.671  0.00  0.00     0.002 A 
BRANCH   8  12
ATOM     12  O   UNL d   1      58.535  -3.223  28.455  0.00  0.00    -0.328 OA
ATOM     13  C   UNL d   1      58.860  -3.975  28.497  0.00  0.00     0.181 C 
ENDBRANCH   8  12
ENDBRANCH   4   6
BRANCH   1  14
ATOM     14  S   UNL d   1      58.448   0.274  29.243  0.00  0.00     0.266 S 
ATOM     15  O   UNL d   1      59.108   0.525  29.692  0.00  0.00    -0.203 OA
ATOM     16  O   UNL d   1      57.820   0.049  28.775  0.00  0.00    -0.203 OA
ATOM     17  C   UNL d   1      58.781   0.682  28.580  0.00  0.00     0.165 C 
ENDBRANCH   1  14
BRANCH   3  18
ATOM     18  C   UNL d   1      56.987  -0.256  31.677  0.00  0.00     0.049 A 
ATOM     19  S   UNL d   1      56.799   0.470  32.006  0.00  0.00    -0.085 SA
ATOM     20  C   UNL d   1      56.314   0.316  32.657  0.00  0.00     0.035 A 
ATOM     21  C   UNL d   1      56.216  -0.520  32.710  0.00  0.00     0.007 A 
ATOM     22  C   UNL d   1      56.630  -0.860  32.107  0.00  0.00     0.009 A 
ENDBRANCH   3  18
TORSDOF 4
ENDMDL
MODEL 2
REMARK VINA RESULT:      -2.4      1.310      2.416
REMARK  4 active torsions:
REMARK  status: ('A' for Active; 'I' for Inactive)
REMARK    1  A    between atoms: S_3  and  N_1 
REMARK    2  A    between atoms: C_7  and  C_4 
REMARK    3  A    between atoms: C_8  and  C_5 
REMARK    4  A    between atoms: O_19  and  C_17 
ROOT
ATOM      1  N   UNL d   1      57.998  -1.117  30.270  0.00  0.00    -0.155 N 
ATOM      2  N   UNL d   1      57.423  -1.222  30.868  0.00  0.00    -0.155 NA
ATOM      3  C   UNL d   1      57.308  -0.498  31.224  0.00  0.00     0.110 A 
ATOM      4  C   UNL d   1      58.238  -0.329  30.256  0.00  0.00     0.096 A 
ATOM      5  C   UNL d   1      57.809   0.076  30.857  0.00  0.00     0.041 A 
ENDROOT
BRANCH   4   6
ATOM      6  C   UNL d   1      58.796   0.008  29.751  0.00  0.00     0.021 A 
ATOM      7  C   UNL d   1      59.549   0.176  30.020  0.00  0.00     0.026 A 
ATOM      8  C   UNL d   1      60.107   0.513  29.514  0.00  0.00     0.094 A 
ATOM      9  C   UNL d   1      59.913   0.682  28.739  0.00  0.00     0.024 A 
ATOM     10  C   UNL d   1      59.154   0.514  28.463  0.00  0.00     0.002 A 
ATOM     11  C   UNL d   1      58.596   0.177  28.969  0.00  0.00     0.002 A 
BRANCH   8  12
ATOM     12  O   UNL d   1      60.870   0.681  29.795  0.00  0.00    -0.328 OA
ATOM     13  C   UNL d   1      61.022   0.672  30.601  0.00  0.00     0.181 C 
ENDBRANCH   8  12
ENDBRANCH   4   6
BRANCH   1  14
ATOM     14  S   UNL d   1      58.270  -1.701  29.786  0.00  0.00     0.266 S 
ATOM     15  O   UNL d   1      58.848  -1.911  30.353  0.00  0.00    -0.203 OA
ATOM     16  O   UNL d   1      57.722  -1.525  29.210  0.00  0.00    -0.203 OA
ATOM     17  C   UNL d   1      58.572  -2.320  29.293  0.00  0.00     0.165 C 
ENDBRANCH   1  14
BRANCH   3  18
ATOM     18  C   UNL d   1      56.791  -0.323  31.847  0.00  0.00     0.049 A 
ATOM     19  S   UNL d   1      56.386  -0.900  32.264  0.00  0.00    -0.085 SA
ATOM     20  C   UNL d   1      55.934  -0.507  32.833  0.00  0.00     0.035 A 
ATOM     21  C   UNL d   1      56.077   0.320  32.747  0.00  0.00     0.007 A 
ATOM     22  C   UNL d   1      56.602   0.422  32.142  0.00  0.00     0.009 A 
ENDBRANCH   3  18
TORSDOF 4
ENDMDL
