MODEL 1
REMARK VINA RESULT:      37.1      0.000      0.000
REMARK  4 active torsions:
REMARK  status: ('A' for Active; 'I' for Inactive)
REMARK    1  A    between atoms: C_15  and  C_2 
REMARK    2  A    between atoms: C_5  and  S_13 
REMARK       I    between atoms: C_11  and  N_8 
REMARK    3  A    between atoms: C_18  and  C_11 
REMARK    4  A    between atoms: S_13  and  C_18 
ROOT
ATOM      1  N   UNL d   1      14.985  13.152  -0.584  0.00  0.00    -0.272 N 
ATOM      2  C   UNL d   1      14.919  12.340  -0.570  0.00  0.00     0.271 C 
ATOM      3  C   UNL d   1      15.103  14.797  -0.628  0.00  0.00     0.023 A 
ATOM      4  C   UNL d   1      15.507  13.547  -0.086  0.00  0.00     0.083 A 
ATOM      5  C   UNL d   1      14.514  13.589  -1.112  0.00  0.00     0.083 A 
ATOM      6  O   UNL d   1      15.375  11.904  -0.057  0.00  0.00    -0.266 OA
ATOM      7  C   UNL d   1      15.567  14.370  -0.108  0.00  0.00     0.021 A 
ATOM      8  C   UNL d   1      14.579  14.413  -1.128  0.00  0.00     0.021 A 
ENDROOT
BRANCH   2   9
ATOM      9  C   UNL d   1      14.386  11.954  -1.079  0.00  0.00     0.099 C 
BRANCH   9  10
ATOM     10  S   UNL d   1      14.594  11.824  -1.868  0.00  0.00    -0.054 SA
BRANCH  10  11
ATOM     11  C   UNL d   1      14.011  11.829  -2.469  0.00  0.00     0.164 A 
ATOM     12  S   UNL d   1      14.149  11.834  -3.282  0.00  0.00    -0.039 SA
ATOM     13  C   UNL d   1      13.410  11.838  -3.665  0.00  0.00     0.134 A 
ATOM     14  C   UNL d   1      13.289  11.844  -4.491  0.00  0.00     0.030 C 
ATOM     15  N   UNL d   1      12.815  11.836  -3.082  0.00  0.00    -0.140 NA
ATOM     16  N   UNL d   1      13.188  11.830  -2.334  0.00  0.00    -0.134 NA
ENDBRANCH  10  11
ENDBRANCH   9  10
ENDBRANCH   2   9
BRANCH   3  17
ATOM     17  C   UNL d   1      15.157  15.610  -0.654  0.00  0.00     0.110 A 
ATOM     18  N   UNL d   1      15.280  16.099  -0.014  0.00  0.00    -0.126 NA
ATOM     19  O   UNL d   1      15.299  16.881  -0.281  0.00  0.00    -0.211 OA
ATOM     20  C   UNL d   1      15.188  16.868  -1.085  0.00  0.00     0.127 A 
ATOM     21  C   UNL d   1      15.152  17.465  -1.653  0.00  0.00     0.029 A 
ATOM     22  C   UNL d   1      15.099  16.078  -1.321  0.00  0.00     0.047 A 
ATOM     23  C   UNL d   1      15.032  17.282  -2.434  0.00  0.00     0.032 A 
ATOM     24  C   UNL d   1      14.941  16.495  -2.683  0.00  0.00     0.140 A 
ATOM     25  C   UNL d   1      14.978  15.896  -2.102  0.00  0.00     0.033 A 
ATOM     26  F   UNL d   1      14.821  16.312  -3.464  0.00  0.00    -0.204 F 
ENDBRANCH   3  17
TORSDOF 4
ENDMDL
