MODEL 1
REMARK VINA RESULT:      12.9      0.000      0.000
REMARK  3 active torsions:
REMARK  status: ('A' for Active; 'I' for Inactive)
REMARK    1  A    between atoms: C_5  and  C_1 
REMARK    2  A    between atoms: C_4  and  C_6 
REMARK    3  A    between atoms: C_6  and  C_5 
ROOT
ATOM      1  C   UNL d   1      45.620 -16.679  44.589  0.00  0.00     0.068 C 
ENDROOT
BRANCH   1   2
ATOM      2  C   UNL d   1      45.600 -15.849  44.587  0.00  0.00     0.114 A 
ATOM      3  N   UNL d   1      44.992 -15.379  44.282  0.00  0.00    -0.238 NA
ATOM      4  C   UNL d   1      45.205 -14.588  44.398  0.00  0.00     0.088 A 
ATOM      5  C   UNL d   1      44.821 -13.882  44.209  0.00  0.00     0.020 A 
ATOM      6  C   UNL d   1      45.940 -14.567  44.772  0.00  0.00     0.049 A 
ATOM      7  C   UNL d   1      45.171 -13.158  44.394  0.00  0.00     0.002 A 
ATOM      8  C   UNL d   1      45.906 -13.146  44.767  0.00  0.00     0.001 A 
ATOM      9  C   UNL d   1      46.287 -13.849  44.955  0.00  0.00     0.008 A 
ATOM     10  S   UNL d   1      46.184 -15.353  44.888  0.00  0.00    -0.066 SA
ENDBRANCH   1   2
BRANCH   1  11
ATOM     11  C   UNL d   1      46.089 -17.077  44.033  0.00  0.00     0.201 C 
ATOM     12  O   UNL d   1      46.419 -16.672  43.393  0.00  0.00    -0.286 OA
BRANCH  11  13
ATOM     13  C   UNL d   1      46.229 -17.893  44.123  0.00  0.00     0.078 A 
ATOM     14  C   UNL d   1      46.431 -18.355  43.458  0.00  0.00     0.202 A 
ATOM     15  C   UNL d   1      46.570 -19.164  43.544  0.00  0.00     0.084 A 
ATOM     16  O   UNL d   1      46.492 -18.004  42.714  0.00  0.00    -0.286 OA
ATOM     17  C   UNL d   1      46.507 -19.510  44.295  0.00  0.00     0.199 A 
ATOM     18  C   UNL d   1      46.308 -19.052  44.953  0.00  0.00     0.042 A 
ATOM     19  O   UNL d   1      46.647 -20.319  44.380  0.00  0.00    -0.286 OA
ATOM     20  C   UNL d   1      46.168 -18.243  44.868  0.00  0.00     0.010 A 
ENDBRANCH  11  13
ENDBRANCH   1  11
TORSDOF 3
ENDMDL
MODEL 2
REMARK VINA RESULT:      13.3      1.608      4.601
REMARK  3 active torsions:
REMARK  status: ('A' for Active; 'I' for Inactive)
REMARK    1  A    between atoms: C_5  and  C_1 
REMARK    2  A    between atoms: C_4  and  C_6 
REMARK    3  A    between atoms: C_6  and  C_5 
ROOT
ATOM      1  C   UNL d   1      46.195 -16.511  43.932  0.00  0.00     0.068 C 
ENDROOT
BRANCH   1   2
ATOM      2  C   UNL d   1      46.239 -17.338  43.881  0.00  0.00     0.114 A 
ATOM      3  N   UNL d   1      46.384 -17.856  44.508  0.00  0.00    -0.238 NA
ATOM      4  C   UNL d   1      46.380 -18.626  44.205  0.00  0.00     0.088 A 
ATOM      5  C   UNL d   1      46.491 -19.359  44.567  0.00  0.00     0.020 A 
ATOM      6  C   UNL d   1      46.233 -18.586  43.394  0.00  0.00     0.049 A 
ATOM      7  C   UNL d   1      46.456 -20.052  44.118  0.00  0.00     0.002 A 
ATOM      8  C   UNL d   1      46.309 -20.003  43.308  0.00  0.00     0.001 A 
ATOM      9  C   UNL d   1      46.198 -19.272  42.950  0.00  0.00     0.008 A 
ATOM     10  S   UNL d   1      46.146 -17.784  43.194  0.00  0.00    -0.066 SA
ENDBRANCH   1   2
BRANCH   1  11
ATOM     11  C   UNL d   1      45.690 -16.163  44.490  0.00  0.00     0.201 C 
ATOM     12  O   UNL d   1      45.191 -16.631  44.955  0.00  0.00    -0.286 OA
BRANCH  11  13
ATOM     13  C   UNL d   1      45.686 -15.336  44.581  0.00  0.00     0.078 A 
ATOM     14  C   UNL d   1      44.985 -14.947  44.814  0.00  0.00     0.202 A 
ATOM     15  C   UNL d   1      44.978 -14.127  44.905  0.00  0.00     0.084 A 
ATOM     16  O   UNL d   1      44.298 -15.382  44.954  0.00  0.00    -0.286 OA
ATOM     17  C   UNL d   1      45.672 -13.696  44.763  0.00  0.00     0.199 A 
ATOM     18  C   UNL d   1      46.366 -14.081  44.532  0.00  0.00     0.042 A 
ATOM     19  O   UNL d   1      45.665 -12.876  44.854  0.00  0.00    -0.286 OA
ATOM     20  C   UNL d   1      46.373 -14.901  44.440  0.00  0.00     0.010 A 
ENDBRANCH  11  13
ENDBRANCH   1  11
TORSDOF 3
ENDMDL
