MODEL 1
REMARK VINA RESULT:      -6.2      0.000      0.000
REMARK  5 active torsions:
REMARK  status: ('A' for Active; 'I' for Inactive)
REMARK    1  A    between atoms: N_2  and  C_1 
REMARK    2  A    between atoms: C_6  and  C_1 
REMARK    3  A    between atoms: O_4  and  N_2 
REMARK    4  A    between atoms: C_3  and  O_4 
REMARK    5  A    between atoms: C_5  and  C_3 
ROOT
ATOM      1  O   UNL d   1     -41.510-122.749 -51.884  0.00  0.00    -0.168 OA
ENDROOT
BRANCH   1   2
ATOM      2  C   UNL d   1     -41.483-122.251 -51.122  0.00  0.00     0.319 C 
ATOM      3  O   UNL d   1     -41.123-121.430 -51.125  0.00  0.00    -0.257 OA
BRANCH   2   4
ATOM      4  C   UNL d   1     -41.794-122.558 -50.418  0.00  0.00     0.066 A 
ATOM      5  C   UNL d   1     -41.297-123.001 -49.919  0.00  0.00     0.012 A 
ATOM      6  C   UNL d   1     -41.619-123.305 -49.215  0.00  0.00     0.035 A 
ATOM      7 BR   UNL d   1     -41.123-123.745 -48.719  0.00  0.00    -0.049 Br
ATOM      8  C   UNL d   1     -42.406-123.174 -49.012  0.00  0.00     0.007 A 
ATOM      9  C   UNL d   1     -42.871-122.732 -49.529  0.00  0.00     0.001 A 
ATOM     10  C   UNL d   1     -42.578-122.429 -50.216  0.00  0.00     0.005 A 
ENDBRANCH   2   4
ENDBRANCH   1   2
BRANCH   1  11
ATOM     11  N   UNL d   1     -41.458-122.398 -52.617  0.00  0.00    -0.100 NA
BRANCH  11  12
ATOM     12  C   UNL d   1     -41.442-122.844 -53.305  0.00  0.00     0.228 C 
ATOM     13  N   UNL d   1     -41.162-123.617 -53.275  0.00  0.00    -0.123 N 
BRANCH  12  14
ATOM     14  C   UNL d   1     -41.697-122.540 -54.019  0.00  0.00     0.121 A 
ATOM     15  N   UNL d   1     -42.421-122.171 -54.074  0.00  0.00    -0.241 NA
ATOM     16  C   UNL d   1     -42.675-121.862 -54.805  0.00  0.00     0.099 A 
ATOM     17  C   UNL d   1     -42.190-121.933 -55.470  0.00  0.00     0.021 A 
ATOM     18  C   UNL d   1     -41.453-122.309 -55.412  0.00  0.00     0.003 A 
ATOM     19  C   UNL d   1     -41.211-122.611 -54.684  0.00  0.00     0.022 A 
ENDBRANCH  12  14
ENDBRANCH  11  12
ENDBRANCH   1  11
TORSDOF 5
ENDMDL
MODEL 2
REMARK VINA RESULT:      -4.5      1.912      4.695
REMARK  5 active torsions:
REMARK  status: ('A' for Active; 'I' for Inactive)
REMARK    1  A    between atoms: N_2  and  C_1 
REMARK    2  A    between atoms: C_6  and  C_1 
REMARK    3  A    between atoms: O_4  and  N_2 
REMARK    4  A    between atoms: C_3  and  O_4 
REMARK    5  A    between atoms: C_5  and  C_3 
ROOT
ATOM      1  O   UNL d   1     -41.551-122.399 -52.727  0.00  0.00    -0.168 OA
ENDROOT
BRANCH   1   2
ATOM      2  C   UNL d   1     -41.569-122.892 -53.492  0.00  0.00     0.319 C 
ATOM      3  O   UNL d   1     -41.418-123.776 -53.469  0.00  0.00    -0.257 OA
BRANCH   2   4
ATOM      4  C   UNL d   1     -41.725-122.523 -54.217  0.00  0.00     0.066 A 
ATOM      5  C   UNL d   1     -42.502-122.531 -54.512  0.00  0.00     0.012 A 
ATOM      6  C   UNL d   1     -42.648-122.158 -55.241  0.00  0.00     0.035 A 
ATOM      7 BR   UNL d   1     -43.423-122.167 -55.534  0.00  0.00    -0.049 Br
ATOM      8  C   UNL d   1     -42.044-121.789 -55.662  0.00  0.00     0.007 A 
ATOM      9  C   UNL d   1     -41.285-121.799 -55.342  0.00  0.00     0.001 A 
ATOM     10  C   UNL d   1     -41.124-122.156 -54.637  0.00  0.00     0.005 A 
ENDBRANCH   2   4
ENDBRANCH   1   2
BRANCH   1  11
ATOM     11  N   UNL d   1     -41.582-122.755 -51.995  0.00  0.00    -0.100 NA
BRANCH  11  12
ATOM     12  C   UNL d   1     -41.517-122.320 -51.304  0.00  0.00     0.228 C 
ATOM     13  N   UNL d   1     -41.141-121.588 -51.325  0.00  0.00    -0.123 N 
BRANCH  12  14
ATOM     14  C   UNL d   1     -41.814-122.596 -50.594  0.00  0.00     0.121 A 
ATOM     15  N   UNL d   1     -42.597-122.476 -50.403  0.00  0.00    -0.241 NA
ATOM     16  C   UNL d   1     -42.894-122.760 -49.678  0.00  0.00     0.099 A 
ATOM     17  C   UNL d   1     -42.392-123.161 -49.158  0.00  0.00     0.021 A 
ATOM     18  C   UNL d   1     -41.596-123.281 -49.356  0.00  0.00     0.003 A 
ATOM     19  C   UNL d   1     -41.312-122.997 -50.075  0.00  0.00     0.022 A 
ENDBRANCH  12  14
ENDBRANCH  11  12
ENDBRANCH   1  11
TORSDOF 5
ENDMDL
MODEL 3
REMARK VINA RESULT:      -4.5      1.077      1.676
REMARK  5 active torsions:
REMARK  status: ('A' for Active; 'I' for Inactive)
REMARK    1  A    between atoms: N_2  and  C_1 
REMARK    2  A    between atoms: C_6  and  C_1 
REMARK    3  A    between atoms: O_4  and  N_2 
REMARK    4  A    between atoms: C_3  and  O_4 
REMARK    5  A    between atoms: C_5  and  C_3 
ROOT
ATOM      1  O   UNL d   1     -41.914-122.358 -50.774  0.00  0.00    -0.168 OA
ENDROOT
BRANCH   1   2
ATOM      2  C   UNL d   1     -42.454-122.737 -50.147  0.00  0.00     0.319 C 
ATOM      3  O   UNL d   1     -43.342-122.770 -50.268  0.00  0.00    -0.257 OA
BRANCH   2   4
ATOM      4  C   UNL d   1     -42.123-123.057 -49.458  0.00  0.00     0.066 A 
ATOM      5  C   UNL d   1     -42.500-122.917 -48.730  0.00  0.00     0.012 A 
ATOM      6  C   UNL d   1     -42.160-123.242 -48.044  0.00  0.00     0.035 A 
ATOM      7 BR   UNL d   1     -42.536-123.101 -47.320  0.00  0.00    -0.049 Br
ATOM      8  C   UNL d   1     -41.471-123.690 -48.079  0.00  0.00     0.007 A 
ATOM      9  C   UNL d   1     -41.123-123.810 -48.816  0.00  0.00     0.001 A 
ATOM     10  C   UNL d   1     -41.437-123.504 -49.492  0.00  0.00     0.005 A 
ENDBRANCH   2   4
ENDBRANCH   1   2
BRANCH   1  11
ATOM     11  N   UNL d   1     -41.931-122.605 -51.550  0.00  0.00    -0.100 NA
BRANCH  11  12
ATOM     12  C   UNL d   1     -41.523-122.204 -52.137  0.00  0.00     0.228 C 
ATOM     13  N   UNL d   1     -41.123-121.512 -51.945  0.00  0.00    -0.123 N 
BRANCH  12  14
ATOM     14  C   UNL d   1     -41.505-122.475 -52.908  0.00  0.00     0.121 A 
ATOM     15  N   UNL d   1     -41.818-122.023 -53.509  0.00  0.00    -0.241 NA
ATOM     16  C   UNL d   1     -41.796-122.305 -54.294  0.00  0.00     0.099 A 
ATOM     17  C   UNL d   1     -41.458-123.041 -54.455  0.00  0.00     0.021 A 
ATOM     18  C   UNL d   1     -41.141-123.499 -53.841  0.00  0.00     0.003 A 
ATOM     19  C   UNL d   1     -41.168-123.211 -53.069  0.00  0.00     0.022 A 
ENDBRANCH  12  14
ENDBRANCH  11  12
ENDBRANCH   1  11
TORSDOF 5
ENDMDL
