MODEL 1
REMARK VINA RESULT:      48.0      0.000      0.000
REMARK  5 active torsions:
REMARK  status: ('A' for Active; 'I' for Inactive)
REMARK    1  A    between atoms: C_9  and  C_2 
REMARK    2  A    between atoms: O_8  and  C_4 
REMARK    3  A    between atoms: C_14  and  O_8 
REMARK    4  A    between atoms: N_11  and  C_9 
REMARK    5  A    between atoms: O_20  and  C_18 
ROOT
ATOM      1  C   UNL d   1      13.378  13.928  -3.710  0.00  0.00     0.108 A 
ATOM      2  C   UNL d   1      13.319  14.645  -4.125  0.00  0.00     0.079 A 
ATOM      3  C   UNL d   1      13.293  13.204  -4.113  0.00  0.00     0.064 A 
ATOM      4  C   UNL d   1      13.497  12.494  -2.880  0.00  0.00     0.163 A 
ATOM      5  C   UNL d   1      13.352  12.498  -3.702  0.00  0.00     0.222 A 
ATOM      6  O   UNL d   1      13.523  13.940  -2.892  0.00  0.00    -0.303 OA
ATOM      7  C   UNL d   1      13.583  13.221  -2.475  0.00  0.00     0.150 A 
ATOM      8  C   UNL d   1      13.149  13.215  -4.931  0.00  0.00     0.009 A 
ATOM      9  C   UNL d   1      13.176  14.643  -4.935  0.00  0.00     0.199 A 
ATOM     10  O   UNL d   1      13.269  11.779  -4.098  0.00  0.00    -0.284 OA
ATOM     11  C   UNL d   1      13.091  13.929  -5.338  0.00  0.00     0.042 A 
ATOM     12  O   UNL d   1      13.117  15.356  -5.343  0.00  0.00    -0.286 OA
ENDROOT
BRANCH   4  13
ATOM     13  O   UNL d   1      13.556  11.784  -2.471  0.00  0.00    -0.302 OA
BRANCH  13  14
ATOM     14  C   UNL d   1      13.642  11.786  -1.652  0.00  0.00     0.102 A 
ATOM     15  C   UNL d   1      14.394  11.794  -1.319  0.00  0.00     0.049 A 
ATOM     16  C   UNL d   1      14.480  11.796  -0.500  0.00  0.00     0.096 A 
ATOM     17  C   UNL d   1      13.813  11.789  -0.014  0.00  0.00     0.024 A 
ATOM     18  C   UNL d   1      13.053  11.781  -0.358  0.00  0.00     0.004 A 
ATOM     19  C   UNL d   1      12.975  11.779  -1.173  0.00  0.00     0.025 A 
BRANCH  16  20
ATOM     20  O   UNL d   1      15.233  11.805  -0.167  0.00  0.00    -0.328 OA
ATOM     21  C   UNL d   1      15.660  12.509  -0.138  0.00  0.00     0.181 C 
ENDBRANCH  16  20
ENDBRANCH  13  14
ENDBRANCH   4  13
BRANCH   2  22
ATOM     22  C   UNL d   1      13.403  15.353  -3.725  0.00  0.00     0.086 C 
BRANCH  22  23
ATOM     23  N   UNL d   1      14.086  15.805  -3.829  0.00  0.00    -0.299 N 
ATOM     24  C   UNL d   1      14.580  15.949  -3.187  0.00  0.00     0.107 A 
ATOM     25  C   UNL d   1      15.264  16.403  -3.294  0.00  0.00     0.142 A 
ATOM     26  O   UNL d   1      15.447  16.708  -4.038  0.00  0.00    -0.300 OA
ATOM     27  C   UNL d   1      14.947  16.561  -4.680  0.00  0.00     0.142 A 
ATOM     28  C   UNL d   1      14.266  16.109  -4.574  0.00  0.00     0.107 A 
ENDBRANCH  22  23
ENDBRANCH   2  22
TORSDOF 5
ENDMDL
