MODEL 1
REMARK VINA RESULT:      44.2      0.000      0.000
REMARK  7 active torsions:
REMARK  status: ('A' for Active; 'I' for Inactive)
REMARK    1  A    between atoms: C_11  and  C_3 
REMARK    2  A    between atoms: C_10  and  C_4 
REMARK    3  A    between atoms: O_15  and  C_10 
REMARK    4  A    between atoms: N_14  and  C_11 
REMARK    5  A    between atoms: C_20  and  N_14 
REMARK    6  A    between atoms: C_22  and  O_15 
REMARK    7  A    between atoms: C_21  and  C_20 
ROOT
ATOM      1  C   UNL d   1      45.089 -13.926  44.237  0.00  0.00     0.035 A 
ATOM      2  C   UNL d   1      45.816 -14.315  44.222  0.00  0.00     0.100 A 
ATOM      3  C   UNL d   1      44.413 -14.331  44.480  0.00  0.00     0.060 A 
ATOM      4  C   UNL d   1      45.187 -13.140  43.986  0.00  0.00     0.088 A 
ATOM      5  O   UNL d   1      46.379 -13.750  43.952  0.00  0.00    -0.307 OA
ATOM      6  C   UNL d   1      45.985 -13.037  43.811  0.00  0.00     0.105 A 
ATOM      7  C   UNL d   1      44.465 -15.124  44.707  0.00  0.00     0.197 A 
ATOM      8  C   UNL d   1      45.866 -15.099  44.446  0.00  0.00     0.026 A 
ATOM      9  C   UNL d   1      45.191 -15.504  44.688  0.00  0.00     0.041 A 
ATOM     10  O   UNL d   1      43.778 -15.536  44.953  0.00  0.00    -0.286 OA
ATOM     11  C   UNL d   1      46.340 -12.305  43.529  0.00  0.00     0.027 C 
ATOM     12  C   UNL d   1      46.599 -15.496  44.432  0.00  0.00     0.002 A 
ATOM     13  C   UNL d   1      45.247 -16.305  44.917  0.00  0.00     0.003 A 
ATOM     14  C   UNL d   1      45.970 -16.681  44.898  0.00  0.00     0.000 A 
ATOM     15  C   UNL d   1      46.646 -16.276  44.655  0.00  0.00     0.000 A 
ENDROOT
BRANCH   3  16
ATOM     16  C   UNL d   1      43.692 -13.911  44.485  0.00  0.00     0.102 C 
BRANCH  16  17
ATOM     17  N   UNL d   1      43.007 -14.285  44.803  0.00  0.00    -0.239 NA
BRANCH  17  18
ATOM     18  C   UNL d   1      42.284 -14.232  44.387  0.00  0.00     0.144 C 
BRANCH  18  19
ATOM     19  C   UNL d   1      41.579 -14.238  44.807  0.00  0.00     0.255 C 
ATOM     20  O   UNL d   1      41.167 -14.940  44.937  0.00  0.00    -0.281 OA
ENDBRANCH  18  19
ENDBRANCH  17  18
ENDBRANCH  16  17
ENDBRANCH   3  16
BRANCH   4  21
ATOM     21  C   UNL d   1      44.598 -12.523  43.909  0.00  0.00     0.302 C 
ATOM     22  O   UNL d   1      44.079 -12.362  44.528  0.00  0.00    -0.259 OA
BRANCH  21  23
ATOM     23  O   UNL d   1      44.563 -12.104  43.214  0.00  0.00    -0.271 OA
BRANCH  23  24
ATOM     24  C   UNL d   1      44.065 -12.332  42.601  0.00  0.00     0.126 C 
ATOM     25  C   UNL d   1      44.228 -12.091  41.823  0.00  0.00     0.029 C 
ENDBRANCH  23  24
ENDBRANCH  21  23
ENDBRANCH   4  21
TORSDOF 7
ENDMDL
MODEL 2
REMARK VINA RESULT:      44.4      3.344      4.751
REMARK  7 active torsions:
REMARK  status: ('A' for Active; 'I' for Inactive)
REMARK    1  A    between atoms: C_11  and  C_3 
REMARK    2  A    between atoms: C_10  and  C_4 
REMARK    3  A    between atoms: O_15  and  C_10 
REMARK    4  A    between atoms: N_14  and  C_11 
REMARK    5  A    between atoms: C_20  and  N_14 
REMARK    6  A    between atoms: C_22  and  O_15 
REMARK    7  A    between atoms: C_21  and  C_20 
ROOT
ATOM      1  C   UNL d   1      46.197 -17.853  43.135  0.00  0.00     0.035 A 
ATOM      2  C   UNL d   1      46.299 -17.905  42.318  0.00  0.00     0.100 A 
ATOM      3  C   UNL d   1      46.211 -18.538  43.594  0.00  0.00     0.060 A 
ATOM      4  C   UNL d   1      46.092 -17.058  43.352  0.00  0.00     0.088 A 
ATOM      5  O   UNL d   1      46.255 -17.117  42.024  0.00  0.00    -0.307 OA
ATOM      6  C   UNL d   1      46.128 -16.608  42.664  0.00  0.00     0.105 A 
ATOM      7  C   UNL d   1      46.327 -19.274  43.235  0.00  0.00     0.197 A 
ATOM      8  C   UNL d   1      46.413 -18.634  41.965  0.00  0.00     0.026 A 
ATOM      9  C   UNL d   1      46.427 -19.318  42.423  0.00  0.00     0.041 A 
ATOM     10  O   UNL d   1      46.341 -19.970  43.702  0.00  0.00    -0.286 OA
ATOM     11  C   UNL d   1      46.047 -15.752  42.626  0.00  0.00     0.027 C 
ATOM     12  C   UNL d   1      46.517 -18.691  41.140  0.00  0.00     0.002 A 
ATOM     13  C   UNL d   1      46.545 -20.059  42.058  0.00  0.00     0.003 A 
ATOM     14  C   UNL d   1      46.644 -20.100  41.250  0.00  0.00     0.000 A 
ATOM     15  C   UNL d   1      46.630 -19.416  40.791  0.00  0.00     0.000 A 
ENDROOT
BRANCH   3  16
ATOM     16  C   UNL d   1      46.105 -18.454  44.417  0.00  0.00     0.102 C 
BRANCH  16  17
ATOM     17  N   UNL d   1      45.353 -18.632  44.750  0.00  0.00    -0.239 NA
BRANCH  17  18
ATOM     18  C   UNL d   1      45.174 -19.423  44.954  0.00  0.00     0.144 C 
BRANCH  18  19
ATOM     19  C   UNL d   1      44.392 -19.670  44.953  0.00  0.00     0.255 C 
ATOM     20  O   UNL d   1      44.153 -20.326  44.514  0.00  0.00    -0.281 OA
ENDBRANCH  18  19
ENDBRANCH  17  18
ENDBRANCH  16  17
ENDBRANCH   3  16
BRANCH   4  21
ATOM     21  C   UNL d   1      45.966 -16.728  44.133  0.00  0.00     0.302 C 
ATOM     22  O   UNL d   1      46.306 -17.081  44.795  0.00  0.00    -0.259 OA
BRANCH  21  23
ATOM     23  O   UNL d   1      45.507 -16.061  44.203  0.00  0.00    -0.271 OA
BRANCH  23  24
ATOM     24  C   UNL d   1      45.407 -15.684  44.926  0.00  0.00     0.126 C 
ATOM     25  C   UNL d   1      45.254 -14.869  44.950  0.00  0.00     0.029 C 
ENDBRANCH  23  24
ENDBRANCH  21  23
ENDBRANCH   4  21
TORSDOF 7
ENDMDL
