MODEL 1
REMARK VINA RESULT:      -4.0      0.000      0.000
REMARK  6 active torsions:
REMARK  status: ('A' for Active; 'I' for Inactive)
REMARK    1  A    between atoms: N_5  and  C_1 
REMARK       I    between atoms: C_9  and  N_5 
REMARK    2  A    between atoms: C_20  and  C_6 
REMARK    3  A    between atoms: C_17  and  C_9 
REMARK    4  A    between atoms: C_12  and  C_10 
REMARK    5  A    between atoms: C_11  and  S_13 
REMARK    6  A    between atoms: S_13  and  C_17 
ROOT
ATOM      1  N   UNL d   1      55.839  -0.359  32.603  0.00  0.00    -0.148 NA
ATOM      2  N   UNL d   1      56.318  -0.525  31.952  0.00  0.00    -0.141 NA
ATOM      3  C   UNL d   1      56.088   0.188  33.174  0.00  0.00     0.104 A 
ATOM      4  C   UNL d   1      57.042  -0.152  31.862  0.00  0.00     0.133 A 
ATOM      5  C   UNL d   1      56.819   0.565  33.086  0.00  0.00     0.023 A 
ATOM      6  C   UNL d   1      57.294   0.398  32.435  0.00  0.00     0.029 A 
ENDROOT
BRANCH   4   7
ATOM      7  S   UNL d   1      57.521  -0.318  31.211  0.00  0.00    -0.061 SA
BRANCH   7   8
ATOM      8  C   UNL d   1      57.661   0.257  30.642  0.00  0.00     0.099 C 
BRANCH   8   9
ATOM      9  C   UNL d   1      58.193   0.102  30.028  0.00  0.00     0.288 C 
ATOM     10  N   UNL d   1      59.000   0.069  30.185  0.00  0.00    -0.181 NA
ATOM     11  O   UNL d   1      57.918  -0.018  29.263  0.00  0.00    -0.265 OA
BRANCH  10  12
ATOM     12  C   UNL d   1      59.529  -0.084  29.581  0.00  0.00     0.219 A 
ATOM     13  S   UNL d   1      59.929  -0.798  29.450  0.00  0.00    -0.026 SA
ATOM     14  C   UNL d   1      60.399  -0.707  28.791  0.00  0.00     0.135 A 
ATOM     15  N   UNL d   1      60.296   0.059  28.507  0.00  0.00    -0.139 NA
ATOM     16  N   UNL d   1      59.762   0.437  28.995  0.00  0.00    -0.121 NA
BRANCH  14  17
ATOM     17  C   UNL d   1      60.893  -1.283  28.462  0.00  0.00     0.028 C 
ATOM     18  C   UNL d   1      60.692  -2.076  28.505  0.00  0.00     0.002 C 
ENDBRANCH  14  17
ENDBRANCH  10  12
ENDBRANCH   8   9
ENDBRANCH   7   8
ENDBRANCH   4   7
BRANCH   3  19
ATOM     19  C   UNL d   1      55.609   0.353  33.825  0.00  0.00     0.039 A 
ATOM     20  C   UNL d   1      54.815   0.495  33.716  0.00  0.00     0.101 A 
ATOM     21  N   UNL d   1      54.336   0.659  34.359  0.00  0.00    -0.242 NA
ATOM     22  C   UNL d   1      54.664   0.681  35.124  0.00  0.00     0.099 A 
ATOM     23  C   UNL d   1      55.463   0.539  35.228  0.00  0.00     0.021 A 
ATOM     24  C   UNL d   1      55.950   0.373  34.583  0.00  0.00     0.005 A 
ENDBRANCH   3  19
TORSDOF 6
ENDMDL
MODEL 2
REMARK VINA RESULT:      -3.6      1.748      6.027
REMARK  6 active torsions:
REMARK  status: ('A' for Active; 'I' for Inactive)
REMARK    1  A    between atoms: N_5  and  C_1 
REMARK       I    between atoms: C_9  and  N_5 
REMARK    2  A    between atoms: C_20  and  C_6 
REMARK    3  A    between atoms: C_17  and  C_9 
REMARK    4  A    between atoms: C_12  and  C_10 
REMARK    5  A    between atoms: C_11  and  S_13 
REMARK    6  A    between atoms: S_13  and  C_17 
ROOT
ATOM      1  N   UNL d   1      58.605  -2.550  29.359  0.00  0.00    -0.148 NA
ATOM      2  N   UNL d   1      58.198  -1.859  29.550  0.00  0.00    -0.141 NA
ATOM      3  C   UNL d   1      59.372  -2.508  29.046  0.00  0.00     0.104 A 
ATOM      4  C   UNL d   1      58.545  -1.126  29.435  0.00  0.00     0.133 A 
ATOM      5  C   UNL d   1      59.724  -1.770  28.929  0.00  0.00     0.023 A 
ATOM      6  C   UNL d   1      59.316  -1.082  29.121  0.00  0.00     0.029 A 
ENDROOT
BRANCH   4   7
ATOM      7  S   UNL d   1      58.138  -0.434  29.627  0.00  0.00    -0.061 SA
BRANCH   7   8
ATOM      8  C   UNL d   1      58.227  -0.092  30.368  0.00  0.00     0.099 C 
BRANCH   8   9
ATOM      9  C   UNL d   1      57.556   0.094  30.814  0.00  0.00     0.288 C 
ATOM     10  N   UNL d   1      57.493  -0.175  31.589  0.00  0.00    -0.181 NA
ATOM     11  O   UNL d   1      56.954   0.546  30.486  0.00  0.00    -0.265 OA
BRANCH  10  12
ATOM     12  C   UNL d   1      56.830   0.007  32.033  0.00  0.00     0.219 A 
ATOM     13  S   UNL d   1      56.501  -0.461  32.633  0.00  0.00    -0.026 SA
ATOM     14  C   UNL d   1      55.849  -0.070  32.927  0.00  0.00     0.135 A 
ATOM     15  N   UNL d   1      55.768   0.639  32.517  0.00  0.00    -0.139 NA
ATOM     16  N   UNL d   1      56.373   0.681  31.970  0.00  0.00    -0.121 NA
BRANCH  14  17
ATOM     17  C   UNL d   1      55.354  -0.338  33.533  0.00  0.00     0.028 C 
ATOM     18  C   UNL d   1      55.292   0.080  34.235  0.00  0.00     0.002 C 
ENDBRANCH  14  17
ENDBRANCH  10  12
ENDBRANCH   8   9
ENDBRANCH   7   8
ENDBRANCH   4   7
BRANCH   3  19
ATOM     19  C   UNL d   1      59.778  -3.200  28.855  0.00  0.00     0.039 A 
ATOM     20  C   UNL d   1      59.362  -3.868  28.646  0.00  0.00     0.101 A 
ATOM     21  N   UNL d   1      59.761  -4.556  28.455  0.00  0.00    -0.242 NA
ATOM     22  C   UNL d   1      60.593  -4.571  28.475  0.00  0.00     0.099 A 
ATOM     23  C   UNL d   1      61.007  -3.897  28.685  0.00  0.00     0.021 A 
ATOM     24  C   UNL d   1      60.609  -3.200  28.879  0.00  0.00     0.005 A 
ENDBRANCH   3  19
TORSDOF 6
ENDMDL
MODEL 3
REMARK VINA RESULT:      -3.5      1.548      6.061
REMARK  6 active torsions:
REMARK  status: ('A' for Active; 'I' for Inactive)
REMARK    1  A    between atoms: N_5  and  C_1 
REMARK       I    between atoms: C_9  and  N_5 
REMARK    2  A    between atoms: C_20  and  C_6 
REMARK    3  A    between atoms: C_17  and  C_9 
REMARK    4  A    between atoms: C_12  and  C_10 
REMARK    5  A    between atoms: C_11  and  S_13 
REMARK    6  A    between atoms: S_13  and  C_17 
ROOT
ATOM      1  N   UNL d   1      58.208  -1.971  29.935  0.00  0.00    -0.148 NA
ATOM      2  N   UNL d   1      57.749  -1.400  30.315  0.00  0.00    -0.141 NA
ATOM      3  C   UNL d   1      58.932  -1.760  29.590  0.00  0.00     0.104 A 
ATOM      4  C   UNL d   1      58.001  -0.622  30.356  0.00  0.00     0.133 A 
ATOM      5  C   UNL d   1      59.189  -0.975  29.629  0.00  0.00     0.023 A 
ATOM      6  C   UNL d   1      58.729  -0.408  30.009  0.00  0.00     0.029 A 
ENDROOT
BRANCH   4   7
ATOM      7  S   UNL d   1      57.543  -0.051  30.736  0.00  0.00    -0.061 SA
BRANCH   7   8
ATOM      8  C   UNL d   1      57.573   0.030  31.552  0.00  0.00     0.099 C 
BRANCH   8   9
ATOM      9  C   UNL d   1      56.883   0.208  31.971  0.00  0.00     0.288 C 
ATOM     10  N   UNL d   1      56.837   0.039  32.775  0.00  0.00    -0.181 NA
ATOM     11  O   UNL d   1      56.244   0.553  31.586  0.00  0.00    -0.265 OA
BRANCH  10  12
ATOM     12  C   UNL d   1      56.155   0.214  33.192  0.00  0.00     0.219 A 
ATOM     13  S   UNL d   1      56.105   0.359  34.007  0.00  0.00    -0.026 SA
ATOM     14  C   UNL d   1      55.325   0.509  34.188  0.00  0.00     0.135 A 
ATOM     15  N   UNL d   1      54.886   0.459  33.493  0.00  0.00    -0.139 NA
ATOM     16  N   UNL d   1      55.400   0.277  32.885  0.00  0.00    -0.121 NA
BRANCH  14  17
ATOM     17  C   UNL d   1      55.025   0.682  34.939  0.00  0.00     0.028 C 
ATOM     18  C   UNL d   1      55.510   0.649  35.598  0.00  0.00     0.002 C 
ENDBRANCH  14  17
ENDBRANCH  10  12
ENDBRANCH   8   9
ENDBRANCH   7   8
ENDBRANCH   4   7
BRANCH   3  19
ATOM     19  C   UNL d   1      59.390  -2.330  29.210  0.00  0.00     0.039 A 
ATOM     20  C   UNL d   1      60.146  -2.146  28.969  0.00  0.00     0.101 A 
ATOM     21  N   UNL d   1      60.605  -2.709  28.592  0.00  0.00    -0.242 NA
ATOM     22  C   UNL d   1      60.296  -3.469  28.455  0.00  0.00     0.099 A 
ATOM     23  C   UNL d   1      59.536  -3.650  28.698  0.00  0.00     0.021 A 
ATOM     24  C   UNL d   1      59.070  -3.085  29.080  0.00  0.00     0.005 A 
ENDBRANCH   3  19
TORSDOF 6
ENDMDL
