MODEL 1
REMARK VINA RESULT:      -2.5      0.000      0.000
REMARK  1 active torsions:
REMARK  status: ('A' for Active; 'I' for Inactive)
REMARK    1  A    between atoms: C_15  and  C_6 
ROOT
ATOM      1  C   UNL d   1      30.981  16.486 -23.732  0.00  0.00     0.087 A 
ATOM      2  C   UNL d   1      31.768  17.519 -24.338  0.00  0.00     0.111 A 
ATOM      3  C   UNL d   1      30.295  16.832 -24.038  0.00  0.00     0.109 A 
ATOM      4  C   UNL d   1      30.938  15.799 -23.278  0.00  0.00     0.302 A 
ATOM      5  C   UNL d   1      31.074  17.861 -24.642  0.00  0.00     0.213 A 
ATOM      6  C   UNL d   1      31.721  16.821 -23.876  0.00  0.00     0.020 A 
ATOM      7  O   UNL d   1      30.345  17.515 -24.489  0.00  0.00    -0.287 OA
ATOM      8  C   UNL d   1      29.562  16.493 -23.890  0.00  0.00     0.050 A 
ATOM      9  O   UNL d   1      30.191  15.454 -23.128  0.00  0.00    -0.273 OA
ATOM     10  C   UNL d   1      32.504  17.857 -24.484  0.00  0.00     0.105 C 
ATOM     11  C   UNL d   1      29.509  15.799 -23.432  0.00  0.00     0.105 A 
ATOM     12  N   UNL d   1      33.240  18.205 -24.638  0.00  0.00    -0.191 NA
ATOM     13  O   UNL d   1      31.623  15.453 -22.972  0.00  0.00    -0.259 OA
ATOM     14  N   UNL d   1      31.130  18.551 -25.097  0.00  0.00    -0.120 N 
ATOM     15  C   UNL d   1      28.771  15.454 -23.281  0.00  0.00     0.027 C 
ENDROOT
BRANCH   6  16
ATOM     16  C   UNL d   1      32.396  16.480 -23.576  0.00  0.00     0.001 C 
ATOM     17  C   UNL d   1      32.710  16.735 -22.856  0.00  0.00     0.000 C 
ATOM     18  C   UNL d   1      32.770  15.877 -23.987  0.00  0.00     0.000 C 
ENDBRANCH   6  16
TORSDOF 1
ENDMDL
MODEL 2
REMARK VINA RESULT:      -2.5      1.499      2.692
REMARK  1 active torsions:
REMARK  status: ('A' for Active; 'I' for Inactive)
REMARK    1  A    between atoms: C_15  and  C_6 
ROOT
ATOM      1  C   UNL d   1      31.815  17.302 -23.972  0.00  0.00     0.087 A 
ATOM      2  C   UNL d   1      30.610  16.758 -24.525  0.00  0.00     0.111 A 
ATOM      3  C   UNL d   1      31.559  18.063 -24.170  0.00  0.00     0.109 A 
ATOM      4  C   UNL d   1      32.541  17.187 -23.597  0.00  0.00     0.302 A 
ATOM      5  C   UNL d   1      30.360  17.526 -24.721  0.00  0.00     0.213 A 
ATOM      6  C   UNL d   1      31.348  16.644 -24.145  0.00  0.00     0.020 A 
ATOM      7  O   UNL d   1      30.836  18.170 -24.542  0.00  0.00    -0.287 OA
ATOM      8  C   UNL d   1      32.029  18.713 -23.995  0.00  0.00     0.050 A 
ATOM      9  O   UNL d   1      33.018  17.850 -23.419  0.00  0.00    -0.273 OA
ATOM     10  C   UNL d   1      30.141  16.104 -24.700  0.00  0.00     0.105 C 
ATOM     11  C   UNL d   1      32.764  18.606 -23.616  0.00  0.00     0.105 A 
ATOM     12  N   UNL d   1      29.661  15.453 -24.880  0.00  0.00    -0.191 NA
ATOM     13  O   UNL d   1      32.796  16.426 -23.399  0.00  0.00    -0.259 OA
ATOM     14  N   UNL d   1      29.629  17.629 -25.097  0.00  0.00    -0.120 N 
ATOM     15  C   UNL d   1      33.241  19.260 -23.438  0.00  0.00     0.027 C 
ENDROOT
BRANCH   6  16
ATOM     16  C   UNL d   1      31.599  15.895 -23.949  0.00  0.00     0.001 C 
ATOM     17  C   UNL d   1      31.422  15.571 -23.211  0.00  0.00     0.000 C 
ATOM     18  C   UNL d   1      32.033  15.454 -24.488  0.00  0.00     0.000 C 
ENDBRANCH   6  16
TORSDOF 1
ENDMDL
MODEL 3
REMARK VINA RESULT:      -2.2      5.713      6.702
REMARK  1 active torsions:
REMARK  status: ('A' for Active; 'I' for Inactive)
REMARK    1  A    between atoms: C_15  and  C_6 
ROOT
ATOM      1  C   UNL d   1      32.910  21.743 -21.306  0.00  0.00     0.087 A 
ATOM      2  C   UNL d   1      32.929  22.361 -20.013  0.00  0.00     0.111 A 
ATOM      3  C   UNL d   1      33.112  21.020 -20.961  0.00  0.00     0.109 A 
ATOM      4  C   UNL d   1      32.799  21.803 -22.121  0.00  0.00     0.302 A 
ATOM      5  C   UNL d   1      33.131  21.630 -19.673  0.00  0.00     0.213 A 
ATOM      6  C   UNL d   1      32.817  22.419 -20.842  0.00  0.00     0.020 A 
ATOM      7  O   UNL d   1      33.221  20.967 -20.149  0.00  0.00    -0.287 OA
ATOM      8  C   UNL d   1      33.203  20.352 -21.429  0.00  0.00     0.050 A 
ATOM      9  O   UNL d   1      32.892  21.123 -22.598  0.00  0.00    -0.273 OA
ATOM     10  C   UNL d   1      32.837  23.032 -19.546  0.00  0.00     0.105 C 
ATOM     11  C   UNL d   1      33.093  20.403 -22.254  0.00  0.00     0.105 A 
ATOM     12  N   UNL d   1      32.746  23.702 -19.065  0.00  0.00    -0.191 NA
ATOM     13  O   UNL d   1      32.598  22.527 -22.466  0.00  0.00    -0.259 OA
ATOM     14  N   UNL d   1      33.241  21.582 -18.854  0.00  0.00    -0.120 N 
ATOM     15  C   UNL d   1      33.184  19.731 -22.730  0.00  0.00     0.027 C 
ENDROOT
BRANCH   6  16
ATOM     16  C   UNL d   1      32.618  23.131 -21.182  0.00  0.00     0.001 C 
ATOM     17  C   UNL d   1      31.827  23.348 -21.272  0.00  0.00     0.000 C 
ATOM     18  C   UNL d   1      33.207  23.642 -21.439  0.00  0.00     0.000 C 
ENDBRANCH   6  16
TORSDOF 1
ENDMDL
MODEL 4
REMARK VINA RESULT:      -2.2      1.107      2.072
REMARK  1 active torsions:
REMARK  status: ('A' for Active; 'I' for Inactive)
REMARK    1  A    between atoms: C_15  and  C_6 
ROOT
ATOM      1  C   UNL d   1      30.352  16.537 -23.889  0.00  0.00     0.087 A 
ATOM      2  C   UNL d   1      31.749  16.535 -23.566  0.00  0.00     0.111 A 
ATOM      3  C   UNL d   1      30.262  15.816 -23.494  0.00  0.00     0.109 A 
ATOM      4  C   UNL d   1      29.706  16.903 -24.248  0.00  0.00     0.302 A 
ATOM      5  C   UNL d   1      31.650  15.810 -23.171  0.00  0.00     0.213 A 
ATOM      6  C   UNL d   1      31.090  16.904 -23.930  0.00  0.00     0.020 A 
ATOM      7  O   UNL d   1      30.909  15.459 -23.138  0.00  0.00    -0.287 OA
ATOM      8  C   UNL d   1      29.526  15.457 -23.456  0.00  0.00     0.050 A 
ATOM      9  O   UNL d   1      28.956  16.536 -24.210  0.00  0.00    -0.273 OA
ATOM     10  C   UNL d   1      32.487  16.897 -23.605  0.00  0.00     0.105 C 
ATOM     11  C   UNL d   1      28.866  15.819 -23.817  0.00  0.00     0.105 A 
ATOM     12  N   UNL d   1      33.235  17.253 -23.638  0.00  0.00    -0.191 NA
ATOM     13  O   UNL d   1      29.796  17.623 -24.643  0.00  0.00    -0.259 OA
ATOM     14  N   UNL d   1      32.306  15.453 -22.813  0.00  0.00    -0.120 N 
ATOM     15  C   UNL d   1      28.121  15.460 -23.781  0.00  0.00     0.027 C 
ENDROOT
BRANCH   6  16
ATOM     16  C   UNL d   1      31.179  17.613 -24.319  0.00  0.00     0.001 C 
ATOM     17  C   UNL d   1      31.457  17.634 -25.097  0.00  0.00     0.000 C 
ATOM     18  C   UNL d   1      30.992  18.316 -23.940  0.00  0.00     0.000 C 
ENDBRANCH   6  16
TORSDOF 1
ENDMDL
MODEL 5
REMARK VINA RESULT:      -2.1      0.861      2.465
REMARK  1 active torsions:
REMARK  status: ('A' for Active; 'I' for Inactive)
REMARK    1  A    between atoms: C_15  and  C_6 
ROOT
ATOM      1  C   UNL d   1      31.086  16.580 -23.849  0.00  0.00     0.087 A 
ATOM      2  C   UNL d   1      30.353  17.598 -24.542  0.00  0.00     0.111 A 
ATOM      3  C   UNL d   1      31.789  16.994 -23.989  0.00  0.00     0.109 A 
ATOM      4  C   UNL d   1      31.095  15.867 -23.435  0.00  0.00     0.302 A 
ATOM      5  C   UNL d   1      31.063  18.008 -24.679  0.00  0.00     0.213 A 
ATOM      6  C   UNL d   1      30.365  16.873 -24.121  0.00  0.00     0.020 A 
ATOM      7  O   UNL d   1      31.773  17.702 -24.402  0.00  0.00    -0.287 OA
ATOM      8  C   UNL d   1      32.503  16.696 -23.716  0.00  0.00     0.050 A 
ATOM      9  O   UNL d   1      31.823  15.564 -23.156  0.00  0.00    -0.273 OA
ATOM     10  C   UNL d   1      29.636  17.894 -24.816  0.00  0.00     0.105 C 
ATOM     11  C   UNL d   1      32.521  15.976 -23.296  0.00  0.00     0.105 A 
ATOM     12  N   UNL d   1      28.918  18.201 -25.096  0.00  0.00    -0.191 NA
ATOM     13  O   UNL d   1      30.393  15.454 -23.295  0.00  0.00    -0.259 OA
ATOM     14  N   UNL d   1      31.043  18.723 -25.097  0.00  0.00    -0.120 N 
ATOM     15  C   UNL d   1      33.240  15.672 -23.018  0.00  0.00     0.027 C 
ENDROOT
BRANCH   6  16
ATOM     16  C   UNL d   1      29.674  16.466 -23.983  0.00  0.00     0.001 C 
ATOM     17  C   UNL d   1      29.236  16.602 -23.296  0.00  0.00     0.000 C 
ATOM     18  C   UNL d   1      29.405  15.915 -24.528  0.00  0.00     0.000 C 
ENDBRANCH   6  16
TORSDOF 1
ENDMDL
MODEL 6
REMARK VINA RESULT:      -1.7      2.411      3.781
REMARK  1 active torsions:
REMARK  status: ('A' for Active; 'I' for Inactive)
REMARK    1  A    between atoms: C_15  and  C_6 
ROOT
ATOM      1  C   UNL d   1      32.884  18.715 -23.236  0.00  0.00     0.087 A 
ATOM      2  C   UNL d   1      32.860  17.369 -23.729  0.00  0.00     0.111 A 
ATOM      3  C   UNL d   1      33.098  18.434 -22.488  0.00  0.00     0.109 A 
ATOM      4  C   UNL d   1      32.788  19.523 -23.370  0.00  0.00     0.302 A 
ATOM      5  C   UNL d   1      33.076  17.095 -22.975  0.00  0.00     0.213 A 
ATOM      6  C   UNL d   1      32.763  18.191 -23.862  0.00  0.00     0.020 A 
ATOM      7  O   UNL d   1      33.193  17.629 -22.363  0.00  0.00    -0.287 OA
ATOM      8  C   UNL d   1      33.217  18.961 -21.871  0.00  0.00     0.050 A 
ATOM      9  O   UNL d   1      32.909  20.059 -22.740  0.00  0.00    -0.273 OA
ATOM     10  C   UNL d   1      32.741  16.843 -24.351  0.00  0.00     0.105 C 
ATOM     11  C   UNL d   1      33.122  19.780 -21.997  0.00  0.00     0.105 A 
ATOM     12  N   UNL d   1      32.623  16.304 -24.970  0.00  0.00    -0.191 NA
ATOM     13  O   UNL d   1      32.574  19.803 -24.118  0.00  0.00    -0.259 OA
ATOM     14  N   UNL d   1      33.170  16.282 -22.852  0.00  0.00    -0.120 N 
ATOM     15  C   UNL d   1      33.241  20.315 -21.375  0.00  0.00     0.027 C 
ENDROOT
BRANCH   6  16
ATOM     16  C   UNL d   1      32.552  18.467 -24.599  0.00  0.00     0.001 C 
ATOM     17  C   UNL d   1      31.768  18.425 -24.854  0.00  0.00     0.000 C 
ATOM     18  C   UNL d   1      33.120  18.789 -25.095  0.00  0.00     0.000 C 
ENDBRANCH   6  16
TORSDOF 1
ENDMDL
MODEL 7
REMARK VINA RESULT:      -1.4      6.139      7.173
REMARK  1 active torsions:
REMARK  status: ('A' for Active; 'I' for Inactive)
REMARK    1  A    between atoms: C_15  and  C_6 
ROOT
ATOM      1  C   UNL d   1      32.916  22.458 -20.351  0.00  0.00     0.087 A 
ATOM      2  C   UNL d   1      32.938  21.245 -21.114  0.00  0.00     0.111 A 
ATOM      3  C   UNL d   1      33.110  22.030 -19.670  0.00  0.00     0.109 A 
ATOM      4  C   UNL d   1      32.807  23.275 -20.317  0.00  0.00     0.302 A 
ATOM      5  C   UNL d   1      33.133  20.823 -20.426  0.00  0.00     0.213 A 
ATOM      6  C   UNL d   1      32.828  22.075 -21.076  0.00  0.00     0.020 A 
ATOM      7  O   UNL d   1      33.217  21.218 -19.711  0.00  0.00    -0.287 OA
ATOM      8  C   UNL d   1      33.196  22.418 -18.952  0.00  0.00     0.050 A 
ATOM      9  O   UNL d   1      32.894  23.669 -19.584  0.00  0.00    -0.273 OA
ATOM     10  C   UNL d   1      32.852  20.859 -21.836  0.00  0.00     0.105 C 
ATOM     11  C   UNL d   1      33.087  23.244 -18.908  0.00  0.00     0.105 A 
ATOM     12  N   UNL d   1      32.767  20.460 -22.558  0.00  0.00    -0.191 NA
ATOM     13  O   UNL d   1      32.613  23.702 -20.997  0.00  0.00    -0.259 OA
ATOM     14  N   UNL d   1      33.241  20.003 -20.472  0.00  0.00    -0.120 N 
ATOM     15  C   UNL d   1      33.173  23.638 -18.184  0.00  0.00     0.027 C 
ENDROOT
BRANCH   6  16
ATOM     16  C   UNL d   1      32.637  22.496 -21.746  0.00  0.00     0.001 C 
ATOM     17  C   UNL d   1      33.226  22.866 -22.192  0.00  0.00     0.000 C 
ATOM     18  C   UNL d   1      31.854  22.557 -21.985  0.00  0.00     0.000 C 
ENDBRANCH   6  16
TORSDOF 1
ENDMDL
MODEL 8
REMARK VINA RESULT:      -0.3      5.216      6.201
REMARK  1 active torsions:
REMARK  status: ('A' for Active; 'I' for Inactive)
REMARK    1  A    between atoms: C_15  and  C_6 
ROOT
ATOM      1  C   UNL d   1      32.757  21.803 -21.534  0.00  0.00     0.087 A 
ATOM      2  C   UNL d   1      32.757  22.408 -22.833  0.00  0.00     0.111 A 
ATOM      3  C   UNL d   1      33.080  21.113 -21.858  0.00  0.00     0.109 A 
ATOM      4  C   UNL d   1      32.595  21.851 -20.727  0.00  0.00     0.302 A 
ATOM      5  C   UNL d   1      33.081  21.712 -23.151  0.00  0.00     0.213 A 
ATOM      6  C   UNL d   1      32.593  22.454 -22.012  0.00  0.00     0.020 A 
ATOM      7  O   UNL d   1      33.239  21.072 -22.661  0.00  0.00    -0.287 OA
ATOM      8  C   UNL d   1      33.241  20.469 -21.376  0.00  0.00     0.050 A 
ATOM      9  O   UNL d   1      32.759  21.194 -20.237  0.00  0.00    -0.273 OA
ATOM     10  C   UNL d   1      32.594  23.056 -23.314  0.00  0.00     0.105 C 
ATOM     11  C   UNL d   1      33.079  20.509 -20.558  0.00  0.00     0.105 A 
ATOM     12  N   UNL d   1      32.435  23.702 -23.808  0.00  0.00    -0.191 NA
ATOM     13  O   UNL d   1      32.273  22.540 -20.403  0.00  0.00    -0.259 OA
ATOM     14  N   UNL d   1      33.240  21.674 -23.963  0.00  0.00    -0.120 N 
ATOM     15  C   UNL d   1      33.241  19.860 -20.069  0.00  0.00     0.027 C 
ENDROOT
BRANCH   6  16
ATOM     16  C   UNL d   1      32.275  23.133 -21.694  0.00  0.00     0.001 C 
ATOM     17  C   UNL d   1      31.473  23.305 -21.786  0.00  0.00     0.000 C 
ATOM     18  C   UNL d   1      32.753  23.653 -21.276  0.00  0.00     0.000 C 
ENDBRANCH   6  16
TORSDOF 1
ENDMDL
