MODEL 1
REMARK VINA RESULT:      22.6      0.000      0.000
REMARK  4 active torsions:
REMARK  status: ('A' for Active; 'I' for Inactive)
REMARK    1  A    between atoms: C_5  and  C_1 
REMARK    2  A    between atoms: C_4  and  C_2 
REMARK    3  A    between atoms: C_12  and  C_4 
REMARK    4  A    between atoms: C_13  and  C_5 
ROOT
ATOM      1  C   UNL d   1      45.248 -14.149  44.707  0.00  0.00     0.039 A 
ATOM      2  C   UNL d   1      45.605 -15.591  44.890  0.00  0.00     0.039 A 
ATOM      3  C   UNL d   1      45.845 -14.766  44.767  0.00  0.00     0.196 A 
ATOM      4  C   UNL d   1      44.406 -14.350  44.771  0.00  0.00     0.003 A 
ATOM      5  C   UNL d   1      44.763 -15.791  44.954  0.00  0.00     0.003 A 
ATOM      6  O   UNL d   1      46.647 -14.575  44.706  0.00  0.00    -0.287 OA
ATOM      7  C   UNL d   1      44.164 -15.166  44.894  0.00  0.00     0.000 A 
ATOM      8  C   UNL d   1      43.363 -15.357  44.955  0.00  0.00     0.000 C 
ENDROOT
BRANCH   1   9
ATOM      9  C   UNL d   1      45.471 -13.362  44.589  0.00  0.00     0.005 C 
BRANCH   9  10
ATOM     10  C   UNL d   1      45.292 -12.978  43.887  0.00  0.00     0.019 A 
ATOM     11  C   UNL d   1      44.596 -12.543  43.828  0.00  0.00     0.099 A 
ATOM     12  N   UNL d   1      44.414 -12.156  43.125  0.00  0.00    -0.242 NA
ATOM     13  C   UNL d   1      44.927 -12.203  42.476  0.00  0.00     0.099 A 
ATOM     14  C   UNL d   1      45.627 -12.642  42.539  0.00  0.00     0.021 A 
ATOM     15  C   UNL d   1      45.805 -13.026  43.243  0.00  0.00     0.003 A 
ENDBRANCH   9  10
ENDBRANCH   1   9
BRANCH   2  16
ATOM     16  C   UNL d   1      46.171 -16.187  44.948  0.00  0.00     0.005 C 
BRANCH  16  17
ATOM     17  C   UNL d   1      46.109 -16.871  44.492  0.00  0.00     0.019 A 
ATOM     18  C   UNL d   1      46.071 -16.813  43.672  0.00  0.00     0.099 A 
ATOM     19  N   UNL d   1      46.010 -17.489  43.212  0.00  0.00    -0.242 NA
ATOM     20  C   UNL d   1      45.986 -18.237  43.574  0.00  0.00     0.099 A 
ATOM     21  C   UNL d   1      46.024 -18.290  44.396  0.00  0.00     0.021 A 
ATOM     22  C   UNL d   1      46.086 -17.606  44.851  0.00  0.00     0.003 A 
ENDBRANCH  16  17
ENDBRANCH   2  16
TORSDOF 4
ENDMDL
