MODEL 1
REMARK VINA RESULT:      43.3      0.000      0.000
REMARK  3 active torsions:
REMARK  status: ('A' for Active; 'I' for Inactive)
REMARK    1  A    between atoms: C_6  and  C_1 
REMARK    2  A    between atoms: O_19  and  C_9 
REMARK    3  A    between atoms: O_20  and  C_13 
ROOT
ATOM      1  C   UNL d   1     -50.748  24.721  33.410  0.00  0.00     0.064 A 
ATOM      2  C   UNL d   1     -50.680  25.548  33.447  0.00  0.00     0.007 A 
ATOM      3  C   UNL d   1     -50.063  24.252  33.344  0.00  0.00     0.300 A 
ATOM      4  C   UNL d   1     -49.936  25.906  33.420  0.00  0.00     0.026 A 
ATOM      5  O   UNL d   1     -49.306  24.607  33.315  0.00  0.00    -0.273 OA
ATOM      6  C   UNL d   1     -49.251  25.437  33.354  0.00  0.00     0.103 A 
ATOM      7  O   UNL d   1     -50.128  23.428  33.306  0.00  0.00    -0.259 OA
ATOM      8  C   UNL d   1     -49.861  26.728  33.457  0.00  0.00     0.044 A 
ATOM      9  C   UNL d   1     -48.510  25.790  33.327  0.00  0.00     0.028 A 
ATOM     10  C   UNL d   1     -49.126  27.074  33.429  0.00  0.00     0.196 A 
ATOM     11  C   UNL d   1     -51.352  26.007  33.512  0.00  0.00     0.000 C 
ATOM     12  C   UNL d   1     -48.448  26.609  33.364  0.00  0.00     0.044 A 
ATOM     13  O   UNL d   1     -49.060  27.897  33.467  0.00  0.00    -0.287 OA
ENDROOT
BRANCH   1  14
ATOM     14  C   UNL d   1     -51.490  24.366  33.437  0.00  0.00     0.007 A 
ATOM     15  C   UNL d   1     -52.168  24.829  33.373  0.00  0.00     0.026 A 
ATOM     16  C   UNL d   1     -52.910  24.483  33.399  0.00  0.00     0.116 A 
ATOM     17  C   UNL d   1     -52.980  23.667  33.491  0.00  0.00     0.116 A 
ATOM     18  C   UNL d   1     -52.298  23.195  33.556  0.00  0.00     0.026 A 
ATOM     19  C   UNL d   1     -51.554  23.558  33.528  0.00  0.00     0.002 A 
BRANCH  16  20
ATOM     20  O   UNL d   1     -53.593  24.938  33.335  0.00  0.00    -0.326 OA
ATOM     21  C   UNL d   1     -53.542  25.758  33.410  0.00  0.00     0.181 C 
ENDBRANCH  16  20
BRANCH  17  22
ATOM     22  O   UNL d   1     -53.719  23.303  33.519  0.00  0.00    -0.326 OA
ATOM     23  C   UNL d   1     -54.081  23.189  34.259  0.00  0.00     0.181 C 
ENDBRANCH  17  22
ENDBRANCH   1  14
TORSDOF 3
ENDMDL
MODEL 2
REMARK VINA RESULT:      46.3      0.953      4.185
REMARK  3 active torsions:
REMARK  status: ('A' for Active; 'I' for Inactive)
REMARK    1  A    between atoms: C_6  and  C_1 
REMARK    2  A    between atoms: O_19  and  C_9 
REMARK    3  A    between atoms: O_20  and  C_13 
ROOT
ATOM      1  C   UNL d   1     -50.688  25.624  33.572  0.00  0.00     0.064 A 
ATOM      2  C   UNL d   1     -51.508  25.490  33.558  0.00  0.00     0.007 A 
ATOM      3  C   UNL d   1     -50.162  24.981  33.503  0.00  0.00     0.300 A 
ATOM      4  C   UNL d   1     -51.802  24.722  33.474  0.00  0.00     0.026 A 
ATOM      5  O   UNL d   1     -50.453  24.201  33.418  0.00  0.00    -0.273 OA
ATOM      6  C   UNL d   1     -51.277  24.080  33.405  0.00  0.00     0.103 A 
ATOM      7  O   UNL d   1     -49.345  25.112  33.517  0.00  0.00    -0.259 OA
ATOM      8  C   UNL d   1     -52.617  24.581  33.459  0.00  0.00     0.044 A 
ATOM      9  C   UNL d   1     -51.566  23.316  33.322  0.00  0.00     0.028 A 
ATOM     10  C   UNL d   1     -52.900  23.824  33.376  0.00  0.00     0.196 A 
ATOM     11  C   UNL d   1     -52.023  26.119  33.626  0.00  0.00     0.000 C 
ATOM     12  C   UNL d   1     -52.379  23.188  33.307  0.00  0.00     0.044 A 
ATOM     13  O   UNL d   1     -53.716  23.692  33.362  0.00  0.00    -0.287 OA
ENDROOT
BRANCH   1  14
ATOM     14  C   UNL d   1     -50.396  26.389  33.656  0.00  0.00     0.007 A 
ATOM     15  C   UNL d   1     -49.710  26.520  34.093  0.00  0.00     0.026 A 
ATOM     16  C   UNL d   1     -49.414  27.279  34.180  0.00  0.00     0.116 A 
ATOM     17  C   UNL d   1     -49.804  27.915  33.828  0.00  0.00     0.116 A 
ATOM     18  C   UNL d   1     -50.496  27.787  33.386  0.00  0.00     0.026 A 
ATOM     19  C   UNL d   1     -50.785  27.015  33.306  0.00  0.00     0.002 A 
BRANCH  16  20
ATOM     20  O   UNL d   1     -48.730  27.419  34.615  0.00  0.00    -0.326 OA
ATOM     21  C   UNL d   1     -48.657  28.124  35.038  0.00  0.00     0.181 C 
ENDBRANCH  16  20
BRANCH  17  22
ATOM     22  O   UNL d   1     -49.519  28.684  33.907  0.00  0.00    -0.326 OA
ATOM     23  C   UNL d   1     -50.012  29.318  33.693  0.00  0.00     0.181 C 
ENDBRANCH  17  22
ENDBRANCH   1  14
TORSDOF 3
ENDMDL
