MODEL 1
REMARK VINA RESULT:      -3.1      0.000      0.000
REMARK  5 active torsions:
REMARK  status: ('A' for Active; 'I' for Inactive)
REMARK    1  A    between atoms: S_3  and  N_1 
REMARK    2  A    between atoms: S_4  and  N_8 
REMARK    3  A    between atoms: C_12  and  C_5 
REMARK    4  A    between atoms: C_9  and  C_6 
REMARK    5  A    between atoms: N_8  and  C_16 
ROOT
ATOM      1  N   UNL d   1     -42.683-122.546 -50.623  0.00  0.00    -0.155 N 
ATOM      2  N   UNL d   1     -42.664-122.532 -51.453  0.00  0.00    -0.156 NA
ATOM      3  C   UNL d   1     -41.974-122.894 -50.362  0.00  0.00     0.096 A 
ATOM      4  C   UNL d   1     -41.952-122.868 -51.701  0.00  0.00     0.104 A 
ATOM      5  C   UNL d   1     -41.530-123.089 -51.025  0.00  0.00     0.041 A 
ENDROOT
BRANCH   4   6
ATOM      6  C   UNL d   1     -41.707-122.964 -52.482  0.00  0.00     0.021 A 
ATOM      7  C   UNL d   1     -41.795-122.347 -53.016  0.00  0.00     0.021 A 
ATOM      8  C   UNL d   1     -41.548-122.443 -53.802  0.00  0.00     0.093 A 
ATOM      9  C   UNL d   1     -41.212-123.162 -54.048  0.00  0.00     0.020 A 
ATOM     10  C   UNL d   1     -41.127-123.780 -53.502  0.00  0.00     0.002 A 
ATOM     11  C   UNL d   1     -41.371-123.686 -52.724  0.00  0.00     0.002 A 
BRANCH   8  12
ATOM     12  N   UNL d   1     -41.637-121.818 -54.345  0.00  0.00    -0.162 NA
BRANCH  12  13
ATOM     13  S   UNL d   1     -41.958-121.961 -55.087  0.00  0.00     0.266 S 
ATOM     14  O   UNL d   1     -42.500-121.922 -55.717  0.00  0.00    -0.203 OA
ATOM     15  O   UNL d   1     -42.571-121.475 -54.814  0.00  0.00    -0.203 OA
ATOM     16  C   UNL d   1     -41.356-122.444 -55.369  0.00  0.00     0.165 C 
ENDBRANCH  12  13
ENDBRANCH   8  12
ENDBRANCH   4   6
BRANCH   1  17
ATOM     17  S   UNL d   1     -43.300-122.262 -50.150  0.00  0.00     0.266 S 
ATOM     18  O   UNL d   1     -43.705-121.632 -49.803  0.00  0.00    -0.203 OA
ATOM     19  O   UNL d   1     -42.766-121.733 -50.497  0.00  0.00    -0.203 OA
ATOM     20  C   UNL d   1     -43.791-122.837 -49.837  0.00  0.00     0.165 C 
ENDBRANCH   1  17
BRANCH   3  21
ATOM     21  C   UNL d   1     -41.766-123.016 -49.579  0.00  0.00     0.018 A 
ATOM     22  C   UNL d   1     -41.337-122.435 -49.180  0.00  0.00     0.002 A 
ATOM     23  C   UNL d   1     -41.124-122.552 -48.391  0.00  0.00     0.000 A 
ATOM     24  C   UNL d   1     -41.338-123.242 -48.006  0.00  0.00     0.000 A 
ATOM     25  C   UNL d   1     -41.767-123.817 -48.415  0.00  0.00     0.000 A 
ATOM     26  C   UNL d   1     -41.125-123.359 -47.217  0.00  0.00     0.000 C 
ATOM     27  C   UNL d   1     -41.980-123.710 -49.189  0.00  0.00     0.002 A 
ENDBRANCH   3  21
TORSDOF 5
ENDMDL
