MODEL 1
REMARK VINA RESULT:      25.3      0.000      0.000
REMARK  3 active torsions:
REMARK  status: ('A' for Active; 'I' for Inactive)
REMARK    1  A    between atoms: C_5  and  C_1 
REMARK    2  A    between atoms: C_7  and  C_5 
REMARK    3  A    between atoms: C_10  and  C_7 
ROOT
ATOM      1  C   UNL d   1      14.561  13.145  -1.669  0.00  0.00     0.220 A 
ATOM      2  C   UNL d   1      14.618  12.582  -1.104  0.00  0.00     0.315 A 
ATOM      3  N   UNL d   1      14.821  12.930  -0.392  0.00  0.00    -0.205 NA
ATOM      4  C   UNL d   1      14.727  13.873  -1.329  0.00  0.00     0.059 A 
ATOM      5  C   UNL d   1      14.891  13.737  -0.522  0.00  0.00     0.088 A 
ATOM      6  O   UNL d   1      14.485  11.780  -1.255  0.00  0.00    -0.262 OA
ATOM      7  O   UNL d   1      14.547  13.831  -2.110  0.00  0.00    -0.285 OA
ATOM      8  C   UNL d   1      14.758  14.646  -1.617  0.00  0.00     0.005 A 
ATOM      9  C   UNL d   1      15.084  14.377  -0.014  0.00  0.00     0.019 A 
ATOM     10  C   UNL d   1      14.944  15.280  -1.137  0.00  0.00     0.000 A 
ATOM     11  C   UNL d   1      15.108  15.145  -0.330  0.00  0.00     0.002 A 
ENDROOT
BRANCH   1  12
ATOM     12  C   UNL d   1      14.362  12.916  -2.429  0.00  0.00     0.086 C 
BRANCH  12  13
ATOM     13  C   UNL d   1      13.615  12.604  -2.612  0.00  0.00     0.199 C 
ATOM     14  O   UNL d   1      13.128  12.343  -2.001  0.00  0.00    -0.286 OA
BRANCH  13  15
ATOM     15  C   UNL d   1      13.365  12.555  -3.386  0.00  0.00     0.039 A 
ATOM     16  C   UNL d   1      13.019  13.209  -3.780  0.00  0.00     0.003 A 
ATOM     17  C   UNL d   1      12.769  13.160  -4.554  0.00  0.00     0.000 A 
ATOM     18  C   UNL d   1      12.863  12.437  -4.957  0.00  0.00     0.000 A 
ATOM     19  C   UNL d   1      13.200  11.788  -4.585  0.00  0.00     0.000 A 
ATOM     20  C   UNL d   1      13.445  11.848  -3.816  0.00  0.00     0.003 A 
ENDBRANCH  13  15
ENDBRANCH  12  13
ENDBRANCH   1  12
TORSDOF 3
ENDMDL
MODEL 2
REMARK VINA RESULT:      26.6      1.171      3.713
REMARK  3 active torsions:
REMARK  status: ('A' for Active; 'I' for Inactive)
REMARK    1  A    between atoms: C_5  and  C_1 
REMARK    2  A    between atoms: C_7  and  C_5 
REMARK    3  A    between atoms: C_10  and  C_7 
ROOT
ATOM      1  C   UNL d   1      13.509  12.711  -3.102  0.00  0.00     0.220 A 
ATOM      2  C   UNL d   1      13.048  12.072  -2.967  0.00  0.00     0.315 A 
ATOM      3  N   UNL d   1      12.770  11.781  -3.679  0.00  0.00    -0.205 NA
ATOM      4  C   UNL d   1      13.538  12.845  -3.912  0.00  0.00     0.059 A 
ATOM      5  C   UNL d   1      13.071  12.257  -4.276  0.00  0.00     0.088 A 
ATOM      6  O   UNL d   1      12.898  11.780  -2.208  0.00  0.00    -0.262 OA
ATOM      7  O   UNL d   1      13.940  13.330  -3.414  0.00  0.00    -0.285 OA
ATOM      8  C   UNL d   1      13.912  13.407  -4.387  0.00  0.00     0.005 A 
ATOM      9  C   UNL d   1      12.984  12.240  -5.110  0.00  0.00     0.019 A 
ATOM     10  C   UNL d   1      13.839  13.405  -5.200  0.00  0.00     0.000 A 
ATOM     11  C   UNL d   1      13.372  12.817  -5.565  0.00  0.00     0.002 A 
ENDROOT
BRANCH   1  12
ATOM     12  C   UNL d   1      13.847  13.092  -2.462  0.00  0.00     0.086 C 
BRANCH  12  13
ATOM     13  C   UNL d   1      14.261  12.677  -1.873  0.00  0.00     0.199 C 
ATOM     14  O   UNL d   1      14.301  11.855  -1.914  0.00  0.00    -0.286 OA
BRANCH  13  15
ATOM     15  C   UNL d   1      14.623  13.076  -1.262  0.00  0.00     0.039 A 
ATOM     16  C   UNL d   1      14.610  13.913  -1.213  0.00  0.00     0.003 A 
ATOM     17  C   UNL d   1      14.972  14.312  -0.602  0.00  0.00     0.000 A 
ATOM     18  C   UNL d   1      15.363  13.870  -0.015  0.00  0.00     0.000 A 
ATOM     19  C   UNL d   1      15.385  13.050  -0.049  0.00  0.00     0.000 A 
ATOM     20  C   UNL d   1      15.022  12.664  -0.661  0.00  0.00     0.003 A 
ENDBRANCH  13  15
ENDBRANCH  12  13
ENDBRANCH   1  12
TORSDOF 3
ENDMDL
