MODEL 1
REMARK VINA RESULT:      -9.3      0.000      0.000
REMARK  6 active torsions:
REMARK  status: ('A' for Active; 'I' for Inactive)
REMARK    1  A    between atoms: N_2  and  C_1 
REMARK    2  A    between atoms: N_7  and  C_1 
REMARK    3  A    between atoms: C_5  and  C_3 
REMARK    4  A    between atoms: C_6  and  C_5 
REMARK       I    between atoms: N_8  and  C_6 
REMARK    5  A    between atoms: C_18  and  N_7 
REMARK    6  A    between atoms: C_9  and  N_8 
ROOT
ATOM      1  N   UNL d   1      52.906  34.317  53.915  0.00  0.00    -0.278 N 
ATOM      2  C   UNL d   1      53.509  33.774  54.033  0.00  0.00     0.127 A 
ATOM      3  C   UNL d   1      54.039  33.876  54.677  0.00  0.00     0.274 A 
ATOM      4  N   UNL d   1      53.960  34.514  55.191  0.00  0.00    -0.318 N 
ATOM      5  O   UNL d   1      54.643  33.332  54.795  0.00  0.00    -0.266 OA
ATOM      6  C   UNL d   1      52.816  34.960  54.423  0.00  0.00     0.101 A 
ATOM      7  C   UNL d   1      53.341  35.056  55.056  0.00  0.00     0.094 A 
ATOM      8  H   UNL d   1      54.476  34.621  55.825  0.00  0.00     0.169 HD
ENDROOT
BRANCH   2   9
ATOM      9  C   UNL d   1      53.594  33.139  53.528  0.00  0.00     0.083 C 
BRANCH   9  10
ATOM     10  C   UNL d   1      53.535  32.374  53.817  0.00  0.00     0.259 C 
ATOM     11  N   UNL d   1      53.498  31.737  53.288  0.00  0.00    -0.321 N 
ATOM     12  H   UNL d   1      53.521  31.872  52.471  0.00  0.00     0.169 HD
ATOM     13  O   UNL d   1      53.513  32.239  54.633  0.00  0.00    -0.267 OA
BRANCH  11  14
ATOM     14  C   UNL d   1      53.439  30.973  53.588  0.00  0.00     0.059 A 
ATOM     15  C   UNL d   1      53.062  30.387  53.121  0.00  0.00     0.016 A 
ATOM     16  C   UNL d   1      52.999  29.621  53.414  0.00  0.00     0.001 A 
ATOM     17  C   UNL d   1      52.755  30.574  52.376  0.00  0.00     0.002 C 
ATOM     18  C   UNL d   1      53.310  29.431  54.172  0.00  0.00     0.000 A 
ATOM     19  C   UNL d   1      53.685  30.014  54.635  0.00  0.00     0.002 A 
ATOM     20  C   UNL d   1      53.244  28.658  54.461  0.00  0.00     0.000 C 
ATOM     21  C   UNL d   1      53.746  30.790  54.333  0.00  0.00     0.017 A 
ENDBRANCH  11  14
ENDBRANCH   9  10
ENDBRANCH   2   9
BRANCH   1  22
ATOM     22  C   UNL d   1      52.386  34.218  53.285  0.00  0.00     0.184 C 
ATOM     23  S   UNL d   1      52.629  34.450  52.534  0.00  0.00    -0.040 SA
BRANCH  22  24
ATOM     24  N   UNL d   1      51.642  33.894  53.413  0.00  0.00    -0.331 N 
ATOM     25  H   UNL d   1      51.549  33.344  54.016  0.00  0.00     0.168 HD
BRANCH  24  26
ATOM     26  C   UNL d   1      50.999  34.112  52.952  0.00  0.00     0.058 A 
ATOM     27  C   UNL d   1      50.983  33.927  52.153  0.00  0.00     0.017 A 
ATOM     28  C   UNL d   1      50.341  34.144  51.691  0.00  0.00     0.002 A 
ATOM     29  C   UNL d   1      49.713  34.550  52.037  0.00  0.00     0.000 A 
ATOM     30  C   UNL d   1      49.726  34.737  52.840  0.00  0.00     0.002 A 
ATOM     31  C   UNL d   1      50.374  34.515  53.296  0.00  0.00     0.017 A 
ENDBRANCH  24  26
ENDBRANCH  22  24
ENDBRANCH   1  22
TORSDOF 6
ENDMDL
MODEL 2
REMARK VINA RESULT:      -8.9      1.033      4.146
REMARK  6 active torsions:
REMARK  status: ('A' for Active; 'I' for Inactive)
REMARK    1  A    between atoms: N_2  and  C_1 
REMARK    2  A    between atoms: N_7  and  C_1 
REMARK    3  A    between atoms: C_5  and  C_3 
REMARK    4  A    between atoms: C_6  and  C_5 
REMARK       I    between atoms: N_8  and  C_6 
REMARK    5  A    between atoms: C_18  and  N_7 
REMARK    6  A    between atoms: C_9  and  N_8 
ROOT
ATOM      1  N   UNL d   1      53.858  32.889  54.358  0.00  0.00    -0.278 N 
ATOM      2  C   UNL d   1      53.591  33.631  54.133  0.00  0.00     0.127 A 
ATOM      3  C   UNL d   1      53.748  34.295  54.624  0.00  0.00     0.274 A 
ATOM      4  N   UNL d   1      54.165  34.209  55.328  0.00  0.00    -0.318 N 
ATOM      5  O   UNL d   1      53.481  35.038  54.399  0.00  0.00    -0.266 OA
ATOM      6  C   UNL d   1      54.277  32.791  55.061  0.00  0.00     0.101 A 
ATOM      7  C   UNL d   1      54.429  33.448  55.541  0.00  0.00     0.094 A 
ATOM      8  H   UNL d   1      54.323  34.855  55.815  0.00  0.00     0.169 HD
ENDROOT
BRANCH   2   9
ATOM      9  C   UNL d   1      53.177  33.725  53.437  0.00  0.00     0.083 C 
BRANCH   9  10
ATOM     10  C   UNL d   1      52.397  33.978  53.454  0.00  0.00     0.259 C 
ATOM     11  N   UNL d   1      51.981  34.073  52.744  0.00  0.00    -0.321 N 
ATOM     12  H   UNL d   1      52.350  33.914  52.020  0.00  0.00     0.169 HD
ATOM     13  O   UNL d   1      52.028  34.137  54.177  0.00  0.00    -0.267 OA
BRANCH  11  14
ATOM     14  C   UNL d   1      51.199  34.328  52.772  0.00  0.00     0.059 A 
ATOM     15  C   UNL d   1      50.750  34.323  52.063  0.00  0.00     0.016 A 
ATOM     16  C   UNL d   1      49.968  34.576  52.082  0.00  0.00     0.001 A 
ATOM     17  C   UNL d   1      51.087  34.068  51.351  0.00  0.00     0.002 C 
ATOM     18  C   UNL d   1      49.625  34.835  52.805  0.00  0.00     0.000 A 
ATOM     19  C   UNL d   1      50.071  34.840  53.509  0.00  0.00     0.002 A 
ATOM     20  C   UNL d   1      48.836  35.089  52.819  0.00  0.00     0.000 C 
ATOM     21  C   UNL d   1      50.865  34.582  53.484  0.00  0.00     0.017 A 
ENDBRANCH  11  14
ENDBRANCH   9  10
ENDBRANCH   2   9
BRANCH   1  22
ATOM     22  C   UNL d   1      53.705  32.238  53.878  0.00  0.00     0.184 C 
ATOM     23  S   UNL d   1      54.167  32.127  53.207  0.00  0.00    -0.040 SA
BRANCH  22  24
ATOM     24  N   UNL d   1      53.102  31.716  54.074  0.00  0.00    -0.331 N 
ATOM     25  H   UNL d   1      52.491  31.981  54.556  0.00  0.00     0.168 HD
BRANCH  24  26
ATOM     26  C   UNL d   1      53.102  30.944  53.797  0.00  0.00     0.058 A 
ATOM     27  C   UNL d   1      52.813  30.774  53.049  0.00  0.00     0.017 A 
ATOM     28  C   UNL d   1      52.813  30.002  52.771  0.00  0.00     0.002 A 
ATOM     29  C   UNL d   1      53.106  29.400  53.251  0.00  0.00     0.000 A 
ATOM     30  C   UNL d   1      53.398  29.568  54.004  0.00  0.00     0.002 A 
ATOM     31  C   UNL d   1      53.394  30.345  54.274  0.00  0.00     0.017 A 
ENDBRANCH  24  26
ENDBRANCH  22  24
ENDBRANCH   1  22
TORSDOF 6
ENDMDL
MODEL 3
REMARK VINA RESULT:      -7.4      1.383      4.423
REMARK  6 active torsions:
REMARK  status: ('A' for Active; 'I' for Inactive)
REMARK    1  A    between atoms: N_2  and  C_1 
REMARK    2  A    between atoms: N_7  and  C_1 
REMARK    3  A    between atoms: C_5  and  C_3 
REMARK    4  A    between atoms: C_6  and  C_5 
REMARK       I    between atoms: N_8  and  C_6 
REMARK    5  A    between atoms: C_18  and  N_7 
REMARK    6  A    between atoms: C_9  and  N_8 
ROOT
ATOM      1  N   UNL d   1      53.573  31.478  53.776  0.00  0.00    -0.278 N 
ATOM      2  C   UNL d   1      53.026  31.534  53.168  0.00  0.00     0.127 A 
ATOM      3  C   UNL d   1      52.599  30.852  52.929  0.00  0.00     0.274 A 
ATOM      4  N   UNL d   1      52.723  30.126  53.299  0.00  0.00    -0.318 N 
ATOM      5  O   UNL d   1      52.052  30.908  52.320  0.00  0.00    -0.266 OA
ATOM      6  C   UNL d   1      53.706  30.757  54.154  0.00  0.00     0.101 A 
ATOM      7  C   UNL d   1      53.282  30.087  53.915  0.00  0.00     0.094 A 
ATOM      8  H   UNL d   1      52.308  29.452  53.071  0.00  0.00     0.169 HD
ENDROOT
BRANCH   2   9
ATOM      9  C   UNL d   1      52.898  32.249  52.797  0.00  0.00     0.083 C 
BRANCH   9  10
ATOM     10  C   UNL d   1      52.170  32.621  52.862  0.00  0.00     0.259 C 
ATOM     11  N   UNL d   1      52.068  33.381  52.548  0.00  0.00    -0.321 N 
ATOM     12  H   UNL d   1      52.697  33.764  52.170  0.00  0.00     0.169 HD
ATOM     13  O   UNL d   1      51.541  32.239  53.240  0.00  0.00    -0.267 OA
BRANCH  11  14
ATOM     14  C   UNL d   1      51.334  33.746  52.619  0.00  0.00     0.059 A 
ATOM     15  C   UNL d   1      51.067  34.236  51.992  0.00  0.00     0.016 A 
ATOM     16  C   UNL d   1      50.335  34.604  52.055  0.00  0.00     0.001 A 
ATOM     17  C   UNL d   1      51.533  34.349  51.317  0.00  0.00     0.002 C 
ATOM     18  C   UNL d   1      49.861  34.489  52.741  0.00  0.00     0.000 A 
ATOM     19  C   UNL d   1      50.126  34.002  53.364  0.00  0.00     0.002 A 
ATOM     20  C   UNL d   1      49.124  34.862  52.799  0.00  0.00     0.000 C 
ATOM     21  C   UNL d   1      50.871  33.631  53.294  0.00  0.00     0.017 A 
ENDBRANCH  11  14
ENDBRANCH   9  10
ENDBRANCH   2   9
BRANCH   1  22
ATOM     22  C   UNL d   1      53.992  32.146  54.011  0.00  0.00     0.184 C 
ATOM     23  S   UNL d   1      54.509  32.495  53.475  0.00  0.00    -0.040 SA
BRANCH  22  24
ATOM     24  N   UNL d   1      53.890  32.450  54.768  0.00  0.00    -0.331 N 
ATOM     25  H   UNL d   1      53.408  32.044  55.295  0.00  0.00     0.168 HD
BRANCH  24  26
ATOM     26  C   UNL d   1      54.259  33.145  54.999  0.00  0.00     0.058 A 
ATOM     27  C   UNL d   1      55.076  33.212  54.959  0.00  0.00     0.017 A 
ATOM     28  C   UNL d   1      55.446  33.906  55.190  0.00  0.00     0.002 A 
ATOM     29  C   UNL d   1      54.990  34.536  55.462  0.00  0.00     0.000 A 
ATOM     30  C   UNL d   1      54.169  34.472  55.504  0.00  0.00     0.002 A 
ATOM     31  C   UNL d   1      53.806  33.771  55.270  0.00  0.00     0.017 A 
ENDBRANCH  24  26
ENDBRANCH  22  24
ENDBRANCH   1  22
TORSDOF 6
ENDMDL
