MODEL 1
REMARK VINA RESULT:     133.3      0.000      0.000
REMARK  4 active torsions:
REMARK  status: ('A' for Active; 'I' for Inactive)
REMARK    1  A    between atoms: C_2  and  C_1 
REMARK    2  A    between atoms: C_16  and  C_4 
REMARK    3  A    between atoms: C_28  and  C_15 
REMARK    4  A    between atoms: N_17  and  C_16 
ROOT
ATOM      1  C   UNL d   1      60.762  46.184  50.601  0.00  0.00     0.098 A 
ATOM      2  C   UNL d   1      59.713  48.314  51.324  0.00  0.00     0.079 A 
ATOM      3  C   UNL d   1      60.865  47.587  50.897  0.00  0.00     0.062 A 
ATOM      4  C   UNL d   1      61.219  46.883  50.656  0.00  0.00     0.202 A 
ATOM      5  C   UNL d   1      60.055  47.616  51.088  0.00  0.00     0.108 A 
ATOM      6  C   UNL d   1      59.950  46.212  50.792  0.00  0.00     0.129 A 
ATOM      7  O   UNL d   1      59.593  46.926  51.036  0.00  0.00    -0.305 OA
ATOM      8  C   UNL d   1      60.166  48.999  51.377  0.00  0.00     0.199 A 
ATOM      9  C   UNL d   1      61.321  48.272  50.948  0.00  0.00     0.008 A 
ATOM     10  C   UNL d   1      60.966  48.971  51.188  0.00  0.00     0.039 A 
ATOM     11  O   UNL d   1      62.016  46.860  50.469  0.00  0.00    -0.286 OA
ATOM     12  O   UNL d   1      59.826  49.707  51.615  0.00  0.00    -0.286 OA
ENDROOT
BRANCH   1  13
ATOM     13  C   UNL d   1      61.111  45.476  50.360  0.00  0.00     0.153 A 
ATOM     14  N   UNL d   1      61.344  44.855  50.858  0.00  0.00    -0.227 NA
ATOM     15  C   UNL d   1      61.666  44.258  50.381  0.00  0.00     0.099 A 
ATOM     16  C   UNL d   1      61.981  43.528  50.570  0.00  0.00     0.021 A 
ATOM     17  C   UNL d   1      61.634  44.506  49.605  0.00  0.00     0.083 A 
ATOM     18  C   UNL d   1      62.268  43.037  49.972  0.00  0.00     0.002 A 
ATOM     19  C   UNL d   1      62.237  43.284  49.192  0.00  0.00     0.002 A 
ATOM     20  C   UNL d   1      61.915  44.030  49.003  0.00  0.00     0.019 A 
ATOM     21  N   UNL d   1      61.287  45.269  49.585  0.00  0.00    -0.288 N 
ATOM     22  C   UNL d   1      61.144  45.732  48.917  0.00  0.00     0.101 C 
ENDBRANCH   1  13
BRANCH  10  23
ATOM     23  C   UNL d   1      61.425  49.666  51.242  0.00  0.00     0.003 C 
ATOM     24  C   UNL d   1      62.062  49.708  51.768  0.00  0.00     0.000 C 
ENDBRANCH  10  23
BRANCH   2  25
ATOM     25  C   UNL d   1      58.913  48.342  51.513  0.00  0.00     0.086 C 
BRANCH  25  26
ATOM     26  N   UNL d   1      58.372  48.618  50.966  0.00  0.00    -0.300 N 
ATOM     27  C   UNL d   1      57.846  48.088  50.595  0.00  0.00     0.100 A 
ATOM     28  C   UNL d   1      57.296  48.382  50.036  0.00  0.00     0.100 A 
ATOM     29  N   UNL d   1      57.274  49.184  49.853  0.00  0.00    -0.299 N 
ATOM     30  C   UNL d   1      57.803  49.707  50.229  0.00  0.00     0.100 A 
ATOM     31  C   UNL d   1      56.728  49.471  49.299  0.00  0.00     0.100 C 
ATOM     32  C   UNL d   1      58.348  49.424  50.781  0.00  0.00     0.100 A 
ENDBRANCH  25  26
ENDBRANCH   2  25
TORSDOF 4
ENDMDL
MODEL 2
REMARK VINA RESULT:     135.4      6.950      9.239
REMARK  4 active torsions:
REMARK  status: ('A' for Active; 'I' for Inactive)
REMARK    1  A    between atoms: C_2  and  C_1 
REMARK    2  A    between atoms: C_16  and  C_4 
REMARK    3  A    between atoms: C_28  and  C_15 
REMARK    4  A    between atoms: N_17  and  C_16 
ROOT
ATOM      1  C   UNL d   1      56.090  43.138  55.054  0.00  0.00     0.098 A 
ATOM      2  C   UNL d   1      56.109  40.686  54.664  0.00  0.00     0.079 A 
ATOM      3  C   UNL d   1      56.074  42.018  54.151  0.00  0.00     0.062 A 
ATOM      4  C   UNL d   1      56.068  42.833  54.273  0.00  0.00     0.202 A 
ATOM      5  C   UNL d   1      56.103  41.489  54.794  0.00  0.00     0.108 A 
ATOM      6  C   UNL d   1      56.119  42.608  55.697  0.00  0.00     0.129 A 
ATOM      7  O   UNL d   1      56.126  41.782  55.571  0.00  0.00    -0.305 OA
ATOM      8  C   UNL d   1      56.086  40.391  53.896  0.00  0.00     0.199 A 
ATOM      9  C   UNL d   1      56.051  41.725  53.381  0.00  0.00     0.008 A 
ATOM     10  C   UNL d   1      56.058  40.914  53.262  0.00  0.00     0.039 A 
ATOM     11  O   UNL d   1      56.039  43.350  53.639  0.00  0.00    -0.286 OA
ATOM     12  O   UNL d   1      56.092  39.582  53.760  0.00  0.00    -0.286 OA
ENDROOT
BRANCH   1  13
ATOM     13  C   UNL d   1      56.084  43.953  55.182  0.00  0.00     0.153 A 
ATOM     14  N   UNL d   1      56.099  44.328  55.922  0.00  0.00    -0.227 NA
ATOM     15  C   UNL d   1      56.086  45.146  55.787  0.00  0.00     0.099 A 
ATOM     16  C   UNL d   1      56.092  45.778  56.307  0.00  0.00     0.021 A 
ATOM     17  C   UNL d   1      56.064  45.273  54.982  0.00  0.00     0.083 A 
ATOM     18  C   UNL d   1      56.076  46.549  56.015  0.00  0.00     0.002 A 
ATOM     19  C   UNL d   1      56.054  46.679  55.207  0.00  0.00     0.002 A 
ATOM     20  C   UNL d   1      56.048  46.032  54.680  0.00  0.00     0.019 A 
ATOM     21  N   UNL d   1      56.063  44.529  54.598  0.00  0.00    -0.288 N 
ATOM     22  C   UNL d   1      56.044  44.391  53.783  0.00  0.00     0.101 C 
ENDBRANCH   1  13
BRANCH  10  23
ATOM     23  C   UNL d   1      56.035  40.614  52.484  0.00  0.00     0.003 C 
ATOM     24  C   UNL d   1      56.193  41.108  51.839  0.00  0.00     0.000 C 
ENDBRANCH  10  23
BRANCH   2  25
ATOM     25  C   UNL d   1      56.137  40.163  55.299  0.00  0.00     0.086 C 
BRANCH  25  26
ATOM     26  N   UNL d   1      56.823  39.749  55.458  0.00  0.00    -0.300 N 
ATOM     27  C   UNL d   1      57.238  39.885  56.168  0.00  0.00     0.100 A 
ATOM     28  C   UNL d   1      57.940  39.454  56.320  0.00  0.00     0.100 A 
ATOM     29  N   UNL d   1      58.219  38.903  55.777  0.00  0.00    -0.299 N 
ATOM     30  C   UNL d   1      57.799  38.774  55.070  0.00  0.00     0.100 A 
ATOM     31  C   UNL d   1      58.914  38.480  55.932  0.00  0.00     0.100 C 
ATOM     32  C   UNL d   1      57.105  39.194  54.913  0.00  0.00     0.100 A 
ENDBRANCH  25  26
ENDBRANCH   2  25
TORSDOF 4
ENDMDL
