MODEL 1
REMARK VINA RESULT:      70.7      0.000      0.000
REMARK  4 active torsions:
REMARK  status: ('A' for Active; 'I' for Inactive)
REMARK    1  A    between atoms: C_7  and  C_1 
REMARK    2  A    between atoms: C_6  and  N_2 
REMARK    3  A    between atoms: C_8  and  C_6 
REMARK    4  A    between atoms: C_9  and  C_7 
ROOT
ATOM      1  C   UNL d   1      59.680  49.486  51.216  0.00  0.00     0.148 A 
ATOM      2  N   UNL d   1      60.459  49.371  51.141  0.00  0.00    -0.289 N 
ATOM      3  N   UNL d   1      59.460  49.626  51.962  0.00  0.00    -0.227 NA
ATOM      4  C   UNL d   1      60.799  49.442  51.930  0.00  0.00     0.083 A 
ATOM      5  C   UNL d   1      60.194  49.597  52.426  0.00  0.00     0.099 A 
ATOM      6  C   UNL d   1      61.548  49.388  52.238  0.00  0.00     0.019 A 
ATOM      7  C   UNL d   1      60.297  49.708  53.265  0.00  0.00     0.021 A 
ATOM      8  C   UNL d   1      61.712  49.484  53.028  0.00  0.00     0.002 A 
ATOM      9  C   UNL d   1      61.106  49.638  53.525  0.00  0.00     0.002 A 
ENDROOT
BRANCH   2  10
ATOM     10  C   UNL d   1      60.739  49.225  50.414  0.00  0.00     0.082 C 
BRANCH  10  11
ATOM     11  C   UNL d   1      61.059  48.518  50.211  0.00  0.00     0.018 A 
ATOM     12  C   UNL d   1      61.646  48.501  49.631  0.00  0.00     0.002 A 
ATOM     13  C   UNL d   1      62.006  47.783  49.391  0.00  0.00     0.000 A 
ATOM     14  C   UNL d   1      61.741  47.082  49.767  0.00  0.00     0.000 A 
ATOM     15  C   UNL d   1      61.153  47.098  50.347  0.00  0.00     0.000 A 
ATOM     16  C   UNL d   1      62.100  46.359  49.528  0.00  0.00     0.000 C 
ATOM     17  C   UNL d   1      60.832  47.816  50.549  0.00  0.00     0.002 A 
ENDBRANCH  10  11
ENDBRANCH   2  10
BRANCH   1  18
ATOM     18  C   UNL d   1      59.552  49.386  50.429  0.00  0.00     0.037 C 
BRANCH  18  19
ATOM     19  C   UNL d   1      58.790  49.493  50.129  0.00  0.00     0.003 A 
ATOM     20  C   UNL d   1      58.141  49.496  50.640  0.00  0.00     0.000 A 
ATOM     21  C   UNL d   1      57.379  49.602  50.340  0.00  0.00     0.000 A 
ATOM     22  C   UNL d   1      57.266  49.707  49.530  0.00  0.00     0.000 A 
ATOM     23  C   UNL d   1      57.911  49.707  48.995  0.00  0.00     0.000 A 
ATOM     24  C   UNL d   1      58.677  49.597  49.318  0.00  0.00     0.000 A 
ENDBRANCH  18  19
ENDBRANCH   1  18
TORSDOF 4
ENDMDL
