MODEL 1
REMARK VINA RESULT:      41.3      0.000      0.000
REMARK  11 active torsions:
REMARK  status: ('A' for Active; 'I' for Inactive)
REMARK    1  A    between atoms: C_3  and  C_1 
REMARK    2  A    between atoms: N_4  and  C_1 
REMARK    3  A    between atoms: C_5  and  C_1 
REMARK       I    between atoms: C_2  and  N_4 
REMARK    4  A    between atoms: O_10  and  C_2 
REMARK    5  A    between atoms: O_7  and  C_3 
REMARK    6  A    between atoms: C_12  and  C_5 
REMARK    7  A    between atoms: C_6  and  C_12 
REMARK    8  A    between atoms: C_13  and  O_7 
REMARK    9  A    between atoms: C_15  and  O_10 
REMARK   10  A    between atoms: C_16  and  C_13 
REMARK   11  A    between atoms: C_17  and  C_15 
ROOT
ATOM      1  C   UNL d   1      14.453  15.516  -2.958  0.00  0.00     0.150 C 
ENDROOT
BRANCH   1   2
ATOM      2  C   UNL d   1      13.774  15.050  -3.006  0.00  0.00     0.318 C 
ATOM      3  O   UNL d   1      13.241  15.029  -2.374  0.00  0.00    -0.257 OA
BRANCH   2   4
ATOM      4  O   UNL d   1      13.623  14.601  -3.689  0.00  0.00    -0.270 OA
BRANCH   4   5
ATOM      5  C   UNL d   1      13.095  14.243  -4.217  0.00  0.00     0.126 C 
BRANCH   5   6
ATOM      6  C   UNL d   1      13.100  13.423  -4.301  0.00  0.00     0.025 A 
ATOM      7  C   UNL d   1      12.770  12.949  -3.720  0.00  0.00     0.002 A 
ATOM      8  C   UNL d   1      12.772  12.138  -3.798  0.00  0.00     0.000 A 
ATOM      9  C   UNL d   1      13.110  11.781  -4.469  0.00  0.00     0.000 A 
ATOM     10  C   UNL d   1      13.445  12.268  -5.059  0.00  0.00     0.000 A 
ATOM     11  C   UNL d   1      13.438  13.081  -4.971  0.00  0.00     0.002 A 
ENDBRANCH   5   6
ENDBRANCH   4   5
ENDBRANCH   2   4
ENDBRANCH   1   2
BRANCH   1  12
ATOM     12  N   UNL d   1      14.618  15.932  -2.265  0.00  0.00    -0.180 NA
ATOM     13  C   UNL d   1      14.828  15.525  -1.577  0.00  0.00     0.393 C 
ATOM     14  O   UNL d   1      14.994  15.945  -0.883  0.00  0.00    -0.236 OA
BRANCH  13  15
ATOM     15  O   UNL d   1      14.874  14.701  -1.582  0.00  0.00    -0.256 OA
BRANCH  15  16
ATOM     16  C   UNL d   1      15.277  14.305  -0.978  0.00  0.00     0.128 C 
BRANCH  16  17
ATOM     17  C   UNL d   1      15.083  13.522  -0.808  0.00  0.00     0.025 A 
ATOM     18  C   UNL d   1      15.501  12.912  -1.174  0.00  0.00     0.002 A 
ATOM     19  C   UNL d   1      15.309  12.119  -1.005  0.00  0.00     0.000 A 
ATOM     20  C   UNL d   1      14.703  11.944  -0.473  0.00  0.00     0.000 A 
ATOM     21  C   UNL d   1      14.287  12.565  -0.109  0.00  0.00     0.000 A 
ATOM     22  C   UNL d   1      14.478  13.350  -0.278  0.00  0.00     0.002 A 
ENDBRANCH  16  17
ENDBRANCH  15  16
ENDBRANCH  13  15
ENDBRANCH   1  12
BRANCH   1  23
ATOM     23  C   UNL d   1      14.969  15.564  -3.603  0.00  0.00     0.031 C 
BRANCH  23  24
ATOM     24  C   UNL d   1      15.264  16.297  -3.843  0.00  0.00     0.072 C 
BRANCH  24  25
ATOM     25  C   UNL d   1      15.272  16.498  -4.644  0.00  0.00     0.211 C 
ATOM     26  O   UNL d   1      15.657  16.014  -5.196  0.00  0.00    -0.644 OA
ATOM     27  O   UNL d   1      14.896  17.188  -4.910  0.00  0.00    -0.644 OA
ENDBRANCH  24  25
ENDBRANCH  23  24
ENDBRANCH   1  23
TORSDOF 11
ENDMDL
MODEL 2
REMARK VINA RESULT:      41.9      1.593      3.459
REMARK  11 active torsions:
REMARK  status: ('A' for Active; 'I' for Inactive)
REMARK    1  A    between atoms: C_3  and  C_1 
REMARK    2  A    between atoms: N_4  and  C_1 
REMARK    3  A    between atoms: C_5  and  C_1 
REMARK       I    between atoms: C_2  and  N_4 
REMARK    4  A    between atoms: O_10  and  C_2 
REMARK    5  A    between atoms: O_7  and  C_3 
REMARK    6  A    between atoms: C_12  and  C_5 
REMARK    7  A    between atoms: C_6  and  C_12 
REMARK    8  A    between atoms: C_13  and  O_7 
REMARK    9  A    between atoms: C_15  and  O_10 
REMARK   10  A    between atoms: C_16  and  C_13 
REMARK   11  A    between atoms: C_17  and  C_15 
ROOT
ATOM      1  C   UNL d   1      13.508  13.379  -4.040  0.00  0.00     0.150 C 
ENDROOT
BRANCH   1   2
ATOM      2  C   UNL d   1      13.401  14.175  -3.848  0.00  0.00     0.318 C 
ATOM      3  O   UNL d   1      12.770  14.598  -4.175  0.00  0.00    -0.257 OA
BRANCH   2   4
ATOM      4  O   UNL d   1      13.926  14.553  -3.326  0.00  0.00    -0.270 OA
BRANCH   4   5
ATOM      5  C   UNL d   1      14.695  14.725  -3.074  0.00  0.00     0.126 C 
BRANCH   5   6
ATOM      6  C   UNL d   1      14.841  15.432  -2.675  0.00  0.00     0.025 A 
ATOM      7  C   UNL d   1      15.167  16.069  -3.075  0.00  0.00     0.002 A 
ATOM      8  C   UNL d   1      15.314  16.769  -2.686  0.00  0.00     0.000 A 
ATOM      9  C   UNL d   1      15.135  16.847  -1.878  0.00  0.00     0.000 A 
ATOM     10  C   UNL d   1      14.803  16.196  -1.474  0.00  0.00     0.000 A 
ATOM     11  C   UNL d   1      14.660  15.498  -1.873  0.00  0.00     0.002 A 
ENDBRANCH   5   6
ENDBRANCH   4   5
ENDBRANCH   2   4
ENDBRANCH   1   2
BRANCH   1  12
ATOM     12  N   UNL d   1      13.011  12.807  -3.713  0.00  0.00    -0.180 NA
ATOM     13  C   UNL d   1      13.269  12.354  -3.071  0.00  0.00     0.393 C 
ATOM     14  O   UNL d   1      12.769  11.780  -2.744  0.00  0.00    -0.236 OA
BRANCH  13  15
ATOM     15  O   UNL d   1      14.022  12.473  -2.756  0.00  0.00    -0.256 OA
BRANCH  15  16
ATOM     16  C   UNL d   1      14.403  11.861  -2.352  0.00  0.00     0.128 C 
BRANCH  16  17
ATOM     17  C   UNL d   1      14.679  11.992  -1.586  0.00  0.00     0.025 A 
ATOM     18  C   UNL d   1      14.138  12.067  -0.967  0.00  0.00     0.002 A 
ATOM     19  C   UNL d   1      14.412  12.200  -0.191  0.00  0.00     0.000 A 
ATOM     20  C   UNL d   1      15.222  12.256  -0.042  0.00  0.00     0.000 A 
ATOM     21  C   UNL d   1      15.760  12.180  -0.671  0.00  0.00     0.000 A 
ATOM     22  C   UNL d   1      15.486  12.048  -1.440  0.00  0.00     0.002 A 
ENDBRANCH  16  17
ENDBRANCH  15  16
ENDBRANCH  13  15
ENDBRANCH   1  12
BRANCH   1  23
ATOM     23  C   UNL d   1      14.112  13.156  -4.559  0.00  0.00     0.031 C 
BRANCH  23  24
ATOM     24  C   UNL d   1      14.048  12.456  -4.992  0.00  0.00     0.072 C 
BRANCH  24  25
ATOM     25  C   UNL d   1      14.097  12.474  -5.816  0.00  0.00     0.211 C 
ATOM     26  O   UNL d   1      14.263  11.782  -6.243  0.00  0.00    -0.644 OA
ATOM     27  O   UNL d   1      13.981  13.182  -6.231  0.00  0.00    -0.644 OA
ENDBRANCH  24  25
ENDBRANCH  23  24
ENDBRANCH   1  23
TORSDOF 11
ENDMDL
