MODEL 1
REMARK VINA RESULT:      -5.0      0.000      0.000
REMARK  4 active torsions:
REMARK  status: ('A' for Active; 'I' for Inactive)
REMARK    1  A    between atoms: N_2  and  S_1 
REMARK    2  A    between atoms: C_3  and  S_1 
REMARK    3  A    between atoms: O_15  and  C_7 
REMARK    4  A    between atoms: C_18  and  O_15 
ROOT
ATOM      1  C   UNL d   1     -41.451-123.000 -52.781  0.00  0.00     0.106 A 
ATOM      2  C   UNL d   1     -41.633-122.377 -53.289  0.00  0.00     0.040 A 
ATOM      3  C   UNL d   1     -41.561-122.473 -54.099  0.00  0.00     0.128 A 
ATOM      4  C   UNL d   1     -41.305-123.194 -54.408  0.00  0.00     0.163 A 
ATOM      5  C   UNL d   1     -41.195-123.721 -53.090  0.00  0.00     0.015 A 
ATOM      6  C   UNL d   1     -41.123-123.818 -53.900  0.00  0.00     0.032 A 
ATOM      7  F   UNL d   1     -41.232-123.291 -55.226  0.00  0.00    -0.202 F 
ENDROOT
BRANCH   1   8
ATOM      8  S   UNL d   1     -41.524-122.903 -51.963  0.00  0.00     0.272 S 
ATOM      9  O   UNL d   1     -41.123-122.181 -52.013  0.00  0.00    -0.200 OA
ATOM     10  O   UNL d   1     -41.925-123.623 -51.913  0.00  0.00    -0.200 OA
BRANCH   8  11
ATOM     11  N   UNL d   1     -41.597-122.805 -51.146  0.00  0.00    -0.225 N 
ATOM     12  C   UNL d   1     -41.151-123.272 -50.632  0.00  0.00     0.118 A 
ATOM     13  C   UNL d   1     -41.224-123.175 -49.815  0.00  0.00     0.142 A 
ATOM     14  O   UNL d   1     -41.743-122.610 -49.510  0.00  0.00    -0.300 OA
ATOM     15  C   UNL d   1     -42.189-122.144 -50.024  0.00  0.00     0.142 A 
ATOM     16  C   UNL d   1     -42.116-122.241 -50.841  0.00  0.00     0.118 A 
ENDBRANCH   8  11
ENDBRANCH   1   8
BRANCH   3  17
ATOM     17  O   UNL d   1     -41.746-121.841 -54.608  0.00  0.00    -0.303 OA
BRANCH  17  18
ATOM     18  C   UNL d   1     -42.524-121.721 -54.855  0.00  0.00     0.123 C 
ATOM     19  C   UNL d   1     -42.683-121.511 -55.640  0.00  0.00     0.029 C 
ENDBRANCH  17  18
ENDBRANCH   3  17
TORSDOF 4
ENDMDL
MODEL 2
REMARK VINA RESULT:      -4.7      1.783      3.975
REMARK  4 active torsions:
REMARK  status: ('A' for Active; 'I' for Inactive)
REMARK    1  A    between atoms: N_2  and  S_1 
REMARK    2  A    between atoms: C_3  and  S_1 
REMARK    3  A    between atoms: O_15  and  C_7 
REMARK    4  A    between atoms: C_18  and  O_15 
ROOT
ATOM      1  C   UNL d   1     -41.538-122.203 -52.098  0.00  0.00     0.106 A 
ATOM      2  C   UNL d   1     -41.814-122.798 -51.597  0.00  0.00     0.040 A 
ATOM      3  C   UNL d   1     -41.744-122.715 -50.785  0.00  0.00     0.128 A 
ATOM      4  C   UNL d   1     -41.399-122.037 -50.467  0.00  0.00     0.163 A 
ATOM      5  C   UNL d   1     -41.193-121.525 -51.780  0.00  0.00     0.015 A 
ATOM      6  C   UNL d   1     -41.124-121.442 -50.968  0.00  0.00     0.032 A 
ATOM      7  F   UNL d   1     -41.329-121.953 -49.648  0.00  0.00    -0.202 F 
ENDROOT
BRANCH   1   8
ATOM      8  S   UNL d   1     -41.608-122.287 -52.918  0.00  0.00     0.272 S 
ATOM      9  O   UNL d   1     -42.092-121.617 -52.945  0.00  0.00    -0.200 OA
ATOM     10  O   UNL d   1     -41.125-122.956 -52.891  0.00  0.00    -0.200 OA
BRANCH   8  11
ATOM     11  N   UNL d   1     -41.678-122.371 -53.736  0.00  0.00    -0.225 N 
ATOM     12  C   UNL d   1     -41.337-123.019 -54.117  0.00  0.00     0.118 A 
ATOM     13  C   UNL d   1     -41.407-123.102 -54.936  0.00  0.00     0.142 A 
ATOM     14  O   UNL d   1     -41.818-122.538 -55.376  0.00  0.00    -0.300 OA
ATOM     15  C   UNL d   1     -42.159-121.890 -54.995  0.00  0.00     0.142 A 
ATOM     16  C   UNL d   1     -42.089-121.806 -54.177  0.00  0.00     0.118 A 
ENDBRANCH   8  11
ENDBRANCH   1   8
BRANCH   3  17
ATOM     17  O   UNL d   1     -42.024-123.318 -50.283  0.00  0.00    -0.303 OA
BRANCH  17  18
ATOM     18  C   UNL d   1     -42.718-123.209 -49.851  0.00  0.00     0.123 C 
ATOM     19  C   UNL d   1     -43.003-123.817 -49.365  0.00  0.00     0.029 C 
ENDBRANCH  17  18
ENDBRANCH   3  17
TORSDOF 4
ENDMDL
MODEL 3
REMARK VINA RESULT:      -3.7      2.247      4.718
REMARK  4 active torsions:
REMARK  status: ('A' for Active; 'I' for Inactive)
REMARK    1  A    between atoms: N_2  and  S_1 
REMARK    2  A    between atoms: C_3  and  S_1 
REMARK    3  A    between atoms: O_15  and  C_7 
REMARK    4  A    between atoms: C_18  and  O_15 
ROOT
ATOM      1  C   UNL d   1     -42.218-122.924 -50.064  0.00  0.00     0.106 A 
ATOM      2  C   UNL d   1     -41.700-123.221 -49.495  0.00  0.00     0.040 A 
ATOM      3  C   UNL d   1     -41.971-123.383 -48.739  0.00  0.00     0.128 A 
ATOM      4  C   UNL d   1     -42.762-123.250 -48.547  0.00  0.00     0.163 A 
ATOM      5  C   UNL d   1     -43.009-122.791 -49.872  0.00  0.00     0.015 A 
ATOM      6  C   UNL d   1     -43.280-122.953 -49.116  0.00  0.00     0.032 A 
ATOM      7  F   UNL d   1     -43.036-123.413 -47.784  0.00  0.00    -0.202 F 
ENDROOT
BRANCH   1   8
ATOM      8  S   UNL d   1     -41.944-122.761 -50.827  0.00  0.00     0.272 S 
ATOM      9  O   UNL d   1     -41.871-123.571 -50.975  0.00  0.00    -0.200 OA
ATOM     10  O   UNL d   1     -42.016-121.951 -50.680  0.00  0.00    -0.200 OA
BRANCH   8  11
ATOM     11  N   UNL d   1     -41.670-122.597 -51.589  0.00  0.00    -0.225 N 
ATOM     12  C   UNL d   1     -41.485-123.215 -52.104  0.00  0.00     0.118 A 
ATOM     13  C   UNL d   1     -41.211-123.052 -52.866  0.00  0.00     0.142 A 
ATOM     14  O   UNL d   1     -41.123-122.270 -53.115  0.00  0.00    -0.300 OA
ATOM     15  C   UNL d   1     -41.308-121.652 -52.601  0.00  0.00     0.142 A 
ATOM     16  C   UNL d   1     -41.582-121.816 -51.839  0.00  0.00     0.118 A 
ENDBRANCH   8  11
ENDBRANCH   1   8
BRANCH   3  17
ATOM     17  O   UNL d   1     -41.446-123.682 -48.167  0.00  0.00    -0.303 OA
BRANCH  17  18
ATOM     18  C   UNL d   1     -41.255-123.232 -47.502  0.00  0.00     0.123 C 
ATOM     19  C   UNL d   1     -41.124-123.603 -46.773  0.00  0.00     0.029 C 
ENDBRANCH  17  18
ENDBRANCH   3  17
TORSDOF 4
ENDMDL
MODEL 4
REMARK VINA RESULT:      -3.1      2.276      3.086
REMARK  4 active torsions:
REMARK  status: ('A' for Active; 'I' for Inactive)
REMARK    1  A    between atoms: N_2  and  S_1 
REMARK    2  A    between atoms: C_3  and  S_1 
REMARK    3  A    between atoms: O_15  and  C_7 
REMARK    4  A    between atoms: C_18  and  O_15 
ROOT
ATOM      1  C   UNL d   1     -41.685-123.122 -49.992  0.00  0.00     0.106 A 
ATOM      2  C   UNL d   1     -41.743-122.418 -50.418  0.00  0.00     0.040 A 
ATOM      3  C   UNL d   1     -41.578-122.409 -51.220  0.00  0.00     0.128 A 
ATOM      4  C   UNL d   1     -41.354-123.104 -51.603  0.00  0.00     0.163 A 
ATOM      5  C   UNL d   1     -41.461-123.817 -50.376  0.00  0.00     0.015 A 
ATOM      6  C   UNL d   1     -41.296-123.808 -51.178  0.00  0.00     0.032 A 
ATOM      7  F   UNL d   1     -41.188-123.095 -52.414  0.00  0.00    -0.202 F 
ENDROOT
BRANCH   1   8
ATOM      8  S   UNL d   1     -41.851-123.131 -49.182  0.00  0.00     0.272 S 
ATOM      9  O   UNL d   1     -42.466-123.669 -49.314  0.00  0.00    -0.200 OA
ATOM     10  O   UNL d   1     -41.238-122.594 -49.050  0.00  0.00    -0.200 OA
BRANCH   8  11
ATOM     11  N   UNL d   1     -42.017-123.140 -48.373  0.00  0.00    -0.225 N 
ATOM     12  C   UNL d   1     -42.798-123.087 -48.110  0.00  0.00     0.118 A 
ATOM     13  C   UNL d   1     -42.964-123.096 -47.301  0.00  0.00     0.142 A 
ATOM     14  O   UNL d   1     -42.350-123.159 -46.753  0.00  0.00    -0.300 OA
ATOM     15  C   UNL d   1     -41.569-123.212 -47.016  0.00  0.00     0.142 A 
ATOM     16  C   UNL d   1     -41.403-123.203 -47.825  0.00  0.00     0.118 A 
ENDBRANCH   8  11
ENDBRANCH   1   8
BRANCH   3  17
ATOM     17  O   UNL d   1     -41.638-121.696 -51.646  0.00  0.00    -0.303 OA
BRANCH  17  18
ATOM     18  C   UNL d   1     -41.146-121.060 -51.462  0.00  0.00     0.123 C 
ATOM     19  C   UNL d   1     -41.318-120.304 -51.755  0.00  0.00     0.029 C 
ENDBRANCH  17  18
ENDBRANCH   3  17
TORSDOF 4
ENDMDL
