MODEL 1
REMARK VINA RESULT:      -6.7      0.000      0.000
REMARK  5 active torsions:
REMARK  status: ('A' for Active; 'I' for Inactive)
REMARK    1  A    between atoms: N_6  and  C_1 
REMARK    2  A    between atoms: C_7  and  C_2 
REMARK       I    between atoms: C_8  and  N_6 
REMARK       I    between atoms: N_13  and  C_7 
REMARK    3  A    between atoms: C_9  and  C_8 
REMARK    4  A    between atoms: C_10  and  C_9 
REMARK    5  A    between atoms: C_15  and  C_10 
ROOT
ATOM      1  C   UNL d   1     -48.497  13.864  22.504  0.00  0.00     0.119 A 
ATOM      2  C   UNL d   1     -49.170  13.722  22.862  0.00  0.00     0.082 A 
ATOM      3  S   UNL d   1     -48.383  14.647  22.489  0.00  0.00    -0.068 SA
ATOM      4  C   UNL d   1     -49.489  14.412  23.078  0.00  0.00     0.013 A 
ATOM      5  C   UNL d   1     -48.996  14.986  22.844  0.00  0.00     0.031 A 
ATOM      6  C   UNL d   1     -50.160  14.596  23.455  0.00  0.00     0.001 A 
ATOM      7  C   UNL d   1     -49.846  15.922  23.365  0.00  0.00     0.006 A 
ATOM      8  C   UNL d   1     -50.335  15.351  23.597  0.00  0.00     0.001 A 
ENDROOT
BRANCH   1   9
ATOM      9  N   UNL d   1     -47.909  13.574  22.165  0.00  0.00    -0.201 NA
ATOM     10  C   UNL d   1     -47.127  13.744  22.699  0.00  0.00     0.280 C 
ATOM     11  O   UNL d   1     -46.996  14.057  23.292  0.00  0.00    -0.265 OA
BRANCH  10  12
ATOM     12  C   UNL d   1     -46.442  13.437  22.357  0.00  0.00     0.062 C 
BRANCH  12  13
ATOM     13  C   UNL d   1     -45.827  13.152  22.838  0.00  0.00     0.005 C 
BRANCH  13  14
ATOM     14  C   UNL d   1     -45.130  12.873  22.496  0.00  0.00     0.000 A 
ATOM     15  C   UNL d   1     -44.750  13.311  21.905  0.00  0.00     0.000 A 
ATOM     16  C   UNL d   1     -44.054  13.038  21.559  0.00  0.00     0.000 A 
ATOM     17  C   UNL d   1     -43.726  12.319  21.801  0.00  0.00     0.000 A 
ATOM     18  C   UNL d   1     -44.106  11.875  22.397  0.00  0.00     0.000 A 
ATOM     19  C   UNL d   1     -44.803  12.154  22.739  0.00  0.00     0.000 A 
ENDBRANCH  13  14
ENDBRANCH  12  13
ENDBRANCH  10  12
ENDBRANCH   1   9
BRANCH   2  20
ATOM     20  C   UNL d   1     -49.484  13.009  22.991  0.00  0.00     0.281 C 
ATOM     21  O   UNL d   1     -49.377  12.652  23.689  0.00  0.00    -0.265 OA
ATOM     22  N   UNL d   1     -49.906  12.652  22.425  0.00  0.00    -0.205 NA
ATOM     23  C   UNL d   1     -50.233  11.907  22.562  0.00  0.00     0.123 C 
ENDBRANCH   2  20
TORSDOF 5
ENDMDL
MODEL 2
REMARK VINA RESULT:      -6.5      1.256      1.672
REMARK  5 active torsions:
REMARK  status: ('A' for Active; 'I' for Inactive)
REMARK    1  A    between atoms: N_6  and  C_1 
REMARK    2  A    between atoms: C_7  and  C_2 
REMARK       I    between atoms: C_8  and  N_6 
REMARK       I    between atoms: N_13  and  C_7 
REMARK    3  A    between atoms: C_9  and  C_8 
REMARK    4  A    between atoms: C_10  and  C_9 
REMARK    5  A    between atoms: C_15  and  C_10 
ROOT
ATOM      1  C   UNL d   1     -47.860  13.035  23.124  0.00  0.00     0.119 A 
ATOM      2  C   UNL d   1     -48.568  13.157  22.833  0.00  0.00     0.082 A 
ATOM      3  S   UNL d   1     -47.467  13.722  23.119  0.00  0.00    -0.068 SA
ATOM      4  C   UNL d   1     -48.631  13.922  22.640  0.00  0.00     0.013 A 
ATOM      5  C   UNL d   1     -47.943  14.270  22.820  0.00  0.00     0.031 A 
ATOM      6  C   UNL d   1     -49.220  14.346  22.326  0.00  0.00     0.001 A 
ATOM      7  C   UNL d   1     -48.437  15.464  22.372  0.00  0.00     0.006 A 
ATOM      8  C   UNL d   1     -49.119  15.116  22.194  0.00  0.00     0.001 A 
ENDROOT
BRANCH   1   9
ATOM      9  N   UNL d   1     -47.390  12.542  23.409  0.00  0.00    -0.201 NA
ATOM     10  C   UNL d   1     -46.541  12.628  22.963  0.00  0.00     0.280 C 
ATOM     11  O   UNL d   1     -46.285  13.021  22.467  0.00  0.00    -0.265 OA
BRANCH  10  12
ATOM     12  C   UNL d   1     -45.982  12.094  23.251  0.00  0.00     0.062 C 
BRANCH  12  13
ATOM     13  C   UNL d   1     -45.324  11.889  22.787  0.00  0.00     0.005 C 
BRANCH  13  14
ATOM     14  C   UNL d   1     -44.803  11.304  23.043  0.00  0.00     0.000 A 
ATOM     15  C   UNL d   1     -43.989  11.379  22.905  0.00  0.00     0.000 A 
ATOM     16  C   UNL d   1     -43.463  10.798  23.158  0.00  0.00     0.000 A 
ATOM     17  C   UNL d   1     -43.744  10.129  23.556  0.00  0.00     0.000 A 
ATOM     18  C   UNL d   1     -44.563  10.051  23.698  0.00  0.00     0.000 A 
ATOM     19  C   UNL d   1     -45.084  10.637  23.441  0.00  0.00     0.000 A 
ENDBRANCH  13  14
ENDBRANCH  12  13
ENDBRANCH  10  12
ENDBRANCH   1   9
BRANCH   2  20
ATOM     20  C   UNL d   1     -49.132  12.612  22.742  0.00  0.00     0.281 C 
ATOM     21  O   UNL d   1     -49.248  12.280  22.033  0.00  0.00    -0.265 OA
ATOM     22  N   UNL d   1     -49.580  12.397  23.357  0.00  0.00    -0.205 NA
ATOM     23  C   UNL d   1     -50.168  11.826  23.259  0.00  0.00     0.123 C 
ENDBRANCH   2  20
TORSDOF 5
ENDMDL
MODEL 3
REMARK VINA RESULT:      -5.8      8.803      9.859
REMARK  5 active torsions:
REMARK  status: ('A' for Active; 'I' for Inactive)
REMARK    1  A    between atoms: N_6  and  C_1 
REMARK    2  A    between atoms: C_7  and  C_2 
REMARK       I    between atoms: C_8  and  N_6 
REMARK       I    between atoms: N_13  and  C_7 
REMARK    3  A    between atoms: C_9  and  C_8 
REMARK    4  A    between atoms: C_10  and  C_9 
REMARK    5  A    between atoms: C_15  and  C_10 
ROOT
ATOM      1  C   UNL d   1     -39.136  14.896  18.288  0.00  0.00     0.119 A 
ATOM      2  C   UNL d   1     -39.572  14.774  17.659  0.00  0.00     0.082 A 
ATOM      3  S   UNL d   1     -38.390  14.689  18.118  0.00  0.00    -0.068 SA
ATOM      4  C   UNL d   1     -39.109  14.490  17.084  0.00  0.00     0.013 A 
ATOM      5  C   UNL d   1     -38.374  14.438  17.374  0.00  0.00     0.031 A 
ATOM      6  C   UNL d   1     -39.257  14.271  16.338  0.00  0.00     0.001 A 
ATOM      7  C   UNL d   1     -37.940  13.951  16.173  0.00  0.00     0.006 A 
ATOM      8  C   UNL d   1     -38.670  14.003  15.886  0.00  0.00     0.001 A 
ENDROOT
BRANCH   1   9
ATOM      9  N   UNL d   1     -39.120  15.126  18.989  0.00  0.00    -0.201 NA
ATOM     10  C   UNL d   1     -38.936  14.373  19.560  0.00  0.00     0.280 C 
ATOM     11  O   UNL d   1     -38.822  13.706  19.471  0.00  0.00    -0.265 OA
BRANCH  10  12
ATOM     12  C   UNL d   1     -38.909  14.586  20.357  0.00  0.00     0.062 C 
BRANCH  12  13
ATOM     13  C   UNL d   1     -39.129  14.038  20.941  0.00  0.00     0.005 C 
BRANCH  13  14
ATOM     14  C   UNL d   1     -38.994  14.206  21.738  0.00  0.00     0.000 A 
ATOM     15  C   UNL d   1     -39.166  14.959  22.040  0.00  0.00     0.000 A 
ATOM     16  C   UNL d   1     -39.034  15.135  22.834  0.00  0.00     0.000 A 
ATOM     17  C   UNL d   1     -38.727  14.557  23.341  0.00  0.00     0.000 A 
ATOM     18  C   UNL d   1     -38.553  13.798  23.039  0.00  0.00     0.000 A 
ATOM     19  C   UNL d   1     -38.687  13.629  22.243  0.00  0.00     0.000 A 
ENDBRANCH  13  14
ENDBRANCH  12  13
ENDBRANCH  10  12
ENDBRANCH   1   9
BRANCH   2  20
ATOM     20  C   UNL d   1     -40.347  14.910  17.600  0.00  0.00     0.281 C 
ATOM     21  O   UNL d   1     -40.858  14.309  17.666  0.00  0.00    -0.265 OA
ATOM     22  N   UNL d   1     -40.615  15.644  17.474  0.00  0.00    -0.205 NA
ATOM     23  C   UNL d   1     -41.426  15.782  17.413  0.00  0.00     0.123 C 
ENDBRANCH   2  20
TORSDOF 5
ENDMDL
MODEL 4
REMARK VINA RESULT:      -5.8      7.807      9.686
REMARK  5 active torsions:
REMARK  status: ('A' for Active; 'I' for Inactive)
REMARK    1  A    between atoms: N_6  and  C_1 
REMARK    2  A    between atoms: C_7  and  C_2 
REMARK       I    between atoms: C_8  and  N_6 
REMARK       I    between atoms: N_13  and  C_7 
REMARK    3  A    between atoms: C_9  and  C_8 
REMARK    4  A    between atoms: C_10  and  C_9 
REMARK    5  A    between atoms: C_15  and  C_10 
ROOT
ATOM      1  C   UNL d   1     -38.930  14.474  20.424  0.00  0.00     0.119 A 
ATOM      2  C   UNL d   1     -39.455  14.475  20.995  0.00  0.00     0.082 A 
ATOM      3  S   UNL d   1     -38.284  14.093  20.680  0.00  0.00    -0.068 SA
ATOM      4  C   UNL d   1     -39.148  14.096  21.618  0.00  0.00     0.013 A 
ATOM      5  C   UNL d   1     -38.419  13.859  21.417  0.00  0.00     0.031 A 
ATOM      6  C   UNL d   1     -39.432  13.934  22.338  0.00  0.00     0.001 A 
ATOM      7  C   UNL d   1     -38.264  13.302  22.656  0.00  0.00     0.006 A 
ATOM      8  C   UNL d   1     -38.988  13.537  22.854  0.00  0.00     0.001 A 
ENDROOT
BRANCH   1   9
ATOM      9  N   UNL d   1     -38.775  14.680  19.733  0.00  0.00    -0.201 NA
ATOM     10  C   UNL d   1     -38.685  13.894  19.186  0.00  0.00     0.280 C 
ATOM     11  O   UNL d   1     -38.730  13.220  19.284  0.00  0.00    -0.265 OA
BRANCH  10  12
ATOM     12  C   UNL d   1     -38.510  14.079  18.401  0.00  0.00     0.062 C 
BRANCH  12  13
ATOM     13  C   UNL d   1     -38.913  13.696  17.783  0.00  0.00     0.005 C 
BRANCH  13  14
ATOM     14  C   UNL d   1     -38.684  13.819  17.000  0.00  0.00     0.000 A 
ATOM     15  C   UNL d   1     -38.173  13.284  16.626  0.00  0.00     0.000 A 
ATOM     16  C   UNL d   1     -37.940  13.401  15.844  0.00  0.00     0.000 A 
ATOM     17  C   UNL d   1     -38.215  14.058  15.423  0.00  0.00     0.000 A 
ATOM     18  C   UNL d   1     -38.729  14.598  15.798  0.00  0.00     0.000 A 
ATOM     19  C   UNL d   1     -38.959  14.475  16.581  0.00  0.00     0.000 A 
ENDBRANCH  13  14
ENDBRANCH  12  13
ENDBRANCH  10  12
ENDBRANCH   1   9
BRANCH   2  20
ATOM     20  C   UNL d   1     -40.173  14.799  20.963  0.00  0.00     0.281 C 
ATOM     21  O   UNL d   1     -40.807  14.341  20.840  0.00  0.00    -0.265 OA
ATOM     22  N   UNL d   1     -40.263  15.580  21.053  0.00  0.00    -0.205 NA
ATOM     23  C   UNL d   1     -41.016  15.915  21.018  0.00  0.00     0.123 C 
ENDBRANCH   2  20
TORSDOF 5
ENDMDL
MODEL 5
REMARK VINA RESULT:      -4.1      1.098      1.958
REMARK  5 active torsions:
REMARK  status: ('A' for Active; 'I' for Inactive)
REMARK    1  A    between atoms: N_6  and  C_1 
REMARK    2  A    between atoms: C_7  and  C_2 
REMARK       I    between atoms: C_8  and  N_6 
REMARK       I    between atoms: N_13  and  C_7 
REMARK    3  A    between atoms: C_9  and  C_8 
REMARK    4  A    between atoms: C_10  and  C_9 
REMARK    5  A    between atoms: C_15  and  C_10 
ROOT
ATOM      1  C   UNL d   1     -48.720  12.989  22.429  0.00  0.00     0.119 A 
ATOM      2  C   UNL d   1     -49.373  13.344  22.654  0.00  0.00     0.082 A 
ATOM      3  S   UNL d   1     -48.758  12.231  22.656  0.00  0.00    -0.068 SA
ATOM      4  C   UNL d   1     -49.829  12.815  23.025  0.00  0.00     0.013 A 
ATOM      5  C   UNL d   1     -49.442  12.124  23.024  0.00  0.00     0.031 A 
ATOM      6  C   UNL d   1     -50.542  12.870  23.363  0.00  0.00     0.001 A 
ATOM      7  C   UNL d   1     -50.483  11.547  23.698  0.00  0.00     0.006 A 
ATOM      8  C   UNL d   1     -50.866  12.234  23.698  0.00  0.00     0.001 A 
ENDROOT
BRANCH   1   9
ATOM      9  N   UNL d   1     -48.070  13.060  22.088  0.00  0.00    -0.201 NA
ATOM     10  C   UNL d   1     -47.366  12.871  22.716  0.00  0.00     0.280 C 
ATOM     11  O   UNL d   1     -47.331  12.696  23.375  0.00  0.00    -0.265 OA
BRANCH  10  12
ATOM     12  C   UNL d   1     -46.618  12.938  22.376  0.00  0.00     0.062 C 
BRANCH  12  13
ATOM     13  C   UNL d   1     -45.937  12.844  22.844  0.00  0.00     0.005 C 
BRANCH  13  14
ATOM     14  C   UNL d   1     -45.201  12.740  22.487  0.00  0.00     0.000 A 
ATOM     15  C   UNL d   1     -44.722  12.098  22.700  0.00  0.00     0.000 A 
ATOM     16  C   UNL d   1     -43.985  11.987  22.347  0.00  0.00     0.000 A 
ATOM     17  C   UNL d   1     -43.715  12.519  21.774  0.00  0.00     0.000 A 
ATOM     18  C   UNL d   1     -44.196  13.167  21.558  0.00  0.00     0.000 A 
ATOM     19  C   UNL d   1     -44.933  13.271  21.915  0.00  0.00     0.000 A 
ENDBRANCH  13  14
ENDBRANCH  12  13
ENDBRANCH  10  12
ENDBRANCH   1   9
BRANCH   2  20
ATOM     20  C   UNL d   1     -49.552  14.103  22.534  0.00  0.00     0.281 C 
ATOM     21  O   UNL d   1     -49.881  14.326  21.849  0.00  0.00    -0.265 OA
ATOM     22  N   UNL d   1     -49.404  14.641  23.094  0.00  0.00    -0.205 NA
ATOM     23  C   UNL d   1     -49.593  15.433  22.965  0.00  0.00     0.123 C 
ENDBRANCH   2  20
TORSDOF 5
ENDMDL
