MODEL 1
REMARK VINA RESULT:      11.6      0.000      0.000
REMARK  2 active torsions:
REMARK  status: ('A' for Active; 'I' for Inactive)
REMARK    1  A    between atoms: C_6  and  C_1 
REMARK    2  A    between atoms: C_7  and  C_4 
ROOT
ATOM      1  C   UNL d   1      45.705 -15.906  44.393  0.00  0.00     0.169 A 
ATOM      2  C   UNL d   1      45.537 -16.199  43.640  0.00  0.00     0.048 A 
ATOM      3  N   UNL d   1      46.304 -17.142  44.751  0.00  0.00    -0.148 NA
ATOM      4  C   UNL d   1      46.138 -17.440  44.000  0.00  0.00     0.105 A 
ATOM      5  N   UNL d   1      46.088 -16.370  44.955  0.00  0.00    -0.142 NA
ENDROOT
BRANCH   4   6
ATOM      6  C   UNL d   1      46.265 -18.158  43.610  0.00  0.00     0.019 A 
ATOM      7  C   UNL d   1      46.363 -18.847  44.050  0.00  0.00     0.002 A 
ATOM      8  C   UNL d   1      46.488 -19.561  43.669  0.00  0.00     0.000 A 
ATOM      9  C   UNL d   1      46.334 -18.817  44.876  0.00  0.00     0.000 C 
ATOM     10  C   UNL d   1      46.517 -19.592  42.841  0.00  0.00     0.000 A 
ATOM     11  C   UNL d   1      46.418 -18.898  42.401  0.00  0.00     0.000 A 
ATOM     12  C   UNL d   1      46.644 -20.310  42.458  0.00  0.00     0.000 C 
ATOM     13  C   UNL d   1      46.293 -18.184  42.782  0.00  0.00     0.002 A 
ENDBRANCH   4   6
BRANCH   1  14
ATOM     14  C   UNL d   1      45.485 -15.133  44.587  0.00  0.00     0.231 C 
ATOM     15  O   UNL d   1      44.743 -14.986  44.916  0.00  0.00    -0.643 OA
ATOM     16  O   UNL d   1      46.006 -14.509  44.453  0.00  0.00    -0.643 OA
ENDBRANCH   1  14
TORSDOF 2
ENDMDL
MODEL 2
REMARK VINA RESULT:      12.6      0.774      1.369
REMARK  2 active torsions:
REMARK  status: ('A' for Active; 'I' for Inactive)
REMARK    1  A    between atoms: C_6  and  C_1 
REMARK    2  A    between atoms: C_7  and  C_4 
ROOT
ATOM      1  C   UNL d   1      45.596 -15.578  44.615  0.00  0.00     0.169 A 
ATOM      2  C   UNL d   1      45.248 -16.245  44.955  0.00  0.00     0.048 A 
ATOM      3  N   UNL d   1      46.475 -16.406  43.869  0.00  0.00    -0.148 NA
ATOM      4  C   UNL d   1      46.131 -17.075  44.206  0.00  0.00     0.105 A 
ATOM      5  N   UNL d   1      46.210 -15.649  44.071  0.00  0.00    -0.142 NA
ENDROOT
BRANCH   4   6
ATOM      6  C   UNL d   1      46.245 -17.891  44.141  0.00  0.00     0.019 A 
ATOM      7  C   UNL d   1      46.305 -18.235  43.396  0.00  0.00     0.002 A 
ATOM      8  C   UNL d   1      46.418 -19.043  43.326  0.00  0.00     0.000 A 
ATOM      9  C   UNL d   1      46.251 -17.764  42.718  0.00  0.00     0.000 C 
ATOM     10  C   UNL d   1      46.472 -19.516  44.004  0.00  0.00     0.000 A 
ATOM     11  C   UNL d   1      46.412 -19.168  44.753  0.00  0.00     0.000 A 
ATOM     12  C   UNL d   1      46.586 -20.330  43.934  0.00  0.00     0.000 C 
ATOM     13  C   UNL d   1      46.299 -18.360  44.822  0.00  0.00     0.002 A 
ENDBRANCH   4   6
BRANCH   1  14
ATOM     14  C   UNL d   1      45.323 -14.826  44.824  0.00  0.00     0.231 C 
ATOM     15  O   UNL d   1      45.863 -14.215  44.955  0.00  0.00    -0.643 OA
ATOM     16  O   UNL d   1      44.516 -14.685  44.901  0.00  0.00    -0.643 OA
ENDBRANCH   1  14
TORSDOF 2
ENDMDL
