MODEL 1
REMARK VINA RESULT:      -2.0      0.000      0.000
REMARK  3 active torsions:
REMARK  status: ('A' for Active; 'I' for Inactive)
REMARK    1  A    between atoms: C_6  and  C_1 
REMARK    2  A    between atoms: O_19  and  C_9 
REMARK    3  A    between atoms: O_20  and  C_13 
ROOT
ATOM      1  C   UNL d   1      32.770  18.914 -23.595  0.00  0.00     0.064 A 
ATOM      2  C   UNL d   1      32.778  19.154 -22.800  0.00  0.00     0.007 A 
ATOM      3  C   UNL d   1      32.918  19.470 -24.197  0.00  0.00     0.300 A 
ATOM      4  C   UNL d   1      32.932  19.943 -22.605  0.00  0.00     0.026 A 
ATOM      5  O   UNL d   1      33.075  20.270 -24.008  0.00  0.00    -0.273 OA
ATOM      6  C   UNL d   1      33.080  20.499 -23.207  0.00  0.00     0.103 A 
ATOM      7  O   UNL d   1      32.911  19.232 -24.990  0.00  0.00    -0.259 OA
ATOM      8  C   UNL d   1      32.942  20.189 -21.816  0.00  0.00     0.044 A 
ATOM      9  C   UNL d   1      33.234  21.282 -23.017  0.00  0.00     0.028 A 
ATOM     10  C   UNL d   1      33.094  20.965 -21.632  0.00  0.00     0.196 A 
ATOM     11  C   UNL d   1      32.633  18.609 -22.210  0.00  0.00     0.000 C 
ATOM     12  C   UNL d   1      33.240  21.516 -22.228  0.00  0.00     0.044 A 
ATOM     13  O   UNL d   1      33.101  21.204 -20.840  0.00  0.00    -0.287 OA
ENDROOT
BRANCH   1  14
ATOM     14  C   UNL d   1      32.617  18.128 -23.787  0.00  0.00     0.007 A 
ATOM     15  C   UNL d   1      31.841  17.850 -23.785  0.00  0.00     0.026 A 
ATOM     16  C   UNL d   1      31.680  17.070 -23.975  0.00  0.00     0.116 A 
ATOM     17  C   UNL d   1      32.298  16.559 -24.169  0.00  0.00     0.116 A 
ATOM     18  C   UNL d   1      33.082  16.834 -24.172  0.00  0.00     0.026 A 
ATOM     19  C   UNL d   1      33.231  17.626 -23.978  0.00  0.00     0.002 A 
BRANCH  16  20
ATOM     20  O   UNL d   1      30.909  16.784 -23.977  0.00  0.00    -0.326 OA
ATOM     21  C   UNL d   1      30.356  17.113 -24.492  0.00  0.00     0.181 C 
ENDBRANCH  16  20
BRANCH  17  22
ATOM     22  O   UNL d   1      32.153  15.771 -24.363  0.00  0.00    -0.326 OA
ATOM     23  C   UNL d   1      32.470  15.466 -25.068  0.00  0.00     0.181 C 
ENDBRANCH  17  22
ENDBRANCH   1  14
TORSDOF 3
ENDMDL
MODEL 2
REMARK VINA RESULT:      -1.4      1.751      5.027
REMARK  3 active torsions:
REMARK  status: ('A' for Active; 'I' for Inactive)
REMARK    1  A    between atoms: C_6  and  C_1 
REMARK    2  A    between atoms: O_19  and  C_9 
REMARK    3  A    between atoms: O_20  and  C_13 
ROOT
ATOM      1  C   UNL d   1      32.940  21.264 -22.050  0.00  0.00     0.064 A 
ATOM      2  C   UNL d   1      32.839  20.455 -21.893  0.00  0.00     0.007 A 
ATOM      3  C   UNL d   1      33.139  21.516 -22.818  0.00  0.00     0.300 A 
ATOM      4  C   UNL d   1      32.935  19.899 -22.498  0.00  0.00     0.026 A 
ATOM      5  O   UNL d   1      33.239  20.959 -23.435  0.00  0.00    -0.273 OA
ATOM      6  C   UNL d   1      33.134  20.150 -23.266  0.00  0.00     0.103 A 
ATOM      7  O   UNL d   1      33.241  22.322 -22.976  0.00  0.00    -0.259 OA
ATOM      8  C   UNL d   1      32.836  19.092 -22.350  0.00  0.00     0.044 A 
ATOM      9  C   UNL d   1      33.231  19.602 -23.869  0.00  0.00     0.028 A 
ATOM     10  C   UNL d   1      32.932  18.551 -22.948  0.00  0.00     0.196 A 
ATOM     11  C   UNL d   1      32.643  20.208 -21.140  0.00  0.00     0.000 C 
ATOM     12  C   UNL d   1      33.129  18.800 -23.709  0.00  0.00     0.044 A 
ATOM     13  O   UNL d   1      32.831  17.746 -22.791  0.00  0.00    -0.287 OA
ENDROOT
BRANCH   1  14
ATOM     14  C   UNL d   1      32.844  21.816 -21.447  0.00  0.00     0.007 A 
ATOM     15  C   UNL d   1      32.362  22.474 -21.566  0.00  0.00     0.026 A 
ATOM     16  C   UNL d   1      32.261  23.027 -20.971  0.00  0.00     0.116 A 
ATOM     17  C   UNL d   1      32.644  22.926 -20.247  0.00  0.00     0.116 A 
ATOM     18  C   UNL d   1      33.131  22.264 -20.122  0.00  0.00     0.026 A 
ATOM     19  C   UNL d   1      33.224  21.712 -20.732  0.00  0.00     0.002 A 
BRANCH  16  20
ATOM     20  O   UNL d   1      31.782  23.687 -21.082  0.00  0.00    -0.326 OA
ATOM     21  C   UNL d   1      31.210  23.677 -21.676  0.00  0.00     0.181 C 
ENDBRANCH  16  20
BRANCH  17  22
ATOM     22  O   UNL d   1      32.553  23.474 -19.638  0.00  0.00    -0.326 OA
ATOM     23  C   UNL d   1      32.416  23.196 -18.867  0.00  0.00     0.181 C 
ENDBRANCH  17  22
ENDBRANCH   1  14
TORSDOF 3
ENDMDL
MODEL 3
REMARK VINA RESULT:      -0.2      1.408      4.803
REMARK  3 active torsions:
REMARK  status: ('A' for Active; 'I' for Inactive)
REMARK    1  A    between atoms: C_6  and  C_1 
REMARK    2  A    between atoms: O_19  and  C_9 
REMARK    3  A    between atoms: O_20  and  C_13 
ROOT
ATOM      1  C   UNL d   1      32.888  20.185 -22.065  0.00  0.00     0.064 A 
ATOM      2  C   UNL d   1      32.773  19.958 -22.856  0.00  0.00     0.007 A 
ATOM      3  C   UNL d   1      33.121  19.618 -21.501  0.00  0.00     0.300 A 
ATOM      4  C   UNL d   1      32.890  19.172 -23.084  0.00  0.00     0.026 A 
ATOM      5  O   UNL d   1      33.241  18.820 -21.724  0.00  0.00    -0.273 OA
ATOM      6  C   UNL d   1      33.123  18.605 -22.520  0.00  0.00     0.103 A 
ATOM      7  O   UNL d   1      33.235  19.842 -20.712  0.00  0.00    -0.259 OA
ATOM      8  C   UNL d   1      32.778  18.938 -23.869  0.00  0.00     0.044 A 
ATOM      9  C   UNL d   1      33.240  17.824 -22.743  0.00  0.00     0.028 A 
ATOM     10  C   UNL d   1      32.895  18.165 -24.086  0.00  0.00     0.196 A 
ATOM     11  C   UNL d   1      32.545  20.513 -23.408  0.00  0.00     0.000 C 
ATOM     12  C   UNL d   1      33.126  17.603 -23.528  0.00  0.00     0.044 A 
ATOM     13  O   UNL d   1      32.781  17.940 -24.874  0.00  0.00    -0.287 OA
ENDROOT
BRANCH   1  14
ATOM     14  C   UNL d   1      32.771  20.968 -21.839  0.00  0.00     0.007 A 
ATOM     15  C   UNL d   1      33.063  21.577 -22.310  0.00  0.00     0.026 A 
ATOM     16  C   UNL d   1      32.951  22.358 -22.092  0.00  0.00     0.116 A 
ATOM     17  C   UNL d   1      32.543  22.537 -21.398  0.00  0.00     0.116 A 
ATOM     18  C   UNL d   1      32.247  21.925 -20.919  0.00  0.00     0.026 A 
ATOM     19  C   UNL d   1      32.367  21.140 -21.151  0.00  0.00     0.002 A 
BRANCH  16  20
ATOM     20  O   UNL d   1      33.239  22.974 -22.557  0.00  0.00    -0.326 OA
ATOM     21  C   UNL d   1      33.057  22.994 -23.361  0.00  0.00     0.181 C 
ENDBRANCH  16  20
BRANCH  17  22
ATOM     22  O   UNL d   1      32.422  23.318 -21.165  0.00  0.00    -0.326 OA
ATOM     23  C   UNL d   1      32.219  23.474 -20.374  0.00  0.00     0.181 C 
ENDBRANCH  17  22
ENDBRANCH   1  14
TORSDOF 3
ENDMDL
MODEL 4
REMARK VINA RESULT:       0.8      1.450      2.760
REMARK  3 active torsions:
REMARK  status: ('A' for Active; 'I' for Inactive)
REMARK    1  A    between atoms: C_6  and  C_1 
REMARK    2  A    between atoms: O_19  and  C_9 
REMARK    3  A    between atoms: O_20  and  C_13 
ROOT
ATOM      1  C   UNL d   1      33.169  21.023 -22.156  0.00  0.00     0.064 A 
ATOM      2  C   UNL d   1      33.148  21.109 -21.330  0.00  0.00     0.007 A 
ATOM      3  C   UNL d   1      33.183  21.699 -22.643  0.00  0.00     0.300 A 
ATOM      4  C   UNL d   1      33.140  21.862 -20.990  0.00  0.00     0.026 A 
ATOM      5  O   UNL d   1      33.175  22.465 -22.306  0.00  0.00    -0.273 OA
ATOM      6  C   UNL d   1      33.153  22.538 -21.477  0.00  0.00     0.103 A 
ATOM      7  O   UNL d   1      33.204  21.615 -23.465  0.00  0.00    -0.259 OA
ATOM      8  C   UNL d   1      33.118  21.956 -20.169  0.00  0.00     0.044 A 
ATOM      9  C   UNL d   1      33.145  23.288 -21.143  0.00  0.00     0.028 A 
ATOM     10  C   UNL d   1      33.110  22.699 -19.842  0.00  0.00     0.196 A 
ATOM     11  C   UNL d   1      33.135  20.446 -20.853  0.00  0.00     0.000 C 
ATOM     12  C   UNL d   1      33.124  23.368 -20.324  0.00  0.00     0.044 A 
ATOM     13  O   UNL d   1      33.089  22.783 -19.020  0.00  0.00    -0.287 OA
ENDROOT
BRANCH   1  14
ATOM     14  C   UNL d   1      33.178  20.272 -22.492  0.00  0.00     0.007 A 
ATOM     15  C   UNL d   1      33.205  20.190 -23.312  0.00  0.00     0.026 A 
ATOM     16  C   UNL d   1      33.213  19.446 -23.654  0.00  0.00     0.116 A 
ATOM     17  C   UNL d   1      33.194  18.774 -23.176  0.00  0.00     0.116 A 
ATOM     18  C   UNL d   1      33.167  18.851 -22.349  0.00  0.00     0.026 A 
ATOM     19  C   UNL d   1      33.159  19.609 -22.016  0.00  0.00     0.002 A 
BRANCH  16  20
ATOM     20  O   UNL d   1      33.240  19.355 -24.471  0.00  0.00    -0.326 OA
ATOM     21  C   UNL d   1      33.161  20.019 -24.955  0.00  0.00     0.181 C 
ENDBRANCH  16  20
BRANCH  17  22
ATOM     22  O   UNL d   1      33.202  18.018 -23.505  0.00  0.00    -0.326 OA
ATOM     23  C   UNL d   1      32.875  17.389 -23.071  0.00  0.00     0.181 C 
ENDBRANCH  17  22
ENDBRANCH   1  14
TORSDOF 3
ENDMDL
MODEL 5
REMARK VINA RESULT:       0.8      2.441      3.974
REMARK  3 active torsions:
REMARK  status: ('A' for Active; 'I' for Inactive)
REMARK    1  A    between atoms: C_6  and  C_1 
REMARK    2  A    between atoms: O_19  and  C_9 
REMARK    3  A    between atoms: O_20  and  C_13 
ROOT
ATOM      1  C   UNL d   1      32.656  22.051 -21.391  0.00  0.00     0.064 A 
ATOM      2  C   UNL d   1      32.872  21.879 -20.607  0.00  0.00     0.007 A 
ATOM      3  C   UNL d   1      32.293  22.779 -21.570  0.00  0.00     0.300 A 
ATOM      4  C   UNL d   1      32.727  22.427 -20.005  0.00  0.00     0.026 A 
ATOM      5  O   UNL d   1      32.143  23.339 -20.966  0.00  0.00    -0.273 OA
ATOM      6  C   UNL d   1      32.364  23.155 -20.184  0.00  0.00     0.103 A 
ATOM      7  O   UNL d   1      32.078  22.952 -22.349  0.00  0.00    -0.259 OA
ATOM      8  C   UNL d   1      32.939  22.263 -19.224  0.00  0.00     0.044 A 
ATOM      9  C   UNL d   1      32.219  23.702 -19.590  0.00  0.00     0.028 A 
ATOM     10  C   UNL d   1      32.794  22.806 -18.637  0.00  0.00     0.196 A 
ATOM     11  C   UNL d   1      33.227  21.166 -20.431  0.00  0.00     0.000 C 
ATOM     12  C   UNL d   1      32.435  23.527 -18.815  0.00  0.00     0.044 A 
ATOM     13  O   UNL d   1      33.009  22.633 -17.858  0.00  0.00    -0.287 OA
ENDROOT
BRANCH   1  14
ATOM     14  C   UNL d   1      32.801  21.504 -21.988  0.00  0.00     0.007 A 
ATOM     15  C   UNL d   1      32.689  20.700 -21.843  0.00  0.00     0.026 A 
ATOM     16  C   UNL d   1      32.831  20.150 -22.433  0.00  0.00     0.116 A 
ATOM     17  C   UNL d   1      33.087  20.400 -23.176  0.00  0.00     0.116 A 
ATOM     18  C   UNL d   1      33.202  21.210 -23.327  0.00  0.00     0.026 A 
ATOM     19  C   UNL d   1      33.054  21.756 -22.722  0.00  0.00     0.002 A 
BRANCH  16  20
ATOM     20  O   UNL d   1      32.722  19.346 -22.298  0.00  0.00    -0.326 OA
ATOM     21  C   UNL d   1      33.144  18.976 -21.693  0.00  0.00     0.181 C 
ENDBRANCH  16  20
BRANCH  17  22
ATOM     22  O   UNL d   1      33.234  19.859 -23.780  0.00  0.00    -0.326 OA
ATOM     23  C   UNL d   1      33.235  20.127 -24.567  0.00  0.00     0.181 C 
ENDBRANCH  17  22
ENDBRANCH   1  14
TORSDOF 3
ENDMDL
