MODEL 1
REMARK VINA RESULT:      16.4      0.000      0.000
REMARK  3 active torsions:
REMARK  status: ('A' for Active; 'I' for Inactive)
REMARK    1  A    between atoms: C_2  and  S_1 
REMARK    2  A    between atoms: N_3  and  S_1 
REMARK    3  A    between atoms: C_10  and  N_3 
ROOT
ATOM      1  C   UNL d   1      45.373 -14.881  44.573  0.00  0.00     0.107 A 
ATOM      2  C   UNL d   1      44.925 -14.413  44.061  0.00  0.00     0.040 A 
ATOM      3  C   UNL d   1      45.120 -13.637  43.903  0.00  0.00     0.123 A 
ATOM      4  C   UNL d   1      45.778 -13.311  44.260  0.00  0.00     0.123 A 
ATOM      5  O   UNL d   1      44.679 -13.203  43.408  0.00  0.00    -0.301 OA
ATOM      6  O   UNL d   1      46.000 -12.547  44.127  0.00  0.00    -0.301 OA
ATOM      7  C   UNL d   1      46.052 -14.543  44.943  0.00  0.00     0.015 A 
ATOM      8  C   UNL d   1      46.246 -13.758  44.779  0.00  0.00     0.028 A 
ATOM      9  C   UNL d   1      44.872 -12.417  43.245  0.00  0.00     0.149 A 
ATOM     10  C   UNL d   1      45.552 -12.080  43.614  0.00  0.00     0.149 A 
ENDROOT
BRANCH   1  11
ATOM     11  S   UNL d   1      45.138 -15.676  44.710  0.00  0.00     0.285 S 
ATOM     12  O   UNL d   1      44.895 -16.479  44.850  0.00  0.00    -0.198 OA
ATOM     13  O   UNL d   1      44.373 -15.435  44.954  0.00  0.00    -0.198 OA
BRANCH  11  14
ATOM     14  N   UNL d   1      45.874 -15.954  44.478  0.00  0.00    -0.157 NA
BRANCH  14  15
ATOM     15  C   UNL d   1      46.006 -16.724  44.334  0.00  0.00     0.113 A 
ATOM     16  C   UNL d   1      46.191 -17.238  44.952  0.00  0.00     0.119 A 
ATOM     17  N   UNL d   1      46.328 -18.036  44.803  0.00  0.00    -0.241 NA
ATOM     18  C   UNL d   1      46.281 -18.317  44.053  0.00  0.00     0.099 A 
ATOM     19  C   UNL d   1      46.092 -17.799  43.413  0.00  0.00     0.022 A 
ATOM     20  C   UNL d   1      45.960 -17.011  43.583  0.00  0.00     0.023 A 
ENDBRANCH  14  15
ENDBRANCH  11  14
ENDBRANCH   1  11
TORSDOF 3
ENDMDL
MODEL 2
REMARK VINA RESULT:      19.0      1.271      3.925
REMARK  3 active torsions:
REMARK  status: ('A' for Active; 'I' for Inactive)
REMARK    1  A    between atoms: C_2  and  S_1 
REMARK    2  A    between atoms: N_3  and  S_1 
REMARK    3  A    between atoms: C_10  and  N_3 
ROOT
ATOM      1  C   UNL d   1      45.524 -16.028  44.376  0.00  0.00     0.107 A 
ATOM      2  C   UNL d   1      45.457 -16.353  43.620  0.00  0.00     0.040 A 
ATOM      3  C   UNL d   1      45.821 -17.055  43.418  0.00  0.00     0.123 A 
ATOM      4  C   UNL d   1      46.265 -17.449  43.979  0.00  0.00     0.123 A 
ATOM      5  O   UNL d   1      45.746 -17.353  42.688  0.00  0.00    -0.301 OA
ATOM      6  O   UNL d   1      46.638 -18.144  43.813  0.00  0.00    -0.301 OA
ATOM      7  C   UNL d   1      45.983 -16.436  44.955  0.00  0.00     0.015 A 
ATOM      8  C   UNL d   1      46.349 -17.145  44.746  0.00  0.00     0.028 A 
ATOM      9  C   UNL d   1      46.112 -18.062  42.478  0.00  0.00     0.149 A 
ATOM     10  C   UNL d   1      46.572 -18.469  43.058  0.00  0.00     0.149 A 
ENDROOT
BRANCH   1  11
ATOM     11  S   UNL d   1      45.133 -15.303  44.544  0.00  0.00     0.285 S 
ATOM     12  O   UNL d   1      44.732 -14.573  44.716  0.00  0.00    -0.198 OA
ATOM     13  O   UNL d   1      44.432 -15.705  44.769  0.00  0.00    -0.198 OA
BRANCH  11  14
ATOM     14  N   UNL d   1      45.798 -14.873  44.332  0.00  0.00    -0.157 NA
BRANCH  14  15
ATOM     15  C   UNL d   1      45.799 -14.078  44.323  0.00  0.00     0.113 A 
ATOM     16  C   UNL d   1      45.480 -13.669  43.682  0.00  0.00     0.119 A 
ATOM     17  N   UNL d   1      45.481 -12.846  43.673  0.00  0.00    -0.241 NA
ATOM     18  C   UNL d   1      45.794 -12.438  44.289  0.00  0.00     0.099 A 
ATOM     19  C   UNL d   1      46.123 -12.848  44.949  0.00  0.00     0.022 A 
ATOM     20  C   UNL d   1      46.112 -13.665  44.939  0.00  0.00     0.023 A 
ENDBRANCH  14  15
ENDBRANCH  11  14
ENDBRANCH   1  11
TORSDOF 3
ENDMDL
MODEL 3
REMARK VINA RESULT:      19.1      1.915      4.606
REMARK  3 active torsions:
REMARK  status: ('A' for Active; 'I' for Inactive)
REMARK    1  A    between atoms: C_2  and  S_1 
REMARK    2  A    between atoms: N_3  and  S_1 
REMARK    3  A    between atoms: C_10  and  N_3 
ROOT
ATOM      1  C   UNL d   1      46.250 -17.712  43.576  0.00  0.00     0.107 A 
ATOM      2  C   UNL d   1      46.309 -18.530  43.665  0.00  0.00     0.040 A 
ATOM      3  C   UNL d   1      46.421 -19.026  43.027  0.00  0.00     0.123 A 
ATOM      4  C   UNL d   1      46.477 -18.706  42.277  0.00  0.00     0.123 A 
ATOM      5  O   UNL d   1      46.476 -19.810  43.130  0.00  0.00    -0.301 OA
ATOM      6  O   UNL d   1      46.588 -19.167  41.626  0.00  0.00    -0.301 OA
ATOM      7  C   UNL d   1      46.308 -17.381  42.802  0.00  0.00     0.015 A 
ATOM      8  C   UNL d   1      46.421 -17.887  42.160  0.00  0.00     0.028 A 
ATOM      9  C   UNL d   1      46.589 -20.316  42.488  0.00  0.00     0.149 A 
ATOM     10  C   UNL d   1      46.647 -19.986  41.714  0.00  0.00     0.149 A 
ENDROOT
BRANCH   1  11
ATOM     11  S   UNL d   1      46.135 -17.235  44.258  0.00  0.00     0.285 S 
ATOM     12  O   UNL d   1      46.020 -16.757  44.953  0.00  0.00    -0.198 OA
ATOM     13  O   UNL d   1      46.363 -17.862  44.766  0.00  0.00    -0.198 OA
BRANCH  11  14
ATOM     14  N   UNL d   1      45.906 -16.597  43.797  0.00  0.00    -0.157 NA
BRANCH  14  15
ATOM     15  C   UNL d   1      45.717 -15.893  44.117  0.00  0.00     0.113 A 
ATOM     16  C   UNL d   1      46.302 -15.331  44.265  0.00  0.00     0.119 A 
ATOM     17  N   UNL d   1      46.106 -14.604  44.596  0.00  0.00    -0.241 NA
ATOM     18  C   UNL d   1      45.342 -14.439  44.777  0.00  0.00     0.099 A 
ATOM     19  C   UNL d   1      44.735 -15.008  44.630  0.00  0.00     0.022 A 
ATOM     20  C   UNL d   1      44.951 -15.724  44.301  0.00  0.00     0.023 A 
ENDBRANCH  14  15
ENDBRANCH  11  14
ENDBRANCH   1  11
TORSDOF 3
ENDMDL
