MODEL 1
REMARK VINA RESULT:      67.5      0.000      0.000
REMARK  2 active torsions:
REMARK  status: ('A' for Active; 'I' for Inactive)
REMARK    1  A    between atoms: N_8  and  C_3 
REMARK    2  A    between atoms: C_7  and  N_9 
ROOT
ATOM      1  N   UNL d   1     -50.627  26.633  34.027  0.00  0.00    -0.286 N 
ATOM      2  N   UNL d   1     -49.374  27.622  34.514  0.00  0.00    -0.135 N 
ATOM      3  C   UNL d   1     -50.081  26.941  33.491  0.00  0.00     0.101 A 
ATOM      4  C   UNL d   1     -50.547  26.822  34.820  0.00  0.00     0.101 A 
ATOM      5  C   UNL d   1     -49.934  27.310  35.092  0.00  0.00     0.117 A 
ATOM      6  C   UNL d   1     -49.458  27.432  33.733  0.00  0.00     0.117 A 
ENDROOT
BRANCH   1   7
ATOM      7  C   UNL d   1     -51.225  26.161  33.794  0.00  0.00     0.152 A 
ATOM      8  C   UNL d   1     -51.114  25.357  33.645  0.00  0.00     0.059 A 
ATOM      9  C   UNL d   1     -51.736  24.866  33.402  0.00  0.00     0.115 A 
ATOM     10  C   UNL d   1     -50.444  24.906  33.694  0.00  0.00     0.011 A 
ATOM     11  S   UNL d   1     -51.441  24.118  33.306  0.00  0.00    -0.068 SA
ATOM     12  N   UNL d   1     -52.478  25.172  33.306  0.00  0.00    -0.217 NA
ATOM     13  C   UNL d   1     -50.665  24.142  33.481  0.00  0.00     0.031 A 
ATOM     14  C   UNL d   1     -50.138  23.487  33.455  0.00  0.00     0.007 C 
ATOM     15  C   UNL d   1     -52.642  25.991  33.447  0.00  0.00     0.201 A 
ATOM     16  N   UNL d   1     -51.995  26.501  33.699  0.00  0.00    -0.206 NA
ATOM     17  C   UNL d   1     -49.647  25.141  33.919  0.00  0.00     0.001 C 
ENDBRANCH   1   7
BRANCH   2  18
ATOM     18  C   UNL d   1     -48.735  28.132  34.804  0.00  0.00     0.735 A 
ATOM     19  N   UNL d   1     -48.141  28.283  34.313  0.00  0.00    -0.059 NA
ATOM     20  C   UNL d   1     -47.505  28.774  34.560  0.00  0.00     0.120 A 
ATOM     21  C   UNL d   1     -47.520  29.085  35.312  0.00  0.00     0.043 A 
ATOM     22  C   UNL d   1     -48.152  28.915  35.809  0.00  0.00     0.120 A 
ATOM     23  N   UNL d   1     -48.759  28.446  35.573  0.00  0.00    -0.059 NA
ENDBRANCH   2  18
TORSDOF 2
ENDMDL
MODEL 2
REMARK VINA RESULT:      67.9      1.993      4.894
REMARK  2 active torsions:
REMARK  status: ('A' for Active; 'I' for Inactive)
REMARK    1  A    between atoms: N_8  and  C_3 
REMARK    2  A    between atoms: C_7  and  N_9 
ROOT
ATOM      1  N   UNL d   1     -51.198  25.301  33.892  0.00  0.00    -0.286 N 
ATOM      2  N   UNL d   1     -52.608  24.475  34.231  0.00  0.00    -0.135 N 
ATOM      3  C   UNL d   1     -51.555  25.333  34.635  0.00  0.00     0.101 A 
ATOM      4  C   UNL d   1     -51.551  24.848  33.308  0.00  0.00     0.101 A 
ATOM      5  C   UNL d   1     -52.252  24.426  33.446  0.00  0.00     0.117 A 
ATOM      6  C   UNL d   1     -52.255  24.923  34.803  0.00  0.00     0.117 A 
ENDROOT
BRANCH   1   7
ATOM      7  C   UNL d   1     -50.525  25.696  33.731  0.00  0.00     0.152 A 
ATOM      8  C   UNL d   1     -50.518  26.508  33.592  0.00  0.00     0.059 A 
ATOM      9  C   UNL d   1     -49.818  26.919  33.424  0.00  0.00     0.115 A 
ATOM     10  C   UNL d   1     -51.128  27.041  33.587  0.00  0.00     0.011 A 
ATOM     11  S   UNL d   1     -50.005  27.699  33.317  0.00  0.00    -0.068 SA
ATOM     12  N   UNL d   1     -49.115  26.522  33.392  0.00  0.00    -0.217 NA
ATOM     13  C   UNL d   1     -50.792  27.773  33.415  0.00  0.00     0.031 A 
ATOM     14  C   UNL d   1     -51.227  28.491  33.354  0.00  0.00     0.007 C 
ATOM     15  C   UNL d   1     -49.071  25.687  33.528  0.00  0.00     0.201 A 
ATOM     16  N   UNL d   1     -49.798  25.260  33.703  0.00  0.00    -0.206 NA
ATOM     17  C   UNL d   1     -51.966  26.907  33.727  0.00  0.00     0.001 C 
ENDBRANCH   1   7
BRANCH   2  18
ATOM     18  C   UNL d   1     -53.341  24.031  34.370  0.00  0.00     0.735 A 
ATOM     19  N   UNL d   1     -53.434  23.700  35.077  0.00  0.00    -0.059 NA
ATOM     20  C   UNL d   1     -54.132  23.264  35.247  0.00  0.00     0.120 A 
ATOM     21  C   UNL d   1     -54.701  23.193  34.669  0.00  0.00     0.043 A 
ATOM     22  C   UNL d   1     -54.582  23.548  33.937  0.00  0.00     0.120 A 
ATOM     23  N   UNL d   1     -53.916  23.965  33.775  0.00  0.00    -0.059 NA
ENDBRANCH   2  18
TORSDOF 2
ENDMDL
