MODEL 1
REMARK VINA RESULT:      44.6      0.000      0.000
REMARK  9 active torsions:
REMARK  status: ('A' for Active; 'I' for Inactive)
REMARK    1  A    between atoms: C_8  and  N_1 
REMARK    2  A    between atoms: C_6  and  C_2 
REMARK    3  A    between atoms: O_12  and  C_11 
REMARK    4  A    between atoms: C_18  and  O_12 
REMARK    5  A    between atoms: C_14  and  C_18 
REMARK    6  A    between atoms: C_16  and  C_14 
REMARK    7  A    between atoms: N_15  and  C_16 
REMARK    8  A    between atoms: C_23  and  N_15 
REMARK    9  A    between atoms: C_24  and  N_15 
ROOT
ATOM      1  N   UNL d   1      44.056 -14.833  37.300  0.00  0.00    -0.306 N 
ATOM      2  C   UNL d   1      45.443 -14.660  37.318  0.00  0.00     0.057 A 
ATOM      3  C   UNL d   1      44.795 -15.105  36.928  0.00  0.00     0.067 A 
ATOM      4  C   UNL d   1      44.260 -14.240  37.896  0.00  0.00     0.064 A 
ATOM      5  C   UNL d   1      45.078 -14.138  37.906  0.00  0.00     0.023 A 
ATOM      6  C   UNL d   1      43.797 -13.812  38.398  0.00  0.00     0.020 A 
ATOM      7  C   UNL d   1      45.414 -13.610  38.419  0.00  0.00     0.026 A 
ATOM      8  C   UNL d   1      44.946 -13.182  38.923  0.00  0.00     0.100 A 
ATOM      9  C   UNL d   1      44.873 -15.663  36.335  0.00  0.00     0.019 C 
ATOM     10  C   UNL d   1      44.127 -13.284  38.912  0.00  0.00     0.026 A 
ENDROOT
BRANCH   8  11
ATOM     11  O   UNL d   1      45.276 -12.613  39.479  0.00  0.00    -0.302 OA
BRANCH  11  12
ATOM     12  C   UNL d   1      44.831 -12.286  40.067  0.00  0.00     0.166 C 
BRANCH  12  13
ATOM     13  C   UNL d   1      45.107 -12.254  40.884  0.00  0.00     0.238 C 
ATOM     14  O   UNL d   1      45.962 -12.118  41.025  0.00  0.00    -0.283 OA
BRANCH  13  15
ATOM     15  C   UNL d   1      44.603 -12.346  41.510  0.00  0.00     0.125 C 
BRANCH  15  16
ATOM     16  N   UNL d   1      44.870 -12.259  42.323  0.00  0.00    -0.300 N 
BRANCH  16  17
ATOM     17  C   UNL d   1      44.477 -12.123  43.067  0.00  0.00     0.080 C 
ATOM     18  C   UNL d   1      44.015 -12.781  43.205  0.00  0.00     0.021 C 
ENDBRANCH  16  17
BRANCH  16  19
ATOM     19  C   UNL d   1      45.656 -12.303  42.526  0.00  0.00     0.080 C 
ATOM     20  C   UNL d   1      45.916 -12.303  43.345  0.00  0.00     0.021 C 
ENDBRANCH  16  19
ENDBRANCH  15  16
ENDBRANCH  13  15
ENDBRANCH  12  13
ENDBRANCH  11  12
ENDBRANCH   8  11
BRANCH   2  21
ATOM     21  C   UNL d   1      46.225 -14.765  37.115  0.00  0.00     0.197 C 
ATOM     22  O   UNL d   1      46.646 -15.538  36.981  0.00  0.00    -0.286 OA
ATOM     23  C   UNL d   1      46.610 -14.048  37.043  0.00  0.00     0.045 C 
ENDBRANCH   2  21
BRANCH   1  24
ATOM     24  C   UNL d   1      43.333 -15.126  37.078  0.00  0.00     0.064 A 
ATOM     25  C   UNL d   1      42.567 -14.803  37.258  0.00  0.00     0.018 A 
ATOM     26  C   UNL d   1      41.848 -15.168  36.989  0.00  0.00     0.002 A 
ATOM     27  C   UNL d   1      41.888 -15.857  36.539  0.00  0.00     0.000 A 
ATOM     28  C   UNL d   1      42.614 -16.217  36.333  0.00  0.00     0.002 A 
ATOM     29  C   UNL d   1      43.337 -15.855  36.601  0.00  0.00     0.018 A 
ENDBRANCH   1  24
TORSDOF 9
ENDMDL
MODEL 2
REMARK VINA RESULT:      44.8      3.328      3.890
REMARK  9 active torsions:
REMARK  status: ('A' for Active; 'I' for Inactive)
REMARK    1  A    between atoms: C_8  and  N_1 
REMARK    2  A    between atoms: C_6  and  C_2 
REMARK    3  A    between atoms: O_12  and  C_11 
REMARK    4  A    between atoms: C_18  and  O_12 
REMARK    5  A    between atoms: C_14  and  C_18 
REMARK    6  A    between atoms: C_16  and  C_14 
REMARK    7  A    between atoms: N_15  and  C_16 
REMARK    8  A    between atoms: C_23  and  N_15 
REMARK    9  A    between atoms: C_24  and  N_15 
ROOT
ATOM      1  N   UNL d   1      43.848 -15.606  37.467  0.00  0.00    -0.306 N 
ATOM      2  C   UNL d   1      45.202 -15.258  37.481  0.00  0.00     0.057 A 
ATOM      3  C   UNL d   1      44.421 -15.029  37.154  0.00  0.00     0.067 A 
ATOM      4  C   UNL d   1      44.278 -16.164  37.968  0.00  0.00     0.064 A 
ATOM      5  C   UNL d   1      45.077 -15.958  37.977  0.00  0.00     0.023 A 
ATOM      6  C   UNL d   1      44.025 -16.801  38.391  0.00  0.00     0.020 A 
ATOM      7  C   UNL d   1      45.603 -16.396  38.408  0.00  0.00     0.026 A 
ATOM      8  C   UNL d   1      45.345 -17.037  38.832  0.00  0.00     0.100 A 
ATOM      9  C   UNL d   1      44.265 -14.400  36.655  0.00  0.00     0.019 C 
ATOM     10  C   UNL d   1      44.546 -17.242  38.824  0.00  0.00     0.026 A 
ENDROOT
BRANCH   8  11
ATOM     11  O   UNL d   1      45.883 -17.520  39.300  0.00  0.00    -0.302 OA
BRANCH  11  12
ATOM     12  C   UNL d   1      45.773 -17.633  40.092  0.00  0.00     0.166 C 
BRANCH  12  13
ATOM     13  C   UNL d   1      46.049 -18.346  40.492  0.00  0.00     0.238 C 
ATOM     14  O   UNL d   1      46.645 -18.843  40.085  0.00  0.00    -0.283 OA
BRANCH  13  15
ATOM     15  C   UNL d   1      45.773 -18.561  41.222  0.00  0.00     0.125 C 
BRANCH  15  16
ATOM     16  N   UNL d   1      46.179 -18.335  41.944  0.00  0.00    -0.300 N 
BRANCH  16  17
ATOM     17  C   UNL d   1      46.290 -17.600  42.360  0.00  0.00     0.080 C 
ATOM     18  C   UNL d   1      45.933 -17.694  43.089  0.00  0.00     0.021 C 
ENDBRANCH  16  17
BRANCH  16  19
ATOM     19  C   UNL d   1      46.576 -18.877  42.403  0.00  0.00     0.080 C 
ATOM     20  C   UNL d   1      46.346 -19.044  43.214  0.00  0.00     0.021 C 
ENDBRANCH  16  19
ENDBRANCH  15  16
ENDBRANCH  13  15
ENDBRANCH  12  13
ENDBRANCH  11  12
ENDBRANCH   8  11
BRANCH   2  21
ATOM     21  C   UNL d   1      45.882 -14.844  37.311  0.00  0.00     0.197 C 
ATOM     22  O   UNL d   1      46.582 -14.713  37.846  0.00  0.00    -0.286 OA
ATOM     23  C   UNL d   1      45.859 -14.541  36.552  0.00  0.00     0.045 C 
ENDBRANCH   2  21
BRANCH   1  24
ATOM     24  C   UNL d   1      43.059 -15.569  37.280  0.00  0.00     0.064 A 
ATOM     25  C   UNL d   1      42.709 -15.626  36.507  0.00  0.00     0.018 A 
ATOM     26  C   UNL d   1      41.868 -15.578  36.388  0.00  0.00     0.002 A 
ATOM     27  C   UNL d   1      41.373 -15.473  37.038  0.00  0.00     0.000 A 
ATOM     28  C   UNL d   1      41.665 -15.410  37.819  0.00  0.00     0.002 A 
ATOM     29  C   UNL d   1      42.506 -15.458  37.944  0.00  0.00     0.018 A 
ENDBRANCH   1  24
TORSDOF 9
ENDMDL
MODEL 3
REMARK VINA RESULT:      44.9      3.715      4.800
REMARK  9 active torsions:
REMARK  status: ('A' for Active; 'I' for Inactive)
REMARK    1  A    between atoms: C_8  and  N_1 
REMARK    2  A    between atoms: C_6  and  C_2 
REMARK    3  A    between atoms: O_12  and  C_11 
REMARK    4  A    between atoms: C_18  and  O_12 
REMARK    5  A    between atoms: C_14  and  C_18 
REMARK    6  A    between atoms: C_16  and  C_14 
REMARK    7  A    between atoms: N_15  and  C_16 
REMARK    8  A    between atoms: C_23  and  N_15 
REMARK    9  A    between atoms: C_24  and  N_15 
ROOT
ATOM      1  N   UNL d   1      45.194 -15.380  37.311  0.00  0.00    -0.306 N 
ATOM      2  C   UNL d   1      44.139 -16.297  37.301  0.00  0.00     0.057 A 
ATOM      3  C   UNL d   1      44.431 -15.557  36.930  0.00  0.00     0.067 A 
ATOM      4  C   UNL d   1      45.352 -15.999  37.894  0.00  0.00     0.064 A 
ATOM      5  C   UNL d   1      44.729 -16.540  37.888  0.00  0.00     0.023 A 
ATOM      6  C   UNL d   1      45.971 -16.108  38.398  0.00  0.00     0.020 A 
ATOM      7  C   UNL d   1      44.741 -17.177  38.386  0.00  0.00     0.026 A 
ATOM      8  C   UNL d   1      45.365 -17.284  38.892  0.00  0.00     0.100 A 
ATOM      9  C   UNL d   1      44.060 -15.123  36.345  0.00  0.00     0.019 C 
ATOM     10  C   UNL d   1      45.988 -16.742  38.898  0.00  0.00     0.026 A 
ENDROOT
BRANCH   8  11
ATOM     11  O   UNL d   1      45.405 -17.952  39.433  0.00  0.00    -0.302 OA
BRANCH  11  12
ATOM     12  C   UNL d   1      46.055 -18.093  39.889  0.00  0.00     0.166 C 
BRANCH  12  13
ATOM     13  C   UNL d   1      45.999 -18.496  40.650  0.00  0.00     0.238 C 
ATOM     14  O   UNL d   1      45.211 -18.781  40.908  0.00  0.00    -0.283 OA
BRANCH  13  15
ATOM     15  C   UNL d   1      46.647 -18.613  41.121  0.00  0.00     0.125 C 
BRANCH  15  16
ATOM     16  N   UNL d   1      46.572 -18.822  41.951  0.00  0.00    -0.300 N 
BRANCH  16  17
ATOM     17  C   UNL d   1      46.427 -18.381  42.665  0.00  0.00     0.080 C 
ATOM     18  C   UNL d   1      46.226 -18.930  43.236  0.00  0.00     0.021 C 
ENDBRANCH  16  17
BRANCH  16  19
ATOM     19  C   UNL d   1      46.639 -19.590  42.210  0.00  0.00     0.080 C 
ATOM     20  C   UNL d   1      46.523 -20.260  41.684  0.00  0.00     0.021 C 
ENDBRANCH  16  19
ENDBRANCH  15  16
ENDBRANCH  13  15
ENDBRANCH  12  13
ENDBRANCH  11  12
ENDBRANCH   8  11
BRANCH   2  21
ATOM     21  C   UNL d   1      43.433 -16.640  37.085  0.00  0.00     0.197 C 
ATOM     22  O   UNL d   1      42.615 -16.311  37.208  0.00  0.00    -0.286 OA
ATOM     23  C   UNL d   1      43.555 -17.362  36.723  0.00  0.00     0.045 C 
ENDBRANCH   2  21
BRANCH   1  24
ATOM     24  C   UNL d   1      45.633 -14.728  37.107  0.00  0.00     0.064 A 
ATOM     25  C   UNL d   1      46.219 -14.672  36.494  0.00  0.00     0.018 A 
ATOM     26  C   UNL d   1      46.641 -13.950  36.337  0.00  0.00     0.002 A 
ATOM     27  C   UNL d   1      46.480 -13.281  36.790  0.00  0.00     0.000 A 
ATOM     28  C   UNL d   1      45.914 -13.281  37.405  0.00  0.00     0.002 A 
ATOM     29  C   UNL d   1      45.489 -14.001  37.566  0.00  0.00     0.018 A 
ENDBRANCH   1  24
TORSDOF 9
ENDMDL
