MODEL 1
REMARK VINA RESULT:      -4.1      0.000      0.000
REMARK  6 active torsions:
REMARK  status: ('A' for Active; 'I' for Inactive)
REMARK    1  A    between atoms: S_9  and  C_4 
REMARK    2  A    between atoms: C_15  and  S_9 
REMARK    3  A    between atoms: C_11  and  C_15 
REMARK    4  A    between atoms: O_14  and  C_11 
REMARK    5  A    between atoms: C_17  and  O_14 
REMARK    6  A    between atoms: C_18  and  C_17 
ROOT
ATOM      1  C   UNL d   1      56.605   0.631  33.453  0.00  0.00     0.104 A 
ATOM      2  N   UNL d   1      57.825   0.644  32.714  0.00  0.00    -0.251 N 
ATOM      3  C   UNL d   1      57.418   0.652  33.442  0.00  0.00     0.274 A 
ATOM      4  C   UNL d   1      57.398   0.614  32.009  0.00  0.00     0.182 A 
ATOM      5  C   UNL d   1      56.178   0.601  32.748  0.00  0.00     0.095 A 
ATOM      6  N   UNL d   1      56.565   0.592  32.031  0.00  0.00    -0.222 NA
ATOM      7  S   UNL d   1      56.066   0.632  34.074  0.00  0.00    -0.081 SA
ATOM      8  C   UNL d   1      55.375   0.584  32.934  0.00  0.00     0.026 A 
ATOM      9  O   UNL d   1      57.845   0.682  34.147  0.00  0.00    -0.266 OA
ATOM     10  C   UNL d   1      55.305   0.604  33.748  0.00  0.00     0.031 A 
ATOM     11  C   UNL d   1      58.655   0.666  32.698  0.00  0.00     0.104 C 
ATOM     12  C   UNL d   1      54.592   0.595  34.163  0.00  0.00     0.007 C 
ENDROOT
BRANCH   4  13
ATOM     13  S   UNL d   1      57.794   0.605  31.276  0.00  0.00    -0.044 SA
BRANCH  13  14
ATOM     14  C   UNL d   1      57.500   0.142  30.659  0.00  0.00     0.107 C 
BRANCH  14  15
ATOM     15  C   UNL d   1      57.948   0.036  29.973  0.00  0.00     0.307 C 
ATOM     16  O   UNL d   1      57.963   0.626  29.395  0.00  0.00    -0.258 OA
BRANCH  15  17
ATOM     17  O   UNL d   1      58.379  -0.658  29.864  0.00  0.00    -0.271 OA
BRANCH  17  18
ATOM     18  C   UNL d   1      58.795  -0.779  29.162  0.00  0.00     0.126 C 
BRANCH  18  19
ATOM     19  C   UNL d   1      59.179  -1.493  29.031  0.00  0.00     0.025 A 
ATOM     20  C   UNL d   1      59.957  -1.499  28.756  0.00  0.00     0.002 A 
ATOM     21  C   UNL d   1      60.342  -2.216  28.623  0.00  0.00     0.000 A 
ATOM     22  C   UNL d   1      59.949  -2.928  28.766  0.00  0.00     0.000 A 
ATOM     23  C   UNL d   1      59.178  -2.918  29.039  0.00  0.00     0.000 A 
ATOM     24  C   UNL d   1      58.793  -2.200  29.171  0.00  0.00     0.002 A 
ENDBRANCH  18  19
ENDBRANCH  17  18
ENDBRANCH  15  17
ENDBRANCH  14  15
ENDBRANCH  13  14
ENDBRANCH   4  13
TORSDOF 6
ENDMDL
MODEL 2
REMARK VINA RESULT:      -3.3      0.833      1.236
REMARK  6 active torsions:
REMARK  status: ('A' for Active; 'I' for Inactive)
REMARK    1  A    between atoms: S_9  and  C_4 
REMARK    2  A    between atoms: C_15  and  S_9 
REMARK    3  A    between atoms: C_11  and  C_15 
REMARK    4  A    between atoms: O_14  and  C_11 
REMARK    5  A    between atoms: C_17  and  O_14 
REMARK    6  A    between atoms: C_18  and  C_17 
ROOT
ATOM      1  C   UNL d   1      55.929   0.679  34.129  0.00  0.00     0.104 A 
ATOM      2  N   UNL d   1      57.188   0.679  33.458  0.00  0.00    -0.251 N 
ATOM      3  C   UNL d   1      56.743   0.678  34.162  0.00  0.00     0.274 A 
ATOM      4  C   UNL d   1      56.799   0.681  32.730  0.00  0.00     0.182 A 
ATOM      5  C   UNL d   1      55.541   0.681  33.401  0.00  0.00     0.095 A 
ATOM      6  N   UNL d   1      55.966   0.682  32.706  0.00  0.00    -0.222 NA
ATOM      7  S   UNL d   1      55.357   0.678  34.720  0.00  0.00    -0.081 SA
ATOM      8  C   UNL d   1      54.729   0.682  33.543  0.00  0.00     0.026 A 
ATOM      9  O   UNL d   1      57.131   0.676  34.890  0.00  0.00    -0.266 OA
ATOM     10  C   UNL d   1      54.615   0.680  34.352  0.00  0.00     0.031 A 
ATOM     11  C   UNL d   1      58.018   0.677  33.488  0.00  0.00     0.104 C 
ATOM     12  C   UNL d   1      53.880   0.681  34.728  0.00  0.00     0.007 C 
ENDROOT
BRANCH   4  13
ATOM     13  S   UNL d   1      57.235   0.682  32.019  0.00  0.00    -0.044 SA
BRANCH  13  14
ATOM     14  C   UNL d   1      57.293  -0.012  31.575  0.00  0.00     0.107 C 
BRANCH  14  15
ATOM     15  C   UNL d   1      57.486   0.026  30.774  0.00  0.00     0.307 C 
ATOM     16  O   UNL d   1      57.000   0.442  30.251  0.00  0.00    -0.258 OA
BRANCH  15  17
ATOM     17  O   UNL d   1      58.164  -0.352  30.495  0.00  0.00    -0.271 OA
BRANCH  17  18
ATOM     18  C   UNL d   1      58.437  -0.198  29.731  0.00  0.00     0.126 C 
BRANCH  18  19
ATOM     19  C   UNL d   1      59.148  -0.519  29.477  0.00  0.00     0.025 A 
ATOM     20  C   UNL d   1      59.167  -1.284  29.166  0.00  0.00     0.002 A 
ATOM     21  C   UNL d   1      59.882  -1.607  28.911  0.00  0.00     0.000 A 
ATOM     22  C   UNL d   1      60.578  -1.166  28.967  0.00  0.00     0.000 A 
ATOM     23  C   UNL d   1      60.554  -0.409  29.275  0.00  0.00     0.000 A 
ATOM     24  C   UNL d   1      59.839  -0.086  29.530  0.00  0.00     0.002 A 
ENDBRANCH  18  19
ENDBRANCH  17  18
ENDBRANCH  15  17
ENDBRANCH  14  15
ENDBRANCH  13  14
ENDBRANCH   4  13
TORSDOF 6
ENDMDL
MODEL 3
REMARK VINA RESULT:      -2.0      1.278      1.624
REMARK  6 active torsions:
REMARK  status: ('A' for Active; 'I' for Inactive)
REMARK    1  A    between atoms: S_9  and  C_4 
REMARK    2  A    between atoms: C_15  and  S_9 
REMARK    3  A    between atoms: C_11  and  C_15 
REMARK    4  A    between atoms: O_14  and  C_11 
REMARK    5  A    between atoms: C_17  and  O_14 
REMARK    6  A    between atoms: C_18  and  C_17 
ROOT
ATOM      1  C   UNL d   1      55.879  -0.582  33.334  0.00  0.00     0.104 A 
ATOM      2  N   UNL d   1      56.398  -1.024  32.081  0.00  0.00    -0.251 N 
ATOM      3  C   UNL d   1      56.038  -1.188  32.814  0.00  0.00     0.274 A 
ATOM      4  C   UNL d   1      56.591  -0.245  31.887  0.00  0.00     0.182 A 
ATOM      5  C   UNL d   1      56.071   0.196  33.139  0.00  0.00     0.095 A 
ATOM      6  N   UNL d   1      56.424   0.368  32.426  0.00  0.00    -0.222 NA
ATOM      7  S   UNL d   1      55.534  -0.578  34.081  0.00  0.00    -0.081 SA
ATOM      8  C   UNL d   1      55.846   0.681  33.767  0.00  0.00     0.026 A 
ATOM      9  O   UNL d   1      55.845  -1.966  33.009  0.00  0.00    -0.266 OA
ATOM     10  C   UNL d   1      55.516   0.208  34.345  0.00  0.00     0.031 A 
ATOM     11  C   UNL d   1      56.563  -1.640  31.548  0.00  0.00     0.104 C 
ATOM     12  C   UNL d   1      55.219   0.476  35.067  0.00  0.00     0.007 C 
ENDROOT
BRANCH   4  13
ATOM     13  S   UNL d   1      56.952  -0.070  31.156  0.00  0.00    -0.044 SA
BRANCH  13  14
ATOM     14  C   UNL d   1      57.773  -0.003  31.113  0.00  0.00     0.107 C 
BRANCH  14  15
ATOM     15  C   UNL d   1      58.134   0.195  30.397  0.00  0.00     0.307 C 
ATOM     16  O   UNL d   1      57.741   0.682  29.858  0.00  0.00    -0.258 OA
BRANCH  15  17
ATOM     17  O   UNL d   1      58.887  -0.092  30.221  0.00  0.00    -0.271 OA
BRANCH  17  18
ATOM     18  C   UNL d   1      59.080  -0.293  29.444  0.00  0.00     0.126 C 
BRANCH  18  19
ATOM     19  C   UNL d   1      59.726  -0.777  29.294  0.00  0.00     0.025 A 
ATOM     20  C   UNL d   1      59.615  -1.585  29.170  0.00  0.00     0.002 A 
ATOM     21  C   UNL d   1      60.264  -2.072  29.019  0.00  0.00     0.000 A 
ATOM     22  C   UNL d   1      61.024  -1.750  28.993  0.00  0.00     0.000 A 
ATOM     23  C   UNL d   1      61.129  -0.949  29.117  0.00  0.00     0.000 A 
ATOM     24  C   UNL d   1      60.480  -0.462  29.268  0.00  0.00     0.002 A 
ENDBRANCH  18  19
ENDBRANCH  17  18
ENDBRANCH  15  17
ENDBRANCH  14  15
ENDBRANCH  13  14
ENDBRANCH   4  13
TORSDOF 6
ENDMDL
