MODEL 1
REMARK VINA RESULT:      44.5      0.000      0.000
REMARK  8 active torsions:
REMARK  status: ('A' for Active; 'I' for Inactive)
REMARK    1  A    between atoms: N_2  and  C_1 
REMARK    2  A    between atoms: N_3  and  C_1 
REMARK    3  A    between atoms: C_6  and  C_1 
REMARK       I    between atoms: C_4  and  N_2 
REMARK       I    between atoms: C_5  and  N_3 
REMARK    4  A    between atoms: O_11  and  C_4 
REMARK    5  A    between atoms: O_12  and  C_5 
REMARK    6  A    between atoms: C_10  and  C_6 
REMARK    7  A    between atoms: C_15  and  O_11 
REMARK    8  A    between atoms: C_16  and  O_12 
ROOT
ATOM      1  C   UNL d   1     -55.449-100.364 -43.366  0.00  0.00     0.211 C 
ENDROOT
BRANCH   1   2
ATOM      2  N   UNL d   1     -55.279-100.952 -43.904  0.00  0.00    -0.163 NA
ATOM      3  C   UNL d   1     -54.917-100.766 -44.617  0.00  0.00     0.394 C 
ATOM      4  O   UNL d   1     -54.716 -99.988 -44.810  0.00  0.00    -0.236 OA
BRANCH   3   5
ATOM      5  O   UNL d   1     -54.744-101.362 -45.161  0.00  0.00    -0.256 OA
BRANCH   5   6
ATOM      6  C   UNL d   1     -55.175-102.078 -45.149  0.00  0.00     0.128 C 
ATOM      7  C   UNL d   1     -54.798-102.790 -44.976  0.00  0.00     0.029 C 
ENDBRANCH   5   6
ENDBRANCH   3   5
ENDBRANCH   1   2
BRANCH   1   8
ATOM      8  N   UNL d   1     -55.499-100.533 -42.542  0.00  0.00    -0.163 NA
ATOM      9  C   UNL d   1     -55.131-101.194 -42.220  0.00  0.00     0.394 C 
ATOM     10  O   UNL d   1     -54.713-101.687 -42.720  0.00  0.00    -0.236 OA
BRANCH   9  11
ATOM     11  O   UNL d   1     -55.182-101.360 -41.399  0.00  0.00    -0.256 OA
BRANCH  11  12
ATOM     12  C   UNL d   1     -55.343-101.992 -41.244  0.00  0.00     0.128 C 
ATOM     13  C   UNL d   1     -55.013-102.304 -40.526  0.00  0.00     0.029 C 
ENDBRANCH  11  12
ENDBRANCH   9  11
ENDBRANCH   1   8
BRANCH   1  14
ATOM     14  C   UNL d   1     -55.576 -99.581 -43.628  0.00  0.00     0.231 C 
ATOM     15  O   UNL d   1     -54.936 -99.068 -43.725  0.00  0.00    -0.283 OA
BRANCH  14  16
ATOM     16  C   UNL d   1     -56.357 -99.304 -43.796  0.00  0.00     0.042 A 
ATOM     17  C   UNL d   1     -56.605 -99.233 -44.575  0.00  0.00     0.003 A 
ATOM     18  C   UNL d   1     -57.360 -98.966 -44.755  0.00  0.00     0.000 A 
ATOM     19  C   UNL d   1     -57.889 -98.760 -44.130  0.00  0.00     0.000 A 
ATOM     20  C   UNL d   1     -57.632 -98.834 -43.361  0.00  0.00     0.000 A 
ATOM     21  C   UNL d   1     -56.871 -99.104 -43.188  0.00  0.00     0.003 A 
ENDBRANCH  14  16
ENDBRANCH   1  14
TORSDOF 8
ENDMDL
MODEL 2
REMARK VINA RESULT:      44.5      0.730      2.367
REMARK  8 active torsions:
REMARK  status: ('A' for Active; 'I' for Inactive)
REMARK    1  A    between atoms: N_2  and  C_1 
REMARK    2  A    between atoms: N_3  and  C_1 
REMARK    3  A    between atoms: C_6  and  C_1 
REMARK       I    between atoms: C_4  and  N_2 
REMARK       I    between atoms: C_5  and  N_3 
REMARK    4  A    between atoms: O_11  and  C_4 
REMARK    5  A    between atoms: O_12  and  C_5 
REMARK    6  A    between atoms: C_10  and  C_6 
REMARK    7  A    between atoms: C_15  and  O_11 
REMARK    8  A    between atoms: C_16  and  O_12 
ROOT
ATOM      1  C   UNL d   1     -55.277-100.206 -44.014  0.00  0.00     0.211 C 
ENDROOT
BRANCH   1   2
ATOM      2  N   UNL d   1     -54.931-100.301 -43.282  0.00  0.00    -0.163 NA
ATOM      3  C   UNL d   1     -55.119-100.953 -42.819  0.00  0.00     0.394 C 
ATOM      4  O   UNL d   1     -55.657-101.526 -43.077  0.00  0.00    -0.236 OA
BRANCH   3   5
ATOM      5  O   UNL d   1     -54.769-101.050 -42.078  0.00  0.00    -0.256 OA
BRANCH   5   6
ATOM      6  C   UNL d   1     -55.075-101.609 -41.540  0.00  0.00     0.128 C 
ATOM      7  C   UNL d   1     -54.793-102.383 -41.536  0.00  0.00     0.029 C 
ENDBRANCH   5   6
ENDBRANCH   3   5
ENDBRANCH   1   2
BRANCH   1   8
ATOM      8  N   UNL d   1     -55.414-100.868 -44.517  0.00  0.00    -0.163 NA
ATOM      9  C   UNL d   1     -55.130-101.616 -44.323  0.00  0.00     0.394 C 
ATOM     10  O   UNL d   1     -54.711-101.703 -43.626  0.00  0.00    -0.236 OA
BRANCH   9  11
ATOM     11  O   UNL d   1     -55.267-102.274 -44.825  0.00  0.00    -0.256 OA
BRANCH  11  12
ATOM     12  C   UNL d   1     -55.103-102.183 -45.468  0.00  0.00     0.128 C 
ATOM     13  C   UNL d   1     -55.104-102.873 -45.963  0.00  0.00     0.029 C 
ENDBRANCH  11  12
ENDBRANCH   9  11
ENDBRANCH   1   8
BRANCH   1  14
ATOM     14  C   UNL d   1     -55.502 -99.446 -44.275  0.00  0.00     0.231 C 
ATOM     15  O   UNL d   1     -54.928 -98.910 -44.533  0.00  0.00    -0.283 OA
BRANCH  14  16
ATOM     16  C   UNL d   1     -56.315 -99.213 -44.280  0.00  0.00     0.042 A 
ATOM     17  C   UNL d   1     -56.729 -99.194 -44.989  0.00  0.00     0.003 A 
ATOM     18  C   UNL d   1     -57.518 -98.971 -45.010  0.00  0.00     0.000 A 
ATOM     19  C   UNL d   1     -57.910 -98.758 -44.294  0.00  0.00     0.000 A 
ATOM     20  C   UNL d   1     -57.490 -98.781 -43.597  0.00  0.00     0.000 A 
ATOM     21  C   UNL d   1     -56.697 -99.007 -43.583  0.00  0.00     0.003 A 
ENDBRANCH  14  16
ENDBRANCH   1  14
TORSDOF 8
ENDMDL
MODEL 3
REMARK VINA RESULT:      45.0      3.990      6.316
REMARK  8 active torsions:
REMARK  status: ('A' for Active; 'I' for Inactive)
REMARK    1  A    between atoms: N_2  and  C_1 
REMARK    2  A    between atoms: N_3  and  C_1 
REMARK    3  A    between atoms: C_6  and  C_1 
REMARK       I    between atoms: C_4  and  N_2 
REMARK       I    between atoms: C_5  and  N_3 
REMARK    4  A    between atoms: O_11  and  C_4 
REMARK    5  A    between atoms: O_12  and  C_5 
REMARK    6  A    between atoms: C_10  and  C_6 
REMARK    7  A    between atoms: C_15  and  O_11 
REMARK    8  A    between atoms: C_16  and  O_12 
ROOT
ATOM      1  C   UNL d   1     -54.865-101.561 -38.287  0.00  0.00     0.211 C 
ENDROOT
BRANCH   1   2
ATOM      2  N   UNL d   1     -54.808-100.753 -38.195  0.00  0.00    -0.163 NA
ATOM      3  C   UNL d   1     -55.087-100.251 -38.781  0.00  0.00     0.394 C 
ATOM      4  O   UNL d   1     -55.430-100.545 -39.474  0.00  0.00    -0.236 OA
BRANCH   3   5
ATOM      5  O   UNL d   1     -55.030 -99.433 -38.688  0.00  0.00    -0.256 OA
BRANCH   5   6
ATOM      6  C   UNL d   1     -55.130 -98.929 -39.346  0.00  0.00     0.128 C 
ATOM      7  C   UNL d   1     -54.721 -99.070 -40.047  0.00  0.00     0.029 C 
ENDBRANCH   5   6
ENDBRANCH   3   5
ENDBRANCH   1   2
BRANCH   1   8
ATOM      8  N   UNL d   1     -54.935-101.905 -39.053  0.00  0.00    -0.163 NA
ATOM      9  C   UNL d   1     -55.513-102.467 -39.217  0.00  0.00     0.394 C 
ATOM     10  O   UNL d   1     -56.021-102.685 -38.615  0.00  0.00    -0.236 OA
BRANCH   9  11
ATOM     11  O   UNL d   1     -55.581-102.808 -39.980  0.00  0.00    -0.256 OA
BRANCH  11  12
ATOM     12  C   UNL d   1     -55.709-102.376 -40.477  0.00  0.00     0.128 C 
ATOM     13  C   UNL d   1     -55.251-102.466 -41.187  0.00  0.00     0.029 C 
ENDBRANCH  11  12
ENDBRANCH   9  11
ENDBRANCH   1   8
BRANCH   1  14
ATOM     14  C   UNL d   1     -54.854-102.061 -37.618  0.00  0.00     0.231 C 
ATOM     15  O   UNL d   1     -54.736-102.874 -37.711  0.00  0.00    -0.283 OA
BRANCH  14  16
ATOM     16  C   UNL d   1     -54.962-101.745 -36.841  0.00  0.00     0.042 A 
ATOM     17  C   UNL d   1     -55.244-102.229 -36.241  0.00  0.00     0.003 A 
ATOM     18  C   UNL d   1     -55.355-101.937 -35.482  0.00  0.00     0.000 A 
ATOM     19  C   UNL d   1     -55.175-101.129 -35.316  0.00  0.00     0.000 A 
ATOM     20  C   UNL d   1     -54.896-100.659 -35.919  0.00  0.00     0.000 A 
ATOM     21  C   UNL d   1     -54.787-100.959 -36.680  0.00  0.00     0.003 A 
ENDBRANCH  14  16
ENDBRANCH   1  14
TORSDOF 8
ENDMDL
