MODEL 1
REMARK VINA RESULT:      81.3      0.000      0.000
REMARK  5 active torsions:
REMARK  status: ('A' for Active; 'I' for Inactive)
REMARK    1  A    between atoms: C_7  and  N_2 
REMARK    2  A    between atoms: C_14  and  C_7 
REMARK    3  A    between atoms: O_10  and  C_9 
REMARK    4  A    between atoms: C_11  and  O_10 
REMARK    5  A    between atoms: C_13  and  C_11 
ROOT
ATOM      1  C   UNL d   1     -55.963-100.661 -44.404  0.00  0.00     0.265 A 
ATOM      2  N   UNL d   1     -55.742 -99.975 -44.002  0.00  0.00    -0.272 N 
ATOM      3  C   UNL d   1     -55.795-101.397 -44.081  0.00  0.00     0.059 A 
ATOM      4  C   UNL d   1     -55.406-101.452 -43.356  0.00  0.00     0.029 A 
ATOM      5  C   UNL d   1     -55.185-100.771 -42.953  0.00  0.00     0.021 A 
ATOM      6  C   UNL d   1     -55.353-100.030 -43.277  0.00  0.00     0.083 A 
ATOM      7  O   UNL d   1     -56.351-100.606 -45.130  0.00  0.00    -0.267 OA
ATOM      8  C   UNL d   1     -55.239-102.193 -43.032  0.00  0.00     0.100 A 
ATOM      9  C   UNL d   1     -56.016-102.083 -44.484  0.00  0.00     0.005 A 
ATOM     10  C   UNL d   1     -55.849-102.824 -44.161  0.00  0.00     0.002 A 
ATOM     11  C   UNL d   1     -55.460-102.879 -43.435  0.00  0.00     0.025 A 
ENDROOT
BRANCH   8  12
ATOM     12  O   UNL d   1     -54.850-102.248 -42.307  0.00  0.00    -0.305 OA
BRANCH  12  13
ATOM     13  C   UNL d   1     -55.174-102.702 -41.699  0.00  0.00     0.122 C 
BRANCH  13  14
ATOM     14  C   UNL d   1     -55.165-102.420 -40.924  0.00  0.00     0.025 A 
ATOM     15  C   UNL d   1     -54.737-102.823 -40.343  0.00  0.00     0.004 A 
ATOM     16  C   UNL d   1     -54.728-102.541 -39.568  0.00  0.00     0.030 A 
ATOM     17  C   UNL d   1     -55.145-101.856 -39.373  0.00  0.00     0.140 A 
ATOM     18  C   UNL d   1     -55.572-101.453 -39.953  0.00  0.00     0.030 A 
ATOM     19  F   UNL d   1     -55.135-101.574 -38.598  0.00  0.00    -0.204 F 
ATOM     20  C   UNL d   1     -55.582-101.735 -40.728  0.00  0.00     0.004 A 
ENDBRANCH  13  14
ENDBRANCH  12  13
ENDBRANCH   8  12
BRANCH   2  21
ATOM     21  C   UNL d   1     -55.913 -99.229 -44.333  0.00  0.00     0.083 C 
BRANCH  21  22
ATOM     22  C   UNL d   1     -56.661 -99.074 -44.646  0.00  0.00     0.018 A 
ATOM     23  C   UNL d   1     -57.319 -99.074 -44.152  0.00  0.00     0.002 A 
ATOM     24  C   UNL d   1     -58.066 -98.919 -44.465  0.00  0.00     0.000 A 
ATOM     25  C   UNL d   1     -58.151 -98.765 -45.272  0.00  0.00     0.000 A 
ATOM     26  C   UNL d   1     -57.491 -98.766 -45.760  0.00  0.00     0.000 A 
ATOM     27  C   UNL d   1     -56.743 -98.921 -45.446  0.00  0.00     0.002 A 
ENDBRANCH  21  22
ENDBRANCH   2  21
TORSDOF 5
ENDMDL
