MODEL 1
REMARK VINA RESULT:      63.2      0.000      0.000
REMARK  3 active torsions:
REMARK  status: ('A' for Active; 'I' for Inactive)
REMARK    1  A    between atoms: C_6  and  C_1 
REMARK       I    between atoms: N_8  and  C_6 
REMARK    2  A    between atoms: C_16  and  N_8 
REMARK       I    between atoms: C_12  and  N_13 
REMARK    3  A    between atoms: N_13  and  C_17 
ROOT
ATOM      1  C   UNL d   1     -49.620  27.055  33.948  0.00  0.00     0.302 C 
ATOM      2  N   UNL d   1     -49.550  27.384  34.702  0.00  0.00    -0.206 NA
ATOM      3  O   UNL d   1     -49.206  27.378  33.319  0.00  0.00    -0.263 OA
ENDROOT
BRANCH   1   4
ATOM      4  C   UNL d   1     -50.109  26.401  33.830  0.00  0.00     0.158 A 
ATOM      5  O   UNL d   1     -49.865  25.609  33.784  0.00  0.00    -0.302 OA
ATOM      6  C   UNL d   1     -50.545  25.144  33.662  0.00  0.00     0.100 A 
ATOM      7  C   UNL d   1     -50.652  24.325  33.573  0.00  0.00     0.025 A 
ATOM      8  C   UNL d   1     -51.206  25.643  33.632  0.00  0.00     0.025 A 
ATOM      9  C   UNL d   1     -51.405  24.016  33.457  0.00  0.00     0.002 A 
ATOM     10  C   UNL d   1     -51.509  23.201  33.368  0.00  0.00     0.000 C 
ATOM     11  C   UNL d   1     -52.061  24.522  33.428  0.00  0.00     0.000 A 
ATOM     12  C   UNL d   1     -51.961  25.334  33.515  0.00  0.00     0.002 A 
ATOM     13  C   UNL d   1     -52.813  24.211  33.311  0.00  0.00     0.000 C 
ATOM     14  C   UNL d   1     -50.955  26.418  33.734  0.00  0.00     0.029 A 
ATOM     15  C   UNL d   1     -51.429  27.096  33.742  0.00  0.00     0.002 C 
ENDBRANCH   1   4
BRANCH   2  16
ATOM     16  C   UNL d   1     -49.062  28.038  34.823  0.00  0.00     0.085 A 
ATOM     17  C   UNL d   1     -49.178  28.718  34.371  0.00  0.00     0.021 A 
ATOM     18  C   UNL d   1     -48.693  29.368  34.492  0.00  0.00     0.021 A 
ATOM     19  C   UNL d   1     -48.091  29.345  35.063  0.00  0.00     0.085 A 
ATOM     20  C   UNL d   1     -47.983  28.661  35.511  0.00  0.00     0.021 A 
ATOM     21  C   UNL d   1     -48.468  28.004  35.393  0.00  0.00     0.021 A 
BRANCH  19  22
ATOM     22  N   UNL d   1     -47.605  30.001  35.182  0.00  0.00    -0.208 NA
ATOM     23  C   UNL d   1     -47.288  30.145  35.930  0.00  0.00     0.279 C 
ATOM     24  O   UNL d   1     -47.453  29.636  36.564  0.00  0.00    -0.265 OA
ATOM     25  C   UNL d   1     -46.801  30.799  36.057  0.00  0.00     0.068 C 
ENDBRANCH  19  22
ENDBRANCH   2  16
TORSDOF 3
ENDMDL
