MODEL 1
REMARK VINA RESULT:      -8.3      0.000      0.000
REMARK  5 active torsions:
REMARK  status: ('A' for Active; 'I' for Inactive)
REMARK    1  A    between atoms: N_2  and  S_1 
REMARK    2  A    between atoms: C_5  and  S_1 
REMARK    3  A    between atoms: C_3  and  N_2 
REMARK    4  A    between atoms: C_4  and  C_3 
REMARK       I    between atoms: N_8  and  C_4 
REMARK    5  A    between atoms: C_12  and  N_8 
ROOT
ATOM      1  N   UNL d   1      52.189  33.716  52.990  0.00  0.00    -0.223 N 
ATOM      2  C   UNL d   1      52.502  34.364  52.584  0.00  0.00     0.112 C 
ENDROOT
BRANCH   1   3
ATOM      3  S   UNL d   1      52.682  33.089  53.195  0.00  0.00     0.272 S 
ATOM      4  O   UNL d   1      52.555  32.340  52.870  0.00  0.00    -0.200 OA
ATOM      5  O   UNL d   1      52.642  33.885  53.401  0.00  0.00    -0.200 OA
BRANCH   3   6
ATOM      6  C   UNL d   1      53.306  33.206  53.726  0.00  0.00     0.104 A 
ATOM      7  C   UNL d   1      53.155  33.442  54.504  0.00  0.00     0.013 A 
ATOM      8  C   UNL d   1      53.788  33.557  55.031  0.00  0.00     0.001 A 
ATOM      9  C   UNL d   1      54.564  33.438  54.780  0.00  0.00     0.000 A 
ATOM     10  C   UNL d   1      54.716  33.202  54.001  0.00  0.00     0.001 A 
ATOM     11  C   UNL d   1      55.189  33.553  55.305  0.00  0.00     0.000 C 
ATOM     12  C   UNL d   1      54.091  33.086  53.476  0.00  0.00     0.013 A 
ENDBRANCH   3   6
ENDBRANCH   1   3
BRANCH   1  13
ATOM     13  C   UNL d   1      51.388  33.701  53.188  0.00  0.00     0.154 C 
BRANCH  13  14
ATOM     14  C   UNL d   1      50.841  34.101  52.718  0.00  0.00     0.298 C 
ATOM     15  N   UNL d   1      50.040  34.094  52.925  0.00  0.00    -0.207 NA
ATOM     16  O   UNL d   1      51.093  34.507  52.043  0.00  0.00    -0.264 OA
BRANCH  15  17
ATOM     17  C   UNL d   1      49.493  34.495  52.456  0.00  0.00     0.085 A 
ATOM     18  C   UNL d   1      49.334  34.232  51.696  0.00  0.00     0.019 A 
ATOM     19  C   UNL d   1      48.787  34.632  51.227  0.00  0.00     0.002 A 
ATOM     20  C   UNL d   1      48.400  35.298  51.522  0.00  0.00     0.000 A 
ATOM     21  C   UNL d   1      48.563  35.560  52.289  0.00  0.00     0.002 A 
ATOM     22  C   UNL d   1      49.109  35.157  52.752  0.00  0.00     0.019 A 
ENDBRANCH  15  17
ENDBRANCH  13  14
ENDBRANCH   1  13
TORSDOF 5
ENDMDL
MODEL 2
REMARK VINA RESULT:      -8.1      1.909      4.712
REMARK  5 active torsions:
REMARK  status: ('A' for Active; 'I' for Inactive)
REMARK    1  A    between atoms: N_2  and  S_1 
REMARK    2  A    between atoms: C_5  and  S_1 
REMARK    3  A    between atoms: C_3  and  N_2 
REMARK    4  A    between atoms: C_4  and  C_3 
REMARK       I    between atoms: N_8  and  C_4 
REMARK    5  A    between atoms: C_12  and  N_8 
ROOT
ATOM      1  N   UNL d   1      52.200  33.484  53.136  0.00  0.00    -0.223 N 
ATOM      2  C   UNL d   1      52.056  33.394  53.945  0.00  0.00     0.112 C 
ENDROOT
BRANCH   1   3
ATOM      3  S   UNL d   1      51.986  34.187  52.762  0.00  0.00     0.272 S 
ATOM      4  O   UNL d   1      52.553  34.771  52.625  0.00  0.00    -0.200 OA
ATOM      5  O   UNL d   1      51.584  33.503  52.984  0.00  0.00    -0.200 OA
BRANCH   3   6
ATOM      6  C   UNL d   1      51.203  34.310  52.523  0.00  0.00     0.104 A 
ATOM      7  C   UNL d   1      50.631  34.546  53.072  0.00  0.00     0.013 A 
ATOM      8  C   UNL d   1      49.847  34.667  52.824  0.00  0.00     0.001 A 
ATOM      9  C   UNL d   1      49.639  34.553  52.034  0.00  0.00     0.000 A 
ATOM     10  C   UNL d   1      50.211  34.317  51.485  0.00  0.00     0.001 A 
ATOM     11  C   UNL d   1      48.860  34.675  51.791  0.00  0.00     0.000 C 
ATOM     12  C   UNL d   1      50.990  34.195  51.727  0.00  0.00     0.013 A 
ENDBRANCH   3   6
ENDBRANCH   1   3
BRANCH   1  13
ATOM     13  C   UNL d   1      52.555  32.874  52.709  0.00  0.00     0.154 C 
BRANCH  13  14
ATOM     14  C   UNL d   1      52.788  32.183  53.096  0.00  0.00     0.298 C 
ATOM     15  N   UNL d   1      52.731  31.456  52.706  0.00  0.00    -0.207 NA
ATOM     16  O   UNL d   1      53.077  32.220  53.870  0.00  0.00    -0.264 OA
BRANCH  15  17
ATOM     17  C   UNL d   1      52.965  30.766  53.092  0.00  0.00     0.085 A 
ATOM     18  C   UNL d   1      53.749  30.660  53.304  0.00  0.00     0.019 A 
ATOM     19  C   UNL d   1      53.982  29.970  53.691  0.00  0.00     0.002 A 
ATOM     20  C   UNL d   1      53.425  29.387  53.863  0.00  0.00     0.000 A 
ATOM     21  C   UNL d   1      52.634  29.497  53.648  0.00  0.00     0.002 A 
ATOM     22  C   UNL d   1      52.409  30.187  53.263  0.00  0.00     0.019 A 
ENDBRANCH  15  17
ENDBRANCH  13  14
ENDBRANCH   1  13
TORSDOF 5
ENDMDL
MODEL 3
REMARK VINA RESULT:      -8.0      0.971      4.875
REMARK  5 active torsions:
REMARK  status: ('A' for Active; 'I' for Inactive)
REMARK    1  A    between atoms: N_2  and  S_1 
REMARK    2  A    between atoms: C_5  and  S_1 
REMARK    3  A    between atoms: C_3  and  N_2 
REMARK    4  A    between atoms: C_4  and  C_3 
REMARK       I    between atoms: N_8  and  C_4 
REMARK    5  A    between atoms: C_12  and  N_8 
ROOT
ATOM      1  N   UNL d   1      51.362  34.218  52.856  0.00  0.00    -0.223 N 
ATOM      2  C   UNL d   1      51.755  34.232  52.129  0.00  0.00     0.112 C 
ENDROOT
BRANCH   1   3
ATOM      3  S   UNL d   1      50.598  33.911  52.898  0.00  0.00     0.272 S 
ATOM      4  O   UNL d   1      50.470  33.164  53.226  0.00  0.00    -0.200 OA
ATOM      5  O   UNL d   1      50.926  34.612  52.617  0.00  0.00    -0.200 OA
BRANCH   3   6
ATOM      6  C   UNL d   1      49.957  34.350  52.612  0.00  0.00     0.104 A 
ATOM      7  C   UNL d   1      49.709  34.264  51.827  0.00  0.00     0.013 A 
ATOM      8  C   UNL d   1      49.064  34.709  51.547  0.00  0.00     0.001 A 
ATOM      9  C   UNL d   1      48.673  35.233  52.049  0.00  0.00     0.000 A 
ATOM     10  C   UNL d   1      48.921  35.319  52.834  0.00  0.00     0.001 A 
ATOM     11  C   UNL d   1      48.034  35.672  51.768  0.00  0.00     0.000 C 
ATOM     12  C   UNL d   1      49.560  34.880  53.115  0.00  0.00     0.013 A 
ENDBRANCH   3   6
ENDBRANCH   1   3
BRANCH   1  13
ATOM     13  C   UNL d   1      51.734  34.509  53.532  0.00  0.00     0.154 C 
BRANCH  13  14
ATOM     14  C   UNL d   1      52.502  34.270  53.714  0.00  0.00     0.298 C 
ATOM     15  N   UNL d   1      52.699  34.085  54.496  0.00  0.00    -0.207 NA
ATOM     16  O   UNL d   1      53.072  34.216  53.117  0.00  0.00    -0.264 OA
BRANCH  15  17
ATOM     17  C   UNL d   1      53.467  33.846  54.678  0.00  0.00     0.085 A 
ATOM     18  C   UNL d   1      54.036  34.403  54.868  0.00  0.00     0.019 A 
ATOM     19  C   UNL d   1      54.804  34.164  55.050  0.00  0.00     0.002 A 
ATOM     20  C   UNL d   1      54.999  33.363  55.040  0.00  0.00     0.000 A 
ATOM     21  C   UNL d   1      54.422  32.803  54.847  0.00  0.00     0.002 A 
ATOM     22  C   UNL d   1      53.659  33.047  54.667  0.00  0.00     0.019 A 
ENDBRANCH  15  17
ENDBRANCH  13  14
ENDBRANCH   1  13
TORSDOF 5
ENDMDL
MODEL 4
REMARK VINA RESULT:      -7.8      2.592      3.820
REMARK  5 active torsions:
REMARK  status: ('A' for Active; 'I' for Inactive)
REMARK    1  A    between atoms: N_2  and  S_1 
REMARK    2  A    between atoms: C_5  and  S_1 
REMARK    3  A    between atoms: C_3  and  N_2 
REMARK    4  A    between atoms: C_4  and  C_3 
REMARK       I    between atoms: N_8  and  C_4 
REMARK    5  A    between atoms: C_12  and  N_8 
ROOT
ATOM      1  N   UNL d   1      53.337  31.639  53.173  0.00  0.00    -0.223 N 
ATOM      2  C   UNL d   1      54.132  31.819  53.312  0.00  0.00     0.112 C 
ENDROOT
BRANCH   1   3
ATOM      3  S   UNL d   1      53.130  30.882  52.922  0.00  0.00     0.272 S 
ATOM      4  O   UNL d   1      52.859  30.762  52.151  0.00  0.00    -0.200 OA
ATOM      5  O   UNL d   1      53.412  31.202  53.626  0.00  0.00    -0.200 OA
BRANCH   3   6
ATOM      6  C   UNL d   1      53.194  30.240  53.440  0.00  0.00     0.104 A 
ATOM      7  C   UNL d   1      53.936  29.931  53.634  0.00  0.00     0.013 A 
ATOM      8  C   UNL d   1      53.991  29.285  54.155  0.00  0.00     0.001 A 
ATOM      9  C   UNL d   1      53.309  28.953  54.478  0.00  0.00     0.000 A 
ATOM     10  C   UNL d   1      52.567  29.262  54.285  0.00  0.00     0.001 A 
ATOM     11  C   UNL d   1      53.368  28.313  54.995  0.00  0.00     0.000 C 
ATOM     12  C   UNL d   1      52.508  29.903  53.768  0.00  0.00     0.013 A 
ENDBRANCH   3   6
ENDBRANCH   1   3
BRANCH   1  13
ATOM     13  C   UNL d   1      52.757  32.216  53.286  0.00  0.00     0.154 C 
BRANCH  13  14
ATOM     14  C   UNL d   1      52.977  32.990  53.466  0.00  0.00     0.298 C 
ATOM     15  N   UNL d   1      52.509  33.441  53.977  0.00  0.00    -0.207 NA
ATOM     16  O   UNL d   1      53.663  33.313  53.135  0.00  0.00    -0.264 OA
BRANCH  15  17
ATOM     17  C   UNL d   1      52.728  34.215  54.156  0.00  0.00     0.085 A 
ATOM     18  C   UNL d   1      52.551  34.823  53.636  0.00  0.00     0.019 A 
ATOM     19  C   UNL d   1      52.770  35.597  53.816  0.00  0.00     0.002 A 
ATOM     20  C   UNL d   1      53.170  35.759  54.519  0.00  0.00     0.000 A 
ATOM     21  C   UNL d   1      53.348  35.143  55.042  0.00  0.00     0.002 A 
ATOM     22  C   UNL d   1      53.126  34.374  54.857  0.00  0.00     0.019 A 
ENDBRANCH  15  17
ENDBRANCH  13  14
ENDBRANCH   1  13
TORSDOF 5
ENDMDL
