MODEL 1
REMARK VINA RESULT:      -1.0      0.000      0.000
REMARK  4 active torsions:
REMARK  status: ('A' for Active; 'I' for Inactive)
REMARK    1  A    between atoms: C_4  and  C_1 
REMARK    2  A    between atoms: N_8  and  C_4 
REMARK    3  A    between atoms: C_12  and  C_4 
REMARK    4  A    between atoms: C_5  and  N_8 
ROOT
ATOM      1  C   UNL d   1      31.240  17.167 -24.163  0.00  0.00     0.085 C 
ENDROOT
BRANCH   1   2
ATOM      2  C   UNL d   1      30.580  16.831 -23.797  0.00  0.00     0.037 A 
ATOM      3  C   UNL d   1      30.596  16.262 -23.184  0.00  0.00     0.083 A 
ATOM      4  N   UNL d   1      29.821  16.088 -22.992  0.00  0.00    -0.245 NA
ATOM      5  C   UNL d   1      31.271  15.938 -22.837  0.00  0.00     0.021 C 
ATOM      6  C   UNL d   1      29.333  16.543 -23.481  0.00  0.00     0.081 A 
ATOM      7  C   UNL d   1      29.805  16.992 -23.967  0.00  0.00     0.021 A 
ATOM      8  C   UNL d   1      28.507  16.591 -23.529  0.00  0.00     0.019 A 
ATOM      9  C   UNL d   1      29.460  17.499 -24.513  0.00  0.00     0.002 A 
ATOM     10  C   UNL d   1      28.639  17.559 -24.573  0.00  0.00     0.000 A 
ATOM     11  C   UNL d   1      28.168  17.109 -24.087  0.00  0.00     0.002 A 
ENDBRANCH   1   2
BRANCH   1  12
ATOM     12  N   UNL d   1      31.456  16.956 -24.883  0.00  0.00    -0.221 NA
BRANCH  12  13
ATOM     13  C   UNL d   1      32.062  16.482 -24.965  0.00  0.00     0.194 A 
ATOM     14  N   UNL d   1      32.823  16.689 -25.009  0.00  0.00    -0.219 NA
ATOM     15  C   UNL d   1      33.231  16.061 -25.087  0.00  0.00     0.108 A 
ATOM     16  C   UNL d   1      32.753  15.454 -25.095  0.00  0.00     0.059 A 
ATOM     17  S   UNL d   1      32.023  15.710 -25.019  0.00  0.00    -0.046 SA
ENDBRANCH  12  13
ENDBRANCH   1  12
BRANCH   1  18
ATOM     18  C   UNL d   1      31.692  17.741 -23.778  0.00  0.00     0.021 A 
ATOM     19  C   UNL d   1      31.687  18.513 -24.069  0.00  0.00     0.022 A 
ATOM     20  C   UNL d   1      32.136  19.098 -23.692  0.00  0.00     0.099 A 
ATOM     21  N   UNL d   1      32.585  18.905 -23.030  0.00  0.00    -0.242 NA
ATOM     22  C   UNL d   1      32.589  18.129 -22.739  0.00  0.00     0.099 A 
ATOM     23  C   UNL d   1      32.141  17.549 -23.115  0.00  0.00     0.022 A 
ENDBRANCH   1  18
TORSDOF 4
ENDMDL
MODEL 2
REMARK VINA RESULT:      -0.3      1.134      3.430
REMARK  4 active torsions:
REMARK  status: ('A' for Active; 'I' for Inactive)
REMARK    1  A    between atoms: C_4  and  C_1 
REMARK    2  A    between atoms: N_8  and  C_4 
REMARK    3  A    between atoms: C_12  and  C_4 
REMARK    4  A    between atoms: C_5  and  N_8 
ROOT
ATOM      1  C   UNL d   1      32.139  17.688 -24.301  0.00  0.00     0.085 C 
ENDROOT
BRANCH   1   2
ATOM      2  C   UNL d   1      32.470  18.305 -23.861  0.00  0.00     0.037 A 
ATOM      3  C   UNL d   1      32.655  18.283 -23.047  0.00  0.00     0.083 A 
ATOM      4  N   UNL d   1      32.969  19.010 -22.847  0.00  0.00    -0.245 NA
ATOM      5  C   UNL d   1      32.541  17.642 -22.538  0.00  0.00     0.021 C 
ATOM      6  C   UNL d   1      32.978  19.475 -23.530  0.00  0.00     0.081 A 
ATOM      7  C   UNL d   1      32.671  19.037 -24.143  0.00  0.00     0.021 A 
ATOM      8  C   UNL d   1      33.234  20.254 -23.653  0.00  0.00     0.019 A 
ATOM      9  C   UNL d   1      32.615  19.369 -24.892  0.00  0.00     0.002 A 
ATOM     10  C   UNL d   1      32.866  20.143 -25.030  0.00  0.00     0.000 A 
ATOM     11  C   UNL d   1      33.173  20.581 -24.417  0.00  0.00     0.002 A 
ENDBRANCH   1   2
BRANCH   1  12
ATOM     12  N   UNL d   1      31.469  17.782 -24.691  0.00  0.00    -0.221 NA
BRANCH  12  13
ATOM     13  C   UNL d   1      30.844  17.392 -24.455  0.00  0.00     0.194 A 
ATOM     14  N   UNL d   1      30.519  17.409 -23.734  0.00  0.00    -0.219 NA
ATOM     15  C   UNL d   1      29.921  16.952 -23.738  0.00  0.00     0.108 A 
ATOM     16  C   UNL d   1      29.850  16.641 -24.442  0.00  0.00     0.059 A 
ATOM     17  S   UNL d   1      30.423  16.911 -24.893  0.00  0.00    -0.046 SA
ENDBRANCH  12  13
ENDBRANCH   1  12
BRANCH   1  18
ATOM     18  C   UNL d   1      32.508  16.951 -24.342  0.00  0.00     0.021 A 
ATOM     19  C   UNL d   1      32.544  16.486 -23.661  0.00  0.00     0.022 A 
ATOM     20  C   UNL d   1      32.912  15.745 -23.688  0.00  0.00     0.099 A 
ATOM     21  N   UNL d   1      33.239  15.476 -24.393  0.00  0.00    -0.242 NA
ATOM     22  C   UNL d   1      33.201  15.944 -25.077  0.00  0.00     0.099 A 
ATOM     23  C   UNL d   1      32.835  16.682 -25.048  0.00  0.00     0.022 A 
ENDBRANCH   1  18
TORSDOF 4
ENDMDL
MODEL 3
REMARK VINA RESULT:      -0.3      0.949      2.054
REMARK  4 active torsions:
REMARK  status: ('A' for Active; 'I' for Inactive)
REMARK    1  A    between atoms: C_4  and  C_1 
REMARK    2  A    between atoms: N_8  and  C_4 
REMARK    3  A    between atoms: C_12  and  C_4 
REMARK    4  A    between atoms: C_5  and  N_8 
ROOT
ATOM      1  C   UNL d   1      31.270  16.883 -24.037  0.00  0.00     0.085 C 
ENDROOT
BRANCH   1   2
ATOM      2  C   UNL d   1      30.575  16.569 -23.720  0.00  0.00     0.037 A 
ATOM      3  C   UNL d   1      30.523  16.063 -23.057  0.00  0.00     0.083 A 
ATOM      4  N   UNL d   1      29.733  15.890 -22.942  0.00  0.00    -0.245 NA
ATOM      5  C   UNL d   1      31.155  15.788 -22.602  0.00  0.00     0.021 C 
ATOM      6  C   UNL d   1      29.303  16.285 -23.527  0.00  0.00     0.081 A 
ATOM      7  C   UNL d   1      29.824  16.695 -23.997  0.00  0.00     0.021 A 
ATOM      8  C   UNL d   1      28.488  16.310 -23.678  0.00  0.00     0.019 A 
ATOM      9  C   UNL d   1      29.542  17.140 -24.627  0.00  0.00     0.002 A 
ATOM     10  C   UNL d   1      28.733  17.174 -24.789  0.00  0.00     0.000 A 
ATOM     11  C   UNL d   1      28.212  16.764 -24.320  0.00  0.00     0.002 A 
ENDBRANCH   1   2
BRANCH   1  12
ATOM     12  N   UNL d   1      31.327  17.640 -24.220  0.00  0.00    -0.221 NA
BRANCH  12  13
ATOM     13  C   UNL d   1      31.761  18.099 -23.775  0.00  0.00     0.194 A 
ATOM     14  N   UNL d   1      31.885  18.025 -22.997  0.00  0.00    -0.219 NA
ATOM     15  C   UNL d   1      32.340  18.585 -22.780  0.00  0.00     0.108 A 
ATOM     16  C   UNL d   1      32.512  19.018 -23.396  0.00  0.00     0.059 A 
ATOM     17  S   UNL d   1      32.154  18.721 -24.019  0.00  0.00    -0.046 SA
ENDBRANCH  12  13
ENDBRANCH   1  12
BRANCH   1  18
ATOM     18  C   UNL d   1      31.930  16.405 -24.171  0.00  0.00     0.021 A 
ATOM     19  C   UNL d   1      32.133  16.216 -24.949  0.00  0.00     0.022 A 
ATOM     20  C   UNL d   1      32.792  15.737 -25.097  0.00  0.00     0.099 A 
ATOM     21  N   UNL d   1      33.240  15.453 -24.469  0.00  0.00    -0.242 NA
ATOM     22  C   UNL d   1      33.035  15.643 -23.688  0.00  0.00     0.099 A 
ATOM     23  C   UNL d   1      32.378  16.120 -23.543  0.00  0.00     0.022 A 
ENDBRANCH   1  18
TORSDOF 4
ENDMDL
