MODEL 1
REMARK VINA RESULT:      39.3      0.000      0.000
REMARK  2 active torsions:
REMARK  status: ('A' for Active; 'I' for Inactive)
REMARK       I    between atoms: C_2  and  N_1 
REMARK       I    between atoms: C_3  and  N_1 
REMARK       I    between atoms: N_4  and  C_2 
REMARK    1  A    between atoms: C_9  and  C_3 
REMARK    2  A    between atoms: C_5  and  N_4 
ROOT
ATOM      1  N   UNL d   1      58.802  49.609  51.551  0.00  0.00    -0.140 NA
ATOM      2  C   UNL d   1      59.601  49.509  51.711  0.00  0.00     0.424 C 
ATOM      3  C   UNL d   1      58.486  49.390  50.825  0.00  0.00     0.284 C 
ATOM      4  N   UNL d   1      60.116  49.191  51.165  0.00  0.00    -0.329 NA
ATOM      5  O   UNL d   1      60.099  49.660  52.360  0.00  0.00    -0.228 OA
ATOM      6  O   UNL d   1      58.980  49.064  50.247  0.00  0.00    -0.265 OA
ENDROOT
BRANCH   3   7
ATOM      7  C   UNL d   1      57.685  49.492  50.668  0.00  0.00     0.058 A 
ATOM      8  C   UNL d   1      57.430  49.564  49.893  0.00  0.00     0.005 A 
ATOM      9  C   UNL d   1      56.628  49.666  49.727  0.00  0.00     0.000 A 
ATOM     10  C   UNL d   1      56.079  49.696  50.350  0.00  0.00     0.000 A 
ATOM     11  C   UNL d   1      56.334  49.623  51.124  0.00  0.00     0.000 A 
ATOM     12  C   UNL d   1      57.144  49.520  51.288  0.00  0.00     0.005 A 
ENDBRANCH   3   7
BRANCH   4  13
ATOM     13  C   UNL d   1      60.721  48.888  50.703  0.00  0.00     0.219 A 
ATOM     14  N   UNL d   1      61.090  49.364  50.146  0.00  0.00    -0.214 NA
ATOM     15  C   UNL d   1      61.703  49.050  49.679  0.00  0.00     0.102 A 
ATOM     16  C   UNL d   1      61.932  48.264  49.781  0.00  0.00     0.021 A 
ATOM     17  C   UNL d   1      61.563  47.788  50.337  0.00  0.00     0.006 A 
ATOM     18  C   UNL d   1      60.953  48.097  50.803  0.00  0.00     0.052 A 
ENDBRANCH   4  13
TORSDOF 2
ENDMDL
MODEL 2
REMARK VINA RESULT:      41.1      1.297      1.981
REMARK  2 active torsions:
REMARK  status: ('A' for Active; 'I' for Inactive)
REMARK       I    between atoms: C_2  and  N_1 
REMARK       I    between atoms: C_3  and  N_1 
REMARK       I    between atoms: N_4  and  C_2 
REMARK    1  A    between atoms: C_9  and  C_3 
REMARK    2  A    between atoms: C_5  and  N_4 
ROOT
ATOM      1  N   UNL d   1      59.059  49.707  49.626  0.00  0.00    -0.140 NA
ATOM      2  C   UNL d   1      59.849  49.707  49.849  0.00  0.00     0.424 C 
ATOM      3  C   UNL d   1      58.461  49.707  50.190  0.00  0.00     0.284 C 
ATOM      4  N   UNL d   1      60.079  49.706  50.631  0.00  0.00    -0.329 NA
ATOM      5  O   UNL d   1      60.578  49.707  49.448  0.00  0.00    -0.228 OA
ATOM      6  O   UNL d   1      58.659  49.706  50.994  0.00  0.00    -0.265 OA
ENDROOT
BRANCH   3   7
ATOM      7  C   UNL d   1      57.671  49.707  49.963  0.00  0.00     0.058 A 
ATOM      8  C   UNL d   1      57.085  49.707  50.536  0.00  0.00     0.005 A 
ATOM      9  C   UNL d   1      56.290  49.707  50.316  0.00  0.00     0.000 A 
ATOM     10  C   UNL d   1      56.083  49.707  49.512  0.00  0.00     0.000 A 
ATOM     11  C   UNL d   1      56.669  49.707  48.939  0.00  0.00     0.000 A 
ATOM     12  C   UNL d   1      57.471  49.707  49.164  0.00  0.00     0.005 A 
ENDBRANCH   3   7
BRANCH   4  13
ATOM     13  C   UNL d   1      60.426  49.706  51.373  0.00  0.00     0.219 A 
ATOM     14  N   UNL d   1      59.956  49.708  52.046  0.00  0.00    -0.214 NA
ATOM     15  C   UNL d   1      60.313  49.707  52.797  0.00  0.00     0.102 A 
ATOM     16  C   UNL d   1      61.137  49.704  52.857  0.00  0.00     0.021 A 
ATOM     17  C   UNL d   1      61.606  49.702  52.185  0.00  0.00     0.006 A 
ATOM     18  C   UNL d   1      61.253  49.703  51.437  0.00  0.00     0.052 A 
ENDBRANCH   4  13
TORSDOF 2
ENDMDL
