MODEL 1
REMARK VINA RESULT:      -9.8      0.000      0.000
REMARK  2 active torsions:
REMARK  status: ('A' for Active; 'I' for Inactive)
REMARK    1  A    between atoms: N_2  and  S_1 
REMARK    2  A    between atoms: C_3  and  S_1 
ROOT
ATOM      1  N   UNL d   1      52.815  32.757  53.433  0.00  0.00    -0.231 N 
ATOM      2  C   UNL d   1      53.329  33.077  53.989  0.00  0.00     0.075 A 
ATOM      3  C   UNL d   1      53.966  32.628  54.259  0.00  0.00     0.017 A 
ATOM      4  C   UNL d   1      52.928  31.988  53.140  0.00  0.00     0.092 A 
ATOM      5  C   UNL d   1      53.218  33.846  54.285  0.00  0.00     0.018 A 
ATOM      6  C   UNL d   1      53.563  31.544  53.410  0.00  0.00     0.020 A 
ATOM      7  C   UNL d   1      54.086  31.865  53.973  0.00  0.00     0.003 A 
ATOM      8  C   UNL d   1      54.487  32.957  54.825  0.00  0.00     0.002 A 
ATOM      9  C   UNL d   1      53.731  34.175  54.844  0.00  0.00     0.002 A 
ATOM     10  C   UNL d   1      54.369  33.730  55.116  0.00  0.00     0.000 A 
ENDROOT
BRANCH   1  11
ATOM     11  S   UNL d   1      52.179  33.207  53.165  0.00  0.00     0.277 S 
ATOM     12  O   UNL d   1      52.651  33.516  52.563  0.00  0.00    -0.199 OA
ATOM     13  O   UNL d   1      51.712  32.902  53.758  0.00  0.00    -0.199 OA
BRANCH  11  14
ATOM     14  C   UNL d   1      51.553  33.649  52.902  0.00  0.00     0.133 A 
ATOM     15  S   UNL d   1      50.809  33.667  53.252  0.00  0.00    -0.074 SA
ATOM     16  C   UNL d   1      50.326  34.203  52.795  0.00  0.00     0.036 A 
ATOM     17  C   UNL d   1      50.805  34.481  52.189  0.00  0.00     0.008 A 
ATOM     18  C   UNL d   1      51.542  34.172  52.221  0.00  0.00     0.020 A 
ENDBRANCH  11  14
ENDBRANCH   1  11
TORSDOF 2
ENDMDL
MODEL 2
REMARK VINA RESULT:      -9.8      0.459      1.618
REMARK  2 active torsions:
REMARK  status: ('A' for Active; 'I' for Inactive)
REMARK    1  A    between atoms: N_2  and  S_1 
REMARK    2  A    between atoms: C_3  and  S_1 
ROOT
ATOM      1  N   UNL d   1      52.862  33.219  53.725  0.00  0.00    -0.231 N 
ATOM      2  C   UNL d   1      53.070  32.434  53.597  0.00  0.00     0.075 A 
ATOM      3  C   UNL d   1      53.722  32.117  53.989  0.00  0.00     0.017 A 
ATOM      4  C   UNL d   1      53.301  33.697  54.245  0.00  0.00     0.092 A 
ATOM      5  C   UNL d   1      52.633  31.953  53.077  0.00  0.00     0.018 A 
ATOM      6  C   UNL d   1      53.948  33.379  54.634  0.00  0.00     0.020 A 
ATOM      7  C   UNL d   1      54.162  32.583  54.506  0.00  0.00     0.003 A 
ATOM      8  C   UNL d   1      53.930  31.317  53.856  0.00  0.00     0.002 A 
ATOM      9  C   UNL d   1      52.835  31.163  52.942  0.00  0.00     0.002 A 
ATOM     10  C   UNL d   1      53.487  30.842  53.333  0.00  0.00     0.000 A 
ENDROOT
BRANCH   1  11
ATOM     11  S   UNL d   1      52.211  33.534  53.332  0.00  0.00     0.277 S 
ATOM     12  O   UNL d   1      52.701  33.779  52.715  0.00  0.00    -0.199 OA
ATOM     13  O   UNL d   1      51.726  33.292  53.940  0.00  0.00    -0.199 OA
BRANCH  11  14
ATOM     14  C   UNL d   1      51.569  33.844  52.946  0.00  0.00     0.133 A 
ATOM     15  S   UNL d   1      50.812  33.902  53.262  0.00  0.00    -0.074 SA
ATOM     16  C   UNL d   1      50.315  34.260  52.667  0.00  0.00     0.036 A 
ATOM     17  C   UNL d   1      50.799  34.400  52.019  0.00  0.00     0.008 A 
ATOM     18  C   UNL d   1      51.553  34.165  52.149  0.00  0.00     0.020 A 
ENDBRANCH  11  14
ENDBRANCH   1  11
TORSDOF 2
ENDMDL
MODEL 3
REMARK VINA RESULT:      -9.4      1.515      3.230
REMARK  2 active torsions:
REMARK  status: ('A' for Active; 'I' for Inactive)
REMARK    1  A    between atoms: N_2  and  S_1 
REMARK    2  A    between atoms: C_3  and  S_1 
ROOT
ATOM      1  N   UNL d   1      53.220  32.597  53.578  0.00  0.00    -0.231 N 
ATOM      2  C   UNL d   1      53.207  31.783  53.462  0.00  0.00     0.075 A 
ATOM      3  C   UNL d   1      52.610  31.448  53.002  0.00  0.00     0.017 A 
ATOM      4  C   UNL d   1      52.639  33.086  53.239  0.00  0.00     0.092 A 
ATOM      5  C   UNL d   1      53.786  31.291  53.800  0.00  0.00     0.018 A 
ATOM      6  C   UNL d   1      52.047  32.749  52.783  0.00  0.00     0.020 A 
ATOM      7  C   UNL d   1      52.031  31.925  52.663  0.00  0.00     0.003 A 
ATOM      8  C   UNL d   1      52.600  30.619  52.886  0.00  0.00     0.002 A 
ATOM      9  C   UNL d   1      53.780  30.472  53.688  0.00  0.00     0.002 A 
ATOM     10  C   UNL d   1      53.184  30.133  53.229  0.00  0.00     0.000 A 
ENDROOT
BRANCH   1  11
ATOM     11  S   UNL d   1      53.817  32.930  54.038  0.00  0.00     0.277 S 
ATOM     12  O   UNL d   1      54.282  33.027  53.363  0.00  0.00    -0.199 OA
ATOM     13  O   UNL d   1      53.358  32.834  54.703  0.00  0.00    -0.199 OA
BRANCH  11  14
ATOM     14  C   UNL d   1      54.404  33.257  54.490  0.00  0.00     0.133 A 
ATOM     15  S   UNL d   1      54.345  33.414  55.296  0.00  0.00    -0.074 SA
ATOM     16  C   UNL d   1      55.088  33.756  55.542  0.00  0.00     0.036 A 
ATOM     17  C   UNL d   1      55.558  33.788  54.871  0.00  0.00     0.008 A 
ATOM     18  C   UNL d   1      55.184  33.500  54.225  0.00  0.00     0.020 A 
ENDBRANCH  11  14
ENDBRANCH   1  11
TORSDOF 2
ENDMDL
MODEL 4
REMARK VINA RESULT:      -9.3      1.453      2.750
REMARK  2 active torsions:
REMARK  status: ('A' for Active; 'I' for Inactive)
REMARK    1  A    between atoms: N_2  and  S_1 
REMARK    2  A    between atoms: C_3  and  S_1 
ROOT
ATOM      1  N   UNL d   1      53.860  32.864  54.240  0.00  0.00    -0.231 N 
ATOM      2  C   UNL d   1      53.410  33.537  54.101  0.00  0.00     0.075 A 
ATOM      3  C   UNL d   1      53.638  34.255  54.438  0.00  0.00     0.017 A 
ATOM      4  C   UNL d   1      54.541  32.896  54.715  0.00  0.00     0.092 A 
ATOM      5  C   UNL d   1      52.728  33.508  53.626  0.00  0.00     0.018 A 
ATOM      6  C   UNL d   1      54.766  33.611  55.049  0.00  0.00     0.020 A 
ATOM      7  C   UNL d   1      54.312  34.296  54.910  0.00  0.00     0.003 A 
ATOM      8  C   UNL d   1      53.178  34.938  54.294  0.00  0.00     0.002 A 
ATOM      9  C   UNL d   1      52.270  34.181  53.481  0.00  0.00     0.002 A 
ATOM     10  C   UNL d   1      52.495  34.901  53.816  0.00  0.00     0.000 A 
ENDROOT
BRANCH   1  11
ATOM     11  S   UNL d   1      53.631  32.148  53.903  0.00  0.00     0.277 S 
ATOM     12  O   UNL d   1      54.067  32.326  53.226  0.00  0.00    -0.199 OA
ATOM     13  O   UNL d   1      53.200  31.971  54.571  0.00  0.00    -0.199 OA
BRANCH  11  14
ATOM     14  C   UNL d   1      53.405  31.443  53.573  0.00  0.00     0.133 A 
ATOM     15  S   UNL d   1      53.567  30.701  53.889  0.00  0.00    -0.074 SA
ATOM     16  C   UNL d   1      53.228  30.122  53.362  0.00  0.00     0.036 A 
ATOM     17  C   UNL d   1      52.876  30.544  52.753  0.00  0.00     0.008 A 
ATOM     18  C   UNL d   1      52.961  31.335  52.845  0.00  0.00     0.020 A 
ENDBRANCH  11  14
ENDBRANCH   1  11
TORSDOF 2
ENDMDL
MODEL 5
REMARK VINA RESULT:      -9.2      1.310      3.069
REMARK  2 active torsions:
REMARK  status: ('A' for Active; 'I' for Inactive)
REMARK    1  A    between atoms: N_2  and  S_1 
REMARK    2  A    between atoms: C_3  and  S_1 
ROOT
ATOM      1  N   UNL d   1      53.250  32.701  53.607  0.00  0.00    -0.231 N 
ATOM      2  C   UNL d   1      52.688  33.211  53.291  0.00  0.00     0.075 A 
ATOM      3  C   UNL d   1      52.086  32.907  52.816  0.00  0.00     0.017 A 
ATOM      4  C   UNL d   1      53.221  31.885  53.454  0.00  0.00     0.092 A 
ATOM      5  C   UNL d   1      52.714  34.028  53.442  0.00  0.00     0.018 A 
ATOM      6  C   UNL d   1      52.621  31.586  52.981  0.00  0.00     0.020 A 
ATOM      7  C   UNL d   1      52.050  32.099  52.659  0.00  0.00     0.003 A 
ATOM      8  C   UNL d   1      51.515  33.428  52.496  0.00  0.00     0.002 A 
ATOM      9  C   UNL d   1      52.152  34.547  53.128  0.00  0.00     0.002 A 
ATOM     10  C   UNL d   1      51.549  34.247  52.652  0.00  0.00     0.000 A 
ENDROOT
BRANCH   1  11
ATOM     11  S   UNL d   1      53.850  33.007  54.082  0.00  0.00     0.277 S 
ATOM     12  O   UNL d   1      54.335  33.086  53.419  0.00  0.00    -0.199 OA
ATOM     13  O   UNL d   1      53.373  32.929  54.737  0.00  0.00    -0.199 OA
BRANCH  11  14
ATOM     14  C   UNL d   1      54.440  33.307  54.550  0.00  0.00     0.133 A 
ATOM     15  S   UNL d   1      54.411  33.358  55.370  0.00  0.00    -0.074 SA
ATOM     16  C   UNL d   1      55.145  33.706  55.629  0.00  0.00     0.036 A 
ATOM     17  C   UNL d   1      55.583  33.849  54.950  0.00  0.00     0.008 A 
ATOM     18  C   UNL d   1      55.194  33.623  54.288  0.00  0.00     0.020 A 
ENDBRANCH  11  14
ENDBRANCH   1  11
TORSDOF 2
ENDMDL
