MODEL 1
REMARK VINA RESULT:      63.3      0.000      0.000
REMARK  4 active torsions:
REMARK  status: ('A' for Active; 'I' for Inactive)
REMARK    1  A    between atoms: S_3  and  N_1 
REMARK    2  A    between atoms: C_7  and  C_4 
REMARK    3  A    between atoms: C_12  and  C_5 
REMARK    4  A    between atoms: O_24  and  C_21 
ROOT
ATOM      1  N   UNL d   1     -55.194-101.957 -42.557  0.00  0.00    -0.155 N 
ATOM      2  N   UNL d   1     -55.192-102.344 -41.842  0.00  0.00    -0.156 NA
ATOM      3  C   UNL d   1     -54.996-101.179 -42.428  0.00  0.00     0.096 A 
ATOM      4  C   UNL d   1     -54.991-101.804 -41.266  0.00  0.00     0.103 A 
ATOM      5  C   UNL d   1     -54.868-101.079 -41.620  0.00  0.00     0.041 A 
ENDROOT
BRANCH   3   6
ATOM      6  C   UNL d   1     -54.932-100.590 -43.003  0.00  0.00     0.020 A 
ATOM      7  C   UNL d   1     -54.902-100.794 -43.801  0.00  0.00     0.022 A 
ATOM      8  C   UNL d   1     -54.839-100.205 -44.375  0.00  0.00     0.099 A 
ATOM      9  N   UNL d   1     -54.809-100.409 -45.174  0.00  0.00    -0.241 NA
ATOM     10  C   UNL d   1     -54.806 -99.417 -44.151  0.00  0.00     0.099 A 
ATOM     11  C   UNL d   1     -54.749 -99.835 -45.694  0.00  0.00     0.120 A 
ATOM     12  C   UNL d   1     -54.716 -99.047 -45.471  0.00  0.00     0.120 A 
ATOM     13  N   UNL d   1     -54.743 -98.828 -44.726  0.00  0.00    -0.241 NA
ATOM     14  C   UNL d   1     -54.836 -99.213 -43.353  0.00  0.00     0.021 A 
ATOM     15  C   UNL d   1     -54.900 -99.801 -42.779  0.00  0.00     0.003 A 
ENDBRANCH   3   6
BRANCH   1  16
ATOM     16  S   UNL d   1     -55.364-102.284 -43.285  0.00  0.00     0.266 S 
ATOM     17  O   UNL d   1     -56.030-102.678 -42.953  0.00  0.00    -0.203 OA
ATOM     18  O   UNL d   1     -55.540-102.622 -44.036  0.00  0.00    -0.203 OA
ATOM     19  C   UNL d   1     -54.723-101.905 -43.610  0.00  0.00     0.165 C 
ENDBRANCH   1  16
BRANCH   4  20
ATOM     20  C   UNL d   1     -54.923-101.953 -40.470  0.00  0.00     0.020 A 
ATOM     21  C   UNL d   1     -54.937-102.709 -40.182  0.00  0.00     0.004 A 
ATOM     22  C   UNL d   1     -54.867-102.872 -39.362  0.00  0.00     0.024 A 
ATOM     23  C   UNL d   1     -54.782-102.237 -38.836  0.00  0.00     0.094 A 
ATOM     24  C   UNL d   1     -54.770-101.465 -39.145  0.00  0.00     0.024 A 
ATOM     25  C   UNL d   1     -54.838-101.321 -39.939  0.00  0.00     0.004 A 
BRANCH  23  26
ATOM     26  O   UNL d   1     -54.716-102.371 -38.065  0.00  0.00    -0.328 OA
ATOM     27  C   UNL d   1     -55.387-102.541 -37.610  0.00  0.00     0.181 C 
ENDBRANCH  23  26
ENDBRANCH   4  20
TORSDOF 4
ENDMDL
