MODEL 1
REMARK VINA RESULT:      68.9      0.000      0.000
REMARK  4 active torsions:
REMARK  status: ('A' for Active; 'I' for Inactive)
REMARK    1  A    between atoms: N_3  and  C_1 
REMARK    2  A    between atoms: C_6  and  C_2 
REMARK    3  A    between atoms: C_13  and  N_8 
REMARK    4  A    between atoms: C_16  and  C_13 
ROOT
ATOM      1  N   UNL d   1     -49.741  26.764  34.026  0.00  0.00    -0.286 N 
ATOM      2  N   UNL d   1     -48.732  27.696  34.964  0.00  0.00    -0.300 N 
ATOM      3  C   UNL d   1     -49.846  26.790  34.843  0.00  0.00     0.101 A 
ATOM      4  C   UNL d   1     -49.132  27.202  33.664  0.00  0.00     0.101 A 
ATOM      5  C   UNL d   1     -48.633  27.663  34.131  0.00  0.00     0.100 A 
ATOM      6  C   UNL d   1     -49.342  27.256  35.312  0.00  0.00     0.100 A 
ENDROOT
BRANCH   1   7
ATOM      7  C   UNL d   1     -50.346  26.249  33.787  0.00  0.00     0.149 A 
ATOM      8  C   UNL d   1     -51.117  26.551  33.672  0.00  0.00     0.056 A 
ATOM      9  C   UNL d   1     -51.716  26.040  33.435  0.00  0.00     0.006 A 
ATOM     10  C   UNL d   1     -52.490  26.323  33.315  0.00  0.00     0.000 C 
ATOM     11  C   UNL d   1     -51.547  25.231  33.312  0.00  0.00     0.019 A 
ATOM     12  C   UNL d   1     -50.776  24.941  33.429  0.00  0.00     0.083 A 
ATOM     13  N   UNL d   1     -50.180  25.454  33.666  0.00  0.00    -0.228 NA
ATOM     14  C   UNL d   1     -50.613  24.138  33.306  0.00  0.00     0.021 C 
BRANCH   8  15
ATOM     15  C   UNL d   1     -51.275  27.347  33.795  0.00  0.00     0.125 C 
ATOM     16  N   UNL d   1     -51.954  27.687  33.475  0.00  0.00    -0.146 N 
ENDBRANCH   8  15
ENDBRANCH   1   7
BRANCH   2  17
ATOM     17  C   UNL d   1     -48.229  28.161  35.423  0.00  0.00     0.080 C 
BRANCH  17  18
ATOM     18  C   UNL d   1     -48.113  28.957  35.239  0.00  0.00     0.018 A 
ATOM     19  C   UNL d   1     -48.748  29.415  34.990  0.00  0.00     0.002 A 
ATOM     20  C   UNL d   1     -48.632  30.210  34.806  0.00  0.00     0.000 A 
ATOM     21  C   UNL d   1     -47.883  30.537  34.874  0.00  0.00     0.000 A 
ATOM     22  C   UNL d   1     -47.243  30.079  35.124  0.00  0.00     0.000 A 
ATOM     23  C   UNL d   1     -47.364  29.283  35.307  0.00  0.00     0.002 A 
ENDBRANCH  17  18
ENDBRANCH   2  17
TORSDOF 4
ENDMDL
MODEL 2
REMARK VINA RESULT:      69.8      0.789      1.673
REMARK  4 active torsions:
REMARK  status: ('A' for Active; 'I' for Inactive)
REMARK    1  A    between atoms: N_3  and  C_1 
REMARK    2  A    between atoms: C_6  and  C_2 
REMARK    3  A    between atoms: C_13  and  N_8 
REMARK    4  A    between atoms: C_16  and  C_13 
ROOT
ATOM      1  N   UNL d   1     -50.047  26.888  33.887  0.00  0.00    -0.286 N 
ATOM      2  N   UNL d   1     -49.034  28.199  34.025  0.00  0.00    -0.300 N 
ATOM      3  C   UNL d   1     -50.263  27.612  33.557  0.00  0.00     0.101 A 
ATOM      4  C   UNL d   1     -49.323  26.808  34.292  0.00  0.00     0.101 A 
ATOM      5  C   UNL d   1     -48.823  27.458  34.359  0.00  0.00     0.100 A 
ATOM      6  C   UNL d   1     -49.756  28.267  33.626  0.00  0.00     0.100 A 
ENDROOT
BRANCH   1   7
ATOM      7  C   UNL d   1     -50.694  26.405  33.693  0.00  0.00     0.149 A 
ATOM      8  C   UNL d   1     -50.574  25.583  33.597  0.00  0.00     0.056 A 
ATOM      9  C   UNL d   1     -51.214  25.105  33.405  0.00  0.00     0.006 A 
ATOM     10  C   UNL d   1     -51.114  24.285  33.306  0.00  0.00     0.000 C 
ATOM     11  C   UNL d   1     -51.971  25.444  33.309  0.00  0.00     0.019 A 
ATOM     12  C   UNL d   1     -52.080  26.263  33.406  0.00  0.00     0.083 A 
ATOM     13  N   UNL d   1     -51.437  26.738  33.598  0.00  0.00    -0.228 NA
ATOM     14  C   UNL d   1     -52.832  26.596  33.310  0.00  0.00     0.021 C 
BRANCH   8  15
ATOM     15  C   UNL d   1     -49.826  25.257  33.694  0.00  0.00     0.125 C 
ATOM     16  N   UNL d   1     -49.178  25.588  33.308  0.00  0.00    -0.146 N 
ENDBRANCH   8  15
ENDBRANCH   1   7
BRANCH   2  17
ATOM     17  C   UNL d   1     -48.526  28.846  34.098  0.00  0.00     0.080 C 
BRANCH  17  18
ATOM     18  C   UNL d   1     -48.233  29.064  34.837  0.00  0.00     0.018 A 
ATOM     19  C   UNL d   1     -48.595  28.784  35.519  0.00  0.00     0.002 A 
ATOM     20  C   UNL d   1     -48.300  29.003  36.258  0.00  0.00     0.000 A 
ATOM     21  C   UNL d   1     -47.649  29.498  36.305  0.00  0.00     0.000 A 
ATOM     22  C   UNL d   1     -47.283  29.781  35.621  0.00  0.00     0.000 A 
ATOM     23  C   UNL d   1     -47.581  29.559  34.883  0.00  0.00     0.002 A 
ENDBRANCH  17  18
ENDBRANCH   2  17
TORSDOF 4
ENDMDL
