MODEL 1
REMARK VINA RESULT:      76.3      0.000      0.000
REMARK  5 active torsions:
REMARK  status: ('A' for Active; 'I' for Inactive)
REMARK    1  A    between atoms: C_7  and  N_1 
REMARK    2  A    between atoms: C_2  and  C_6 
REMARK    3  A    between atoms: C_5  and  C_3 
REMARK    4  A    between atoms: N_8  and  C_5 
REMARK    5  A    between atoms: C_19  and  N_9 
ROOT
ATOM      1  C   UNL d   1     -56.014-100.189 -44.070  0.00  0.00     0.102 A 
ATOM      2  C   UNL d   1     -55.326-101.155 -43.444  0.00  0.00     0.126 A 
ATOM      3  O   UNL d   1     -56.045-100.976 -43.808  0.00  0.00    -0.305 OA
ATOM      4  C   UNL d   1     -55.267 -99.885 -43.862  0.00  0.00     0.027 A 
ATOM      5  C   UNL d   1     -54.851-100.481 -43.480  0.00  0.00     0.029 A 
ENDROOT
BRANCH   2   6
ATOM      6  C   UNL d   1     -55.104-101.910 -43.087  0.00  0.00     0.143 C 
ATOM      7  S   UNL d   1     -54.810-102.514 -43.564  0.00  0.00    -0.057 SA
BRANCH   6   8
ATOM      8  N   UNL d   1     -55.196-102.006 -42.252  0.00  0.00    -0.291 N 
ATOM      9  C   UNL d   1     -55.736-102.536 -41.936  0.00  0.00     0.100 A 
ATOM     10  C   UNL d   1     -55.804-102.609 -41.126  0.00  0.00     0.100 A 
ATOM     11  N   UNL d   1     -55.353-102.174 -40.615  0.00  0.00    -0.301 N 
ATOM     12  C   UNL d   1     -54.791-101.623 -40.918  0.00  0.00     0.100 A 
ATOM     13  C   UNL d   1     -54.714-101.541 -41.744  0.00  0.00     0.100 A 
BRANCH  11  14
ATOM     14  C   UNL d   1     -55.439-102.265 -39.794  0.00  0.00     0.064 A 
ATOM     15  C   UNL d   1     -56.159-102.137 -39.424  0.00  0.00     0.018 A 
ATOM     16  C   UNL d   1     -56.231-102.231 -38.609  0.00  0.00     0.002 A 
ATOM     17  C   UNL d   1     -55.568-102.456 -38.164  0.00  0.00     0.000 A 
ATOM     18  C   UNL d   1     -54.847-102.583 -38.534  0.00  0.00     0.002 A 
ATOM     19  C   UNL d   1     -54.790-102.486 -39.350  0.00  0.00     0.018 A 
ENDBRANCH  11  14
ENDBRANCH   6   8
ENDBRANCH   2   6
BRANCH   1  20
ATOM     20  C   UNL d   1     -56.566 -99.713 -44.467  0.00  0.00     0.045 A 
ATOM     21  C   UNL d   1     -56.358 -99.341 -45.180  0.00  0.00     0.129 A 
ATOM     22  C   UNL d   1     -56.907 -98.868 -45.575  0.00  0.00     0.024 A 
ATOM     23  C   UNL d   1     -57.674 -98.757 -45.267  0.00  0.00     0.002 A 
ATOM     24  C   UNL d   1     -57.870 -99.133 -44.556  0.00  0.00     0.000 A 
ATOM     25  C   UNL d   1     -57.321 -99.606 -44.161  0.00  0.00     0.004 A 
BRANCH  21  26
ATOM     26  N   UNL d   1     -55.614 -99.438 -45.496  0.00  0.00    -0.114 N 
ATOM     27  O   UNL d   1     -55.049 -98.824 -45.573  0.00  0.00    -0.532 OA
ATOM     28  O   UNL d   1     -55.324-100.156 -45.780  0.00  0.00    -0.532 OA
ENDBRANCH  21  26
ENDBRANCH   1  20
TORSDOF 5
ENDMDL
