MODEL 1
REMARK VINA RESULT:      50.4      0.000      0.000
REMARK  4 active torsions:
REMARK  status: ('A' for Active; 'I' for Inactive)
REMARK    1  A    between atoms: N_10  and  C_3 
REMARK    2  A    between atoms: C_11  and  C_5 
REMARK    3  A    between atoms: C_13  and  N_10 
REMARK    4  A    between atoms: C_15  and  C_13 
ROOT
ATOM      1  N   UNL d   1      46.271 -15.285  42.876  0.00  0.00    -0.195 N 
ATOM      2  C   UNL d   1      45.949 -14.730  43.417  0.00  0.00     0.167 A 
ATOM      3  C   UNL d   1      46.239 -16.093  43.050  0.00  0.00     0.167 A 
ATOM      4  N   UNL d   1      46.645 -14.223  42.011  0.00  0.00    -0.163 NA
ATOM      5  C   UNL d   1      45.980 -13.942  43.248  0.00  0.00     0.055 A 
ATOM      6  N   UNL d   1      45.606 -15.004  44.113  0.00  0.00    -0.227 NA
ATOM      7  C   UNL d   1      45.897 -16.347  43.741  0.00  0.00     0.054 A 
ATOM      8  C   UNL d   1      46.328 -13.678  42.544  0.00  0.00     0.104 A 
ATOM      9  C   UNL d   1      45.573 -15.799  44.288  0.00  0.00     0.086 A 
ATOM     10  C   UNL d   1      45.786 -17.086  44.058  0.00  0.00     0.005 A 
ATOM     11  C   UNL d   1      46.355 -12.877  42.380  0.00  0.00     0.023 C 
ATOM     12  C   UNL d   1      45.270 -16.214  44.926  0.00  0.00     0.019 A 
ATOM     13  C   UNL d   1      45.406 -17.020  44.778  0.00  0.00     0.002 A 
ENDROOT
BRANCH   3  14
ATOM     14  N   UNL d   1      46.563 -16.655  42.506  0.00  0.00    -0.224 NA
BRANCH  14  15
ATOM     15  C   UNL d   1      46.368 -17.086  41.805  0.00  0.00     0.120 C 
BRANCH  15  16
ATOM     16  C   UNL d   1      46.383 -17.920  41.810  0.00  0.00     0.101 A 
ATOM     17  N   UNL d   1      46.608 -18.342  41.110  0.00  0.00    -0.242 NA
ATOM     18  C   UNL d   1      46.624 -19.185  41.111  0.00  0.00     0.099 A 
ATOM     19  C   UNL d   1      46.416 -19.606  41.813  0.00  0.00     0.021 A 
ATOM     20  C   UNL d   1      46.191 -19.185  42.512  0.00  0.00     0.003 A 
ATOM     21  C   UNL d   1      46.177 -18.339  42.504  0.00  0.00     0.021 A 
ENDBRANCH  15  16
ENDBRANCH  14  15
ENDBRANCH   3  14
BRANCH   5  22
ATOM     22  C   UNL d   1      45.665 -13.399  43.777  0.00  0.00     0.004 A 
ATOM     23  C   UNL d   1      46.144 -13.034  44.329  0.00  0.00     0.000 A 
ATOM     24  C   UNL d   1      45.825 -12.485  44.865  0.00  0.00     0.000 A 
ATOM     25  C   UNL d   1      45.034 -12.313  44.838  0.00  0.00     0.000 A 
ATOM     26  C   UNL d   1      44.546 -12.679  44.282  0.00  0.00     0.000 A 
ATOM     27  C   UNL d   1      44.864 -13.219  43.756  0.00  0.00     0.000 A 
ENDBRANCH   5  22
TORSDOF 4
ENDMDL
