MODEL 1
REMARK VINA RESULT:      63.9      0.000      0.000
REMARK  6 active torsions:
REMARK  status: ('A' for Active; 'I' for Inactive)
REMARK    1  A    between atoms: C_6  and  N_1 
REMARK    2  A    between atoms: C_5  and  C_3 
REMARK    3  A    between atoms: C_9  and  C_4 
REMARK    4  A    between atoms: N_12  and  C_6 
REMARK    5  A    between atoms: O_21  and  C_8 
REMARK    6  A    between atoms: O_22  and  C_16 
ROOT
ATOM      1  N   UNL d   1     -51.085  26.373  33.721  0.00  0.00    -0.203 N 
ATOM      2  N   UNL d   1     -50.654  27.032  33.927  0.00  0.00    -0.163 NA
ATOM      3  C   UNL d   1     -50.587  25.706  33.770  0.00  0.00     0.089 A 
ATOM      4  C   UNL d   1     -49.903  26.816  34.105  0.00  0.00     0.103 A 
ATOM      5  C   UNL d   1     -49.843  25.990  34.011  0.00  0.00     0.040 A 
ENDROOT
BRANCH   3   6
ATOM      6  C   UNL d   1     -50.769  24.916  33.615  0.00  0.00     0.042 A 
ATOM      7  C   UNL d   1     -50.156  24.385  33.465  0.00  0.00     0.096 A 
ATOM      8  C   UNL d   1     -50.323  23.589  33.309  0.00  0.00     0.026 A 
ATOM      9  C   UNL d   1     -51.100  23.343  33.306  0.00  0.00     0.026 A 
ATOM     10  C   UNL d   1     -51.714  23.874  33.455  0.00  0.00     0.094 A 
ATOM     11  C   UNL d   1     -51.529  24.668  33.610  0.00  0.00     0.028 A 
BRANCH   7  12
ATOM     12  O   UNL d   1     -49.348  24.634  33.468  0.00  0.00    -0.328 OA
ATOM     13  C   UNL d   1     -48.766  24.136  33.760  0.00  0.00     0.181 C 
ENDBRANCH   7  12
BRANCH  10  14
ATOM     14  O   UNL d   1     -52.534  23.613  33.451  0.00  0.00    -0.328 OA
ATOM     15  C   UNL d   1     -53.042  23.839  34.050  0.00  0.00     0.181 C 
ENDBRANCH  10  14
ENDBRANCH   3   6
BRANCH   1  16
ATOM     16  C   UNL d   1     -51.893  26.368  33.499  0.00  0.00     0.222 C 
ATOM     17  S   UNL d   1     -52.257  25.640  33.311  0.00  0.00    -0.037 SA
BRANCH  16  18
ATOM     18  N   UNL d   1     -52.327  27.085  33.467  0.00  0.00    -0.214 NA
ATOM     19  C   UNL d   1     -53.160  27.079  33.392  0.00  0.00     0.122 C 
ENDBRANCH  16  18
ENDBRANCH   1  16
BRANCH   4  20
ATOM     20  C   UNL d   1     -49.318  27.339  34.334  0.00  0.00     0.019 A 
ATOM     21  C   UNL d   1     -48.728  27.546  33.825  0.00  0.00     0.002 A 
ATOM     22  C   UNL d   1     -48.137  28.072  34.051  0.00  0.00     0.000 A 
ATOM     23  C   UNL d   1     -48.162  28.390  34.826  0.00  0.00     0.000 A 
ATOM     24  C   UNL d   1     -48.769  28.174  35.342  0.00  0.00     0.000 A 
ATOM     25  C   UNL d   1     -47.581  28.920  35.074  0.00  0.00     0.000 C 
ATOM     26  C   UNL d   1     -49.344  27.653  35.100  0.00  0.00     0.002 A 
ENDBRANCH   4  20
TORSDOF 6
ENDMDL
