MODEL 1
REMARK VINA RESULT:      -8.6      0.000      0.000
REMARK  5 active torsions:
REMARK  status: ('A' for Active; 'I' for Inactive)
REMARK    1  A    between atoms: S_6  and  C_2 
REMARK    2  A    between atoms: C_8  and  C_4 
REMARK    3  A    between atoms: C_11  and  S_6 
REMARK    4  A    between atoms: C_7  and  C_11 
REMARK       I    between atoms: N_9  and  C_7 
REMARK    5  A    between atoms: C_15  and  N_9 
ROOT
ATOM      1  N   UNL d   1      53.801  32.577  54.167  0.00  0.00    -0.244 NA
ATOM      2  C   UNL d   1      53.154  32.604  53.651  0.00  0.00     0.125 A 
ATOM      3  N   UNL d   1      53.140  33.714  54.388  0.00  0.00    -0.250 NA
ATOM      4  C   UNL d   1      52.755  33.290  53.784  0.00  0.00     0.101 A 
ATOM      5  C   UNL d   1      53.857  33.255  54.671  0.00  0.00     0.168 A 
ATOM      6  C   UNL d   1      53.876  33.940  55.149  0.00  0.00     0.050 C 
ATOM      7  C   UNL d   1      54.444  32.671  54.762  0.00  0.00     0.050 C 
ENDROOT
BRANCH   2   8
ATOM      8  S   UNL d   1      52.950  32.023  53.090  0.00  0.00    -0.061 SA
BRANCH   8   9
ATOM      9  C   UNL d   1      53.086  31.227  53.254  0.00  0.00     0.099 C 
BRANCH   9  10
ATOM     10  C   UNL d   1      53.022  30.670  52.659  0.00  0.00     0.286 C 
ATOM     11  N   UNL d   1      52.993  29.875  52.841  0.00  0.00    -0.208 NA
ATOM     12  O   UNL d   1      52.988  30.915  51.878  0.00  0.00    -0.265 OA
BRANCH  11  13
ATOM     13  C   UNL d   1      53.028  29.632  53.613  0.00  0.00     0.085 A 
ATOM     14  C   UNL d   1      53.733  29.365  53.922  0.00  0.00     0.019 A 
ATOM     15  C   UNL d   1      53.781  29.114  54.709  0.00  0.00     0.002 A 
ATOM     16  C   UNL d   1      53.109  29.136  55.178  0.00  0.00     0.000 A 
ATOM     17  C   UNL d   1      52.395  29.405  54.871  0.00  0.00     0.002 A 
ATOM     18  C   UNL d   1      52.356  29.651  54.092  0.00  0.00     0.019 A 
ENDBRANCH  11  13
ENDBRANCH   9  10
ENDBRANCH   8   9
ENDBRANCH   2   8
BRANCH   4  19
ATOM     19  C   UNL d   1      52.074  33.576  53.413  0.00  0.00     0.019 A 
ATOM     20  C   UNL d   1      52.137  34.087  52.765  0.00  0.00     0.002 A 
ATOM     21  C   UNL d   1      51.466  34.369  52.400  0.00  0.00     0.011 A 
ATOM     22  C   UNL d   1      50.703  34.144  52.677  0.00  0.00     0.058 A 
ATOM     23  C   UNL d   1      50.649  33.650  53.303  0.00  0.00     0.011 A 
ATOM     24 CL   UNL d   1      50.015  34.434  52.301  0.00  0.00    -0.082 Cl
ATOM     25  C   UNL d   1      51.327  33.354  53.687  0.00  0.00     0.002 A 
ENDBRANCH   4  19
TORSDOF 5
ENDMDL
MODEL 2
REMARK VINA RESULT:      -6.7      1.489      2.530
REMARK  5 active torsions:
REMARK  status: ('A' for Active; 'I' for Inactive)
REMARK    1  A    between atoms: S_6  and  C_2 
REMARK    2  A    between atoms: C_8  and  C_4 
REMARK    3  A    between atoms: C_11  and  S_6 
REMARK    4  A    between atoms: C_7  and  C_11 
REMARK       I    between atoms: N_9  and  C_7 
REMARK    5  A    between atoms: C_15  and  N_9 
ROOT
ATOM      1  N   UNL d   1      51.775  32.648  53.065  0.00  0.00    -0.244 NA
ATOM      2  C   UNL d   1      52.564  32.538  53.289  0.00  0.00     0.125 A 
ATOM      3  N   UNL d   1      52.115  33.641  53.885  0.00  0.00    -0.250 NA
ATOM      4  C   UNL d   1      52.770  33.137  53.784  0.00  0.00     0.101 A 
ATOM      5  C   UNL d   1      51.420  33.336  53.408  0.00  0.00     0.168 A 
ATOM      6  C   UNL d   1      51.109  34.023  53.767  0.00  0.00     0.050 C 
ATOM      7  C   UNL d   1      50.939  32.877  52.905  0.00  0.00     0.050 C 
ENDROOT
BRANCH   2   8
ATOM      8  S   UNL d   1      53.060  31.915  53.046  0.00  0.00    -0.061 SA
BRANCH   8   9
ATOM      9  C   UNL d   1      52.823  31.133  53.151  0.00  0.00     0.099 C 
BRANCH   9  10
ATOM     10  C   UNL d   1      53.029  30.564  52.602  0.00  0.00     0.286 C 
ATOM     11  N   UNL d   1      53.158  29.793  52.836  0.00  0.00    -0.208 NA
ATOM     12  O   UNL d   1      53.106  30.774  51.814  0.00  0.00    -0.265 OA
BRANCH  11  13
ATOM     13  C   UNL d   1      53.081  29.586  53.616  0.00  0.00     0.085 A 
ATOM     14  C   UNL d   1      53.745  29.525  54.085  0.00  0.00     0.019 A 
ATOM     15  C   UNL d   1      53.680  29.314  54.882  0.00  0.00     0.002 A 
ATOM     16  C   UNL d   1      52.939  29.165  55.198  0.00  0.00     0.000 A 
ATOM     17  C   UNL d   1      52.266  29.225  54.728  0.00  0.00     0.002 A 
ATOM     18  C   UNL d   1      52.339  29.434  53.941  0.00  0.00     0.019 A 
ENDBRANCH  11  13
ENDBRANCH   9  10
ENDBRANCH   8   9
ENDBRANCH   2   8
BRANCH   4  19
ATOM     19  C   UNL d   1      53.493  33.278  54.158  0.00  0.00     0.019 A 
ATOM     20  C   UNL d   1      53.591  33.088  54.958  0.00  0.00     0.002 A 
ATOM     21  C   UNL d   1      54.304  33.227  55.327  0.00  0.00     0.011 A 
ATOM     22  C   UNL d   1      54.947  33.563  54.900  0.00  0.00     0.058 A 
ATOM     23  C   UNL d   1      54.846  33.744  54.128  0.00  0.00     0.011 A 
ATOM     24 CL   UNL d   1      55.678  33.706  55.279  0.00  0.00    -0.082 Cl
ATOM     25  C   UNL d   1      54.123  33.608  53.737  0.00  0.00     0.002 A 
ENDBRANCH   4  19
TORSDOF 5
ENDMDL
MODEL 3
REMARK VINA RESULT:      -6.5      1.929      4.239
REMARK  5 active torsions:
REMARK  status: ('A' for Active; 'I' for Inactive)
REMARK    1  A    between atoms: S_6  and  C_2 
REMARK    2  A    between atoms: C_8  and  C_4 
REMARK    3  A    between atoms: C_11  and  S_6 
REMARK    4  A    between atoms: C_7  and  C_11 
REMARK       I    between atoms: N_9  and  C_7 
REMARK    5  A    between atoms: C_15  and  N_9 
ROOT
ATOM      1  N   UNL d   1      52.905  31.880  52.765  0.00  0.00    -0.244 NA
ATOM      2  C   UNL d   1      53.283  32.532  53.108  0.00  0.00     0.125 A 
ATOM      3  N   UNL d   1      53.558  31.457  53.847  0.00  0.00    -0.250 NA
ATOM      4  C   UNL d   1      53.678  32.277  53.761  0.00  0.00     0.101 A 
ATOM      5  C   UNL d   1      53.035  31.156  53.183  0.00  0.00     0.168 A 
ATOM      6  C   UNL d   1      53.189  30.464  53.625  0.00  0.00     0.050 C 
ATOM      7  C   UNL d   1      52.556  31.114  52.502  0.00  0.00     0.050 C 
ENDROOT
BRANCH   2   8
ATOM      8  S   UNL d   1      53.261  33.315  52.828  0.00  0.00    -0.061 SA
BRANCH   8   9
ATOM      9  C   UNL d   1      52.538  33.672  52.659  0.00  0.00     0.099 C 
BRANCH   9  10
ATOM     10  C   UNL d   1      52.516  34.430  52.355  0.00  0.00     0.286 C 
ATOM     11  N   UNL d   1      51.807  34.830  52.296  0.00  0.00    -0.208 NA
ATOM     12  O   UNL d   1      53.211  34.787  52.109  0.00  0.00    -0.265 OA
BRANCH  11  13
ATOM     13  C   UNL d   1      51.119  34.478  52.540  0.00  0.00     0.085 A 
ATOM     14  C   UNL d   1      50.627  34.131  51.991  0.00  0.00     0.019 A 
ATOM     15  C   UNL d   1      49.921  33.768  52.227  0.00  0.00     0.002 A 
ATOM     16  C   UNL d   1      49.720  33.761  53.022  0.00  0.00     0.000 A 
ATOM     17  C   UNL d   1      50.214  34.111  53.579  0.00  0.00     0.002 A 
ATOM     18  C   UNL d   1      50.910  34.467  53.337  0.00  0.00     0.019 A 
ENDBRANCH  11  13
ENDBRANCH   9  10
ENDBRANCH   8   9
ENDBRANCH   2   8
BRANCH   4  19
ATOM     19  C   UNL d   1      54.139  32.710  54.292  0.00  0.00     0.019 A 
ATOM     20  C   UNL d   1      53.853  32.876  55.052  0.00  0.00     0.002 A 
ATOM     21  C   UNL d   1      54.307  33.303  55.576  0.00  0.00     0.011 A 
ATOM     22  C   UNL d   1      55.070  33.580  55.352  0.00  0.00     0.058 A 
ATOM     23  C   UNL d   1      55.340  33.417  54.618  0.00  0.00     0.011 A 
ATOM     24 CL   UNL d   1      55.535  34.018  55.890  0.00  0.00    -0.082 Cl
ATOM     25  C   UNL d   1      54.887  32.981  54.070  0.00  0.00     0.002 A 
ENDBRANCH   4  19
TORSDOF 5
ENDMDL
MODEL 4
REMARK VINA RESULT:      -5.7      1.309      3.246
REMARK  5 active torsions:
REMARK  status: ('A' for Active; 'I' for Inactive)
REMARK    1  A    between atoms: S_6  and  C_2 
REMARK    2  A    between atoms: C_8  and  C_4 
REMARK    3  A    between atoms: C_11  and  S_6 
REMARK    4  A    between atoms: C_7  and  C_11 
REMARK       I    between atoms: N_9  and  C_7 
REMARK    5  A    between atoms: C_15  and  N_9 
ROOT
ATOM      1  N   UNL d   1      53.341  31.024  53.212  0.00  0.00    -0.244 NA
ATOM      2  C   UNL d   1      53.150  31.823  53.102  0.00  0.00     0.125 A 
ATOM      3  N   UNL d   1      52.013  31.131  53.169  0.00  0.00    -0.250 NA
ATOM      4  C   UNL d   1      52.348  31.887  53.077  0.00  0.00     0.101 A 
ATOM      5  C   UNL d   1      52.663  30.520  53.263  0.00  0.00     0.168 A 
ATOM      6  C   UNL d   1      51.968  30.058  53.309  0.00  0.00     0.050 C 
ATOM      7  C   UNL d   1      53.409  30.153  53.328  0.00  0.00     0.050 C 
ENDROOT
BRANCH   2   8
ATOM      8  S   UNL d   1      53.691  32.451  53.032  0.00  0.00    -0.061 SA
BRANCH   8   9
ATOM      9  C   UNL d   1      54.213  32.617  53.648  0.00  0.00     0.099 C 
BRANCH   9  10
ATOM     10  C   UNL d   1      54.935  32.965  53.490  0.00  0.00     0.286 C 
ATOM     11  N   UNL d   1      55.239  33.531  53.994  0.00  0.00    -0.208 NA
ATOM     12  O   UNL d   1      55.354  32.741  52.822  0.00  0.00    -0.265 OA
BRANCH  11  13
ATOM     13  C   UNL d   1      54.825  33.753  54.655  0.00  0.00     0.085 A 
ATOM     14  C   UNL d   1      54.357  34.420  54.633  0.00  0.00     0.019 A 
ATOM     15  C   UNL d   1      53.930  34.656  55.302  0.00  0.00     0.002 A 
ATOM     16  C   UNL d   1      53.981  34.212  55.988  0.00  0.00     0.000 A 
ATOM     17  C   UNL d   1      54.452  33.537  56.014  0.00  0.00     0.002 A 
ATOM     18  C   UNL d   1      54.871  33.310  55.349  0.00  0.00     0.019 A 
ENDBRANCH  11  13
ENDBRANCH   9  10
ENDBRANCH   8   9
ENDBRANCH   2   8
BRANCH   4  19
ATOM     19  C   UNL d   1      51.884  32.563  52.978  0.00  0.00     0.019 A 
ATOM     20  C   UNL d   1      51.356  32.795  53.572  0.00  0.00     0.002 A 
ATOM     21  C   UNL d   1      50.898  33.461  53.475  0.00  0.00     0.011 A 
ATOM     22  C   UNL d   1      50.956  33.921  52.771  0.00  0.00     0.058 A 
ATOM     23  C   UNL d   1      51.468  33.692  52.201  0.00  0.00     0.011 A 
ATOM     24 CL   UNL d   1      50.486  34.604  52.672  0.00  0.00    -0.082 Cl
ATOM     25  C   UNL d   1      51.943  33.012  52.286  0.00  0.00     0.002 A 
ENDBRANCH   4  19
TORSDOF 5
ENDMDL
