MODEL 1
REMARK VINA RESULT:      20.7      0.000      0.000
REMARK  5 active torsions:
REMARK  status: ('A' for Active; 'I' for Inactive)
REMARK    1  A    between atoms: N_2  and  C_1 
REMARK    2  A    between atoms: C_6  and  C_1 
REMARK    3  A    between atoms: O_4  and  N_2 
REMARK    4  A    between atoms: C_3  and  O_4 
REMARK    5  A    between atoms: C_5  and  C_3 
ROOT
ATOM      1  O   UNL d   1      13.853  12.134  -2.564  0.00  0.00    -0.168 OA
ENDROOT
BRANCH   1   2
ATOM      2  C   UNL d   1      13.751  12.087  -1.661  0.00  0.00     0.319 C 
ATOM      3  O   UNL d   1      12.988  11.780  -1.302  0.00  0.00    -0.257 OA
BRANCH   2   4
ATOM      4  C   UNL d   1      14.368  12.330  -1.164  0.00  0.00     0.066 A 
ATOM      5  C   UNL d   1      14.368  13.110  -0.876  0.00  0.00     0.012 A 
ATOM      6  C   UNL d   1      14.992  13.343  -0.378  0.00  0.00     0.035 A 
ATOM      7 BR   UNL d   1      14.991  14.121  -0.092  0.00  0.00    -0.049 Br
ATOM      8  C   UNL d   1      15.594  12.821  -0.172  0.00  0.00     0.007 A 
ATOM      9  C   UNL d   1      15.564  12.055  -0.474  0.00  0.00     0.001 A 
ATOM     10  C   UNL d   1      14.968  11.810  -0.958  0.00  0.00     0.005 A 
ENDBRANCH   2   4
ENDBRANCH   1   2
BRANCH   1  11
ATOM     11  N   UNL d   1      13.208  12.124  -3.061  0.00  0.00    -0.100 NA
BRANCH  11  12
ATOM     12  C   UNL d   1      13.267  12.355  -3.846  0.00  0.00     0.228 C 
ATOM     13  N   UNL d   1      13.267  11.779  -4.434  0.00  0.00    -0.123 N 
BRANCH  12  14
ATOM     14  C   UNL d   1      13.326  13.142  -4.057  0.00  0.00     0.121 A 
ATOM     15  N   UNL d   1      12.773  13.680  -3.798  0.00  0.00    -0.241 NA
ATOM     16  C   UNL d   1      12.839  14.481  -4.018  0.00  0.00     0.099 A 
ATOM     17  C   UNL d   1      13.467  14.724  -4.497  0.00  0.00     0.021 A 
ATOM     18  C   UNL d   1      14.029  14.174  -4.759  0.00  0.00     0.003 A 
ATOM     19  C   UNL d   1      13.954  13.384  -4.536  0.00  0.00     0.022 A 
ENDBRANCH  12  14
ENDBRANCH  11  12
ENDBRANCH   1  11
TORSDOF 5
ENDMDL
