MODEL 1
REMARK VINA RESULT:      54.3      0.000      0.000
REMARK  3 active torsions:
REMARK  status: ('A' for Active; 'I' for Inactive)
REMARK    1  A    between atoms: N_7  and  C_4 
REMARK    2  A    between atoms: N_9  and  N_7 
REMARK       I    between atoms: C_8  and  N_9 
REMARK    3  A    between atoms: C_10  and  C_8 
ROOT
ATOM      1  N   UNL d   1     -50.214  27.236  33.320  0.00  0.00    -0.127 NA
ENDROOT
BRANCH   1   2
ATOM      2  C   UNL d   1     -50.425  26.434  33.317  0.00  0.00     0.178 A 
ATOM      3  N   UNL d   1     -51.218  26.214  33.317  0.00  0.00    -0.240 N 
ATOM      4  C   UNL d   1     -51.426  25.422  33.313  0.00  0.00     0.343 A 
ATOM      5  C   UNL d   1     -51.805  26.796  33.320  0.00  0.00     0.105 C 
ATOM      6  N   UNL d   1     -50.838  24.840  33.309  0.00  0.00    -0.224 N 
ATOM      7  O   UNL d   1     -52.225  25.203  33.313  0.00  0.00    -0.245 OA
ATOM      8  C   UNL d   1     -50.036  25.045  33.309  0.00  0.00     0.271 A 
ATOM      9  C   UNL d   1     -51.050  24.039  33.306  0.00  0.00     0.107 C 
ATOM     10  C   UNL d   1     -49.837  25.852  33.313  0.00  0.00     0.101 A 
ATOM     11  O   UNL d   1     -49.455  24.470  33.306  0.00  0.00    -0.266 OA
ENDBRANCH   1   2
BRANCH   1  12
ATOM     12  N   UNL d   1     -49.632  27.506  33.839  0.00  0.00    -0.104 NA
ATOM     13  C   UNL d   1     -49.506  28.317  33.928  0.00  0.00     0.297 C 
ATOM     14  O   UNL d   1     -49.962  28.856  33.499  0.00  0.00    -0.264 OA
BRANCH  13  15
ATOM     15  C   UNL d   1     -48.924  28.587  34.447  0.00  0.00     0.059 A 
ATOM     16  C   UNL d   1     -48.712  29.381  34.442  0.00  0.00     0.005 A 
ATOM     17  C   UNL d   1     -48.133  29.657  34.955  0.00  0.00     0.000 A 
ATOM     18  C   UNL d   1     -47.921  30.456  34.949  0.00  0.00     0.000 C 
ATOM     19  C   UNL d   1     -47.760  29.128  35.483  0.00  0.00     0.000 A 
ATOM     20  C   UNL d   1     -47.975  28.332  35.486  0.00  0.00     0.000 A 
ATOM     21  C   UNL d   1     -47.184  29.408  35.993  0.00  0.00     0.000 C 
ATOM     22  C   UNL d   1     -48.560  28.067  34.963  0.00  0.00     0.005 A 
ENDBRANCH  13  15
ENDBRANCH   1  12
TORSDOF 3
ENDMDL
