MODEL 1
REMARK VINA RESULT:      69.0      0.000      0.000
REMARK  5 active torsions:
REMARK  status: ('A' for Active; 'I' for Inactive)
REMARK    1  A    between atoms: C_20  and  N_1 
REMARK       I    between atoms: C_6  and  N_7 
REMARK    2  A    between atoms: C_10  and  C_6 
REMARK    3  A    between atoms: N_7  and  C_8 
REMARK    4  A    between atoms: O_22  and  C_13 
REMARK    5  A    between atoms: O_23  and  C_16 
ROOT
ATOM      1  N   UNL d   1      14.230  13.119  -2.368  0.00  0.00    -0.273 N 
ATOM      2  C   UNL d   1      13.668  12.542  -3.008  0.00  0.00     0.265 A 
ATOM      3  C   UNL d   1      14.239  13.894  -2.789  0.00  0.00     0.067 A 
ATOM      4  C   UNL d   1      13.835  13.852  -3.458  0.00  0.00     0.022 A 
ATOM      5  C   UNL d   1      13.479  13.135  -3.666  0.00  0.00     0.058 A 
ATOM      6  C   UNL d   1      14.110  15.201  -3.747  0.00  0.00     0.085 A 
ATOM      7  C   UNL d   1      13.770  14.500  -3.936  0.00  0.00     0.019 A 
ATOM      8  C   UNL d   1      14.608  14.637  -2.574  0.00  0.00     0.019 A 
ATOM      9  O   UNL d   1      13.483  11.780  -2.897  0.00  0.00    -0.267 OA
ATOM     10  C   UNL d   1      14.536  15.254  -3.044  0.00  0.00     0.021 A 
ATOM     11  C   UNL d   1      13.063  13.089  -4.356  0.00  0.00     0.005 A 
ATOM     12  C   UNL d   1      13.340  14.457  -4.650  0.00  0.00     0.002 A 
ATOM     13  C   UNL d   1      12.989  13.750  -4.854  0.00  0.00     0.000 A 
ENDROOT
BRANCH   6  14
ATOM     14  N   UNL d   1      14.045  15.877  -4.238  0.00  0.00    -0.208 NA
ATOM     15  C   UNL d   1      14.613  16.458  -4.168  0.00  0.00     0.279 C 
ATOM     16  O   UNL d   1      15.219  16.396  -3.647  0.00  0.00    -0.265 OA
BRANCH  15  17
ATOM     17  C   UNL d   1      14.559  17.103  -4.630  0.00  0.00     0.060 A 
ATOM     18  C   UNL d   1      13.955  17.124  -5.107  0.00  0.00     0.031 A 
ATOM     19  C   UNL d   1      13.871  17.835  -5.636  0.00  0.00     0.116 A 
ATOM     20  C   UNL d   1      14.440  18.441  -5.595  0.00  0.00     0.116 A 
ATOM     21  C   UNL d   1      15.064  18.380  -5.075  0.00  0.00     0.026 A 
ATOM     22  C   UNL d   1      15.125  17.702  -4.586  0.00  0.00     0.007 A 
BRANCH  19  23
ATOM     23  O   UNL d   1      13.271  17.907  -6.145  0.00  0.00    -0.326 OA
ATOM     24  C   UNL d   1      13.034  18.652  -6.387  0.00  0.00     0.181 C 
ENDBRANCH  19  23
BRANCH  20  25
ATOM     25  O   UNL d   1      14.376  19.115  -6.084  0.00  0.00    -0.326 OA
ATOM     26  C   UNL d   1      14.805  19.798  -5.900  0.00  0.00     0.181 C 
ENDBRANCH  20  25
ENDBRANCH  15  17
ENDBRANCH   6  14
BRANCH   1  27
ATOM     27  C   UNL d   1      14.742  13.247  -1.561  0.00  0.00     0.083 C 
ATOM     28  C   UNL d   1      14.966  12.607  -1.122  0.00  0.00     0.021 C 
ENDBRANCH   1  27
TORSDOF 5
ENDMDL
MODEL 2
REMARK VINA RESULT:      70.1      1.163      2.103
REMARK  5 active torsions:
REMARK  status: ('A' for Active; 'I' for Inactive)
REMARK    1  A    between atoms: C_20  and  N_1 
REMARK       I    between atoms: C_6  and  N_7 
REMARK    2  A    between atoms: C_10  and  C_6 
REMARK    3  A    between atoms: N_7  and  C_8 
REMARK    4  A    between atoms: O_22  and  C_13 
REMARK    5  A    between atoms: O_23  and  C_16 
ROOT
ATOM      1  N   UNL d   1      13.604  13.779  -3.975  0.00  0.00    -0.273 N 
ATOM      2  C   UNL d   1      13.979  13.854  -3.020  0.00  0.00     0.265 A 
ATOM      3  C   UNL d   1      13.738  14.594  -4.284  0.00  0.00     0.067 A 
ATOM      4  C   UNL d   1      14.076  15.045  -3.740  0.00  0.00     0.022 A 
ATOM      5  C   UNL d   1      14.249  14.718  -3.000  0.00  0.00     0.058 A 
ATOM      6  C   UNL d   1      14.089  16.146  -4.615  0.00  0.00     0.085 A 
ATOM      7  C   UNL d   1      14.251  15.817  -3.903  0.00  0.00     0.019 A 
ATOM      8  C   UNL d   1      13.559  14.933  -5.050  0.00  0.00     0.019 A 
ATOM      9  O   UNL d   1      13.998  13.269  -2.486  0.00  0.00    -0.267 OA
ATOM     10  C   UNL d   1      13.733  15.679  -5.193  0.00  0.00     0.021 A 
ATOM     11  C   UNL d   1      14.598  15.181  -2.438  0.00  0.00     0.005 A 
ATOM     12  C   UNL d   1      14.611  16.299  -3.324  0.00  0.00     0.002 A 
ATOM     13  C   UNL d   1      14.782  15.976  -2.596  0.00  0.00     0.000 A 
ENDROOT
BRANCH   6  14
ATOM     14  N   UNL d   1      14.268  16.946  -4.790  0.00  0.00    -0.208 NA
ATOM     15  C   UNL d   1      14.038  17.242  -5.514  0.00  0.00     0.279 C 
ATOM     16  O   UNL d   1      13.651  16.790  -6.052  0.00  0.00    -0.265 OA
BRANCH  15  17
ATOM     17  C   UNL d   1      14.204  17.999  -5.688  0.00  0.00     0.060 A 
ATOM     18  C   UNL d   1      13.610  18.426  -5.931  0.00  0.00     0.031 A 
ATOM     19  C   UNL d   1      13.768  19.278  -6.133  0.00  0.00     0.116 A 
ATOM     20  C   UNL d   1      14.541  19.578  -6.053  0.00  0.00     0.116 A 
ATOM     21  C   UNL d   1      15.141  19.093  -5.792  0.00  0.00     0.026 A 
ATOM     22  C   UNL d   1      14.971  18.293  -5.607  0.00  0.00     0.007 A 
BRANCH  19  23
ATOM     23  O   UNL d   1      13.195  19.759  -6.387  0.00  0.00    -0.326 OA
ATOM     24  C   UNL d   1      12.799  20.234  -5.851  0.00  0.00     0.181 C 
ENDBRANCH  19  23
BRANCH  20  25
ATOM     25  O   UNL d   1      14.706  20.375  -6.238  0.00  0.00    -0.326 OA
ATOM     26  C   UNL d   1      15.317  20.770  -5.844  0.00  0.00     0.181 C 
ENDBRANCH  20  25
ENDBRANCH  15  17
ENDBRANCH   6  14
BRANCH   1  27
ATOM     27  C   UNL d   1      13.189  13.286  -4.693  0.00  0.00     0.083 C 
ATOM     28  C   UNL d   1      12.902  12.544  -4.557  0.00  0.00     0.021 C 
ENDBRANCH   1  27
TORSDOF 5
ENDMDL
MODEL 3
REMARK VINA RESULT:      71.2      1.193      5.192
REMARK  5 active torsions:
REMARK  status: ('A' for Active; 'I' for Inactive)
REMARK    1  A    between atoms: C_20  and  N_1 
REMARK       I    between atoms: C_6  and  N_7 
REMARK    2  A    between atoms: C_10  and  C_6 
REMARK    3  A    between atoms: N_7  and  C_8 
REMARK    4  A    between atoms: O_22  and  C_13 
REMARK    5  A    between atoms: O_23  and  C_16 
ROOT
ATOM      1  N   UNL d   1      14.435  17.343  -4.915  0.00  0.00    -0.273 N 
ATOM      2  C   UNL d   1      13.861  16.866  -5.623  0.00  0.00     0.265 A 
ATOM      3  C   UNL d   1      14.474  16.734  -4.278  0.00  0.00     0.067 A 
ATOM      4  C   UNL d   1      14.076  16.092  -4.482  0.00  0.00     0.022 A 
ATOM      5  C   UNL d   1      13.698  16.072  -5.218  0.00  0.00     0.058 A 
ATOM      6  C   UNL d   1      14.397  15.467  -3.264  0.00  0.00     0.085 A 
ATOM      7  C   UNL d   1      14.037  15.461  -3.979  0.00  0.00     0.019 A 
ATOM      8  C   UNL d   1      14.865  16.755  -3.516  0.00  0.00     0.019 A 
ATOM      9  O   UNL d   1      13.649  17.168  -6.324  0.00  0.00    -0.267 OA
ATOM     10  C   UNL d   1      14.819  16.139  -3.041  0.00  0.00     0.021 A 
ATOM     11  C   UNL d   1      13.287  15.411  -5.430  0.00  0.00     0.005 A 
ATOM     12  C   UNL d   1      13.612  14.775  -4.196  0.00  0.00     0.002 A 
ATOM     13  C   UNL d   1      13.241  14.756  -4.921  0.00  0.00     0.000 A 
ENDROOT
BRANCH   6  14
ATOM     14  N   UNL d   1      14.360  14.815  -2.738  0.00  0.00    -0.208 NA
ATOM     15  C   UNL d   1      14.844  14.822  -2.082  0.00  0.00     0.279 C 
ATOM     16  O   UNL d   1      15.345  15.431  -1.934  0.00  0.00    -0.265 OA
BRANCH  15  17
ATOM     17  C   UNL d   1      14.815  14.209  -1.578  0.00  0.00     0.060 A 
ATOM     18  C   UNL d   1      14.697  13.518  -1.898  0.00  0.00     0.031 A 
ATOM     19  C   UNL d   1      14.660  12.813  -1.356  0.00  0.00     0.116 A 
ATOM     20  C   UNL d   1      14.754  12.925  -0.536  0.00  0.00     0.116 A 
ATOM     21  C   UNL d   1      14.878  13.673  -0.239  0.00  0.00     0.026 A 
ATOM     22  C   UNL d   1      14.909  14.324  -0.766  0.00  0.00     0.007 A 
BRANCH  19  23
ATOM     23  O   UNL d   1      14.540  12.082  -1.631  0.00  0.00    -0.326 OA
ATOM     24  C   UNL d   1      13.784  11.847  -1.839  0.00  0.00     0.181 C 
ENDBRANCH  19  23
BRANCH  20  25
ATOM     25  O   UNL d   1      14.722  12.274  -0.014  0.00  0.00    -0.326 OA
ATOM     26  C   UNL d   1      14.059  11.779  -0.014  0.00  0.00     0.181 C 
ENDBRANCH  20  25
ENDBRANCH  15  17
ENDBRANCH   6  14
BRANCH   1  27
ATOM     27  C   UNL d   1      14.943  18.098  -4.596  0.00  0.00     0.083 C 
ATOM     28  C   UNL d   1      14.965  18.779  -5.029  0.00  0.00     0.021 C 
ENDBRANCH   1  27
TORSDOF 5
ENDMDL
