MODEL 1
REMARK VINA RESULT:      -3.7      0.000      0.000
REMARK  1 active torsions:
REMARK  status: ('A' for Active; 'I' for Inactive)
REMARK    1  A    between atoms: C_2  and  N_1 
ROOT
ATOM      1  C   UNL d   1     -41.626-123.255 -51.491  0.00  0.00     0.129 A 
ATOM      2  C   UNL d   1     -41.459-122.447 -51.524  0.00  0.00     0.043 A 
ATOM      3  C   UNL d   1     -41.290-122.090 -52.253  0.00  0.00     0.123 A 
ATOM      4  C   UNL d   1     -41.290-122.545 -52.942  0.00  0.00     0.224 A 
ATOM      5  C   UNL d   1     -41.624-123.701 -52.177  0.00  0.00     0.038 A 
ATOM      6  C   UNL d   1     -41.456-123.344 -52.905  0.00  0.00     0.100 A 
ATOM      7  N   UNL d   1     -41.124-121.287 -52.288  0.00  0.00    -0.241 NA
ATOM      8  O   UNL d   1     -41.123-122.191 -53.664  0.00  0.00    -0.284 OA
ATOM      9 CL   UNL d   1     -41.455-123.794 -53.592  0.00  0.00    -0.079 Cl
ATOM     10  C   UNL d   1     -41.460-121.998 -50.837  0.00  0.00     0.005 A 
ATOM     11  C   UNL d   1     -41.123-120.830 -51.597  0.00  0.00     0.099 A 
ATOM     12  C   UNL d   1     -41.292-121.186 -50.868  0.00  0.00     0.021 A 
ENDROOT
BRANCH   1  13
ATOM     13  N   UNL d   1     -41.793-123.608 -50.770  0.00  0.00    -0.114 N 
ATOM     14  O   UNL d   1     -42.571-123.781 -50.563  0.00  0.00    -0.532 OA
ATOM     15  O   UNL d   1     -41.183-123.791 -50.251  0.00  0.00    -0.532 OA
ENDBRANCH   1  13
TORSDOF 1
ENDMDL
MODEL 2
REMARK VINA RESULT:      -2.1      1.377      2.086
REMARK  1 active torsions:
REMARK  status: ('A' for Active; 'I' for Inactive)
REMARK    1  A    between atoms: C_2  and  N_1 
ROOT
ATOM      1  C   UNL d   1     -41.483-121.702 -52.021  0.00  0.00     0.129 A 
ATOM      2  C   UNL d   1     -41.366-122.405 -51.604  0.00  0.00     0.043 A 
ATOM      3  C   UNL d   1     -41.251-123.115 -52.017  0.00  0.00     0.123 A 
ATOM      4  C   UNL d   1     -41.254-123.114 -52.842  0.00  0.00     0.224 A 
ATOM      5  C   UNL d   1     -41.484-121.707 -52.839  0.00  0.00     0.038 A 
ATOM      6  C   UNL d   1     -41.369-122.416 -53.251  0.00  0.00     0.100 A 
ATOM      7  N   UNL d   1     -41.136-123.815 -51.604  0.00  0.00    -0.241 NA
ATOM      8  O   UNL d   1     -41.140-123.817 -53.251  0.00  0.00    -0.284 OA
ATOM      9 CL   UNL d   1     -41.371-122.418 -54.072  0.00  0.00    -0.079 Cl
ATOM     10  C   UNL d   1     -41.365-122.402 -50.783  0.00  0.00     0.005 A 
ATOM     11  C   UNL d   1     -41.133-123.817 -50.776  0.00  0.00     0.099 A 
ATOM     12  C   UNL d   1     -41.248-123.107 -50.363  0.00  0.00     0.021 A 
ENDROOT
BRANCH   1  13
ATOM     13  N   UNL d   1     -41.597-121.000 -51.613  0.00  0.00    -0.114 N 
ATOM     14  O   UNL d   1     -42.185-120.943 -51.040  0.00  0.00    -0.532 OA
ATOM     15  O   UNL d   1     -41.123-120.348 -51.775  0.00  0.00    -0.532 OA
ENDBRANCH   1  13
TORSDOF 1
ENDMDL
MODEL 3
REMARK VINA RESULT:      -1.8      2.600      3.543
REMARK  1 active torsions:
REMARK  status: ('A' for Active; 'I' for Inactive)
REMARK    1  A    between atoms: C_2  and  N_1 
ROOT
ATOM      1  C   UNL d   1     -43.019-122.815 -49.616  0.00  0.00     0.129 A 
ATOM      2  C   UNL d   1     -42.389-123.148 -50.032  0.00  0.00     0.043 A 
ATOM      3  C   UNL d   1     -41.752-123.483 -49.620  0.00  0.00     0.123 A 
ATOM      4  C   UNL d   1     -41.753-123.482 -48.795  0.00  0.00     0.224 A 
ATOM      5  C   UNL d   1     -43.015-122.817 -48.798  0.00  0.00     0.038 A 
ATOM      6  C   UNL d   1     -42.378-123.151 -48.386  0.00  0.00     0.100 A 
ATOM      7  N   UNL d   1     -41.125-123.815 -50.032  0.00  0.00    -0.241 NA
ATOM      8  O   UNL d   1     -41.123-123.813 -48.386  0.00  0.00    -0.284 OA
ATOM      9 CL   UNL d   1     -42.376-123.151 -47.565  0.00  0.00    -0.079 Cl
ATOM     10  C   UNL d   1     -42.391-123.148 -50.854  0.00  0.00     0.005 A 
ATOM     11  C   UNL d   1     -41.123-123.817 -50.861  0.00  0.00     0.099 A 
ATOM     12  C   UNL d   1     -41.759-123.482 -51.274  0.00  0.00     0.021 A 
ENDROOT
BRANCH   1  13
ATOM     13  N   UNL d   1     -43.648-122.484 -50.024  0.00  0.00    -0.114 N 
ATOM     14  O   UNL d   1     -44.375-122.870 -50.050  0.00  0.00    -0.532 OA
ATOM     15  O   UNL d   1     -43.556-121.765 -50.409  0.00  0.00    -0.532 OA
ENDBRANCH   1  13
TORSDOF 1
ENDMDL
MODEL 4
REMARK VINA RESULT:      -1.0      2.194      3.104
REMARK  1 active torsions:
REMARK  status: ('A' for Active; 'I' for Inactive)
REMARK    1  A    between atoms: C_2  and  N_1 
ROOT
ATOM      1  C   UNL d   1     -41.923-121.863 -53.512  0.00  0.00     0.129 A 
ATOM      2  C   UNL d   1     -41.698-122.511 -53.972  0.00  0.00     0.043 A 
ATOM      3  C   UNL d   1     -41.824-122.500 -54.791  0.00  0.00     0.123 A 
ATOM      4  C   UNL d   1     -42.174-121.841 -55.143  0.00  0.00     0.224 A 
ATOM      5  C   UNL d   1     -42.270-121.213 -53.866  0.00  0.00     0.038 A 
ATOM      6  C   UNL d   1     -42.396-121.201 -54.685  0.00  0.00     0.100 A 
ATOM      7  N   UNL d   1     -41.600-123.143 -55.249  0.00  0.00    -0.241 NA
ATOM      8  O   UNL d   1     -42.298-121.830 -55.955  0.00  0.00    -0.284 OA
ATOM      9 CL   UNL d   1     -42.744-120.547 -55.038  0.00  0.00    -0.079 Cl
ATOM     10  C   UNL d   1     -41.350-123.166 -53.618  0.00  0.00     0.005 A 
ATOM     11  C   UNL d   1     -41.249-123.806 -54.897  0.00  0.00     0.099 A 
ATOM     12  C   UNL d   1     -41.123-123.817 -54.078  0.00  0.00     0.021 A 
ENDROOT
BRANCH   1  13
ATOM     13  N   UNL d   1     -41.799-121.874 -52.702  0.00  0.00    -0.114 N 
ATOM     14  O   UNL d   1     -42.322-122.274 -52.207  0.00  0.00    -0.532 OA
ATOM     15  O   UNL d   1     -41.151-121.486 -52.380  0.00  0.00    -0.532 OA
ENDBRANCH   1  13
TORSDOF 1
ENDMDL
