MODEL 1
REMARK VINA RESULT:      -5.5      0.000      0.000
REMARK  7 active torsions:
REMARK  status: ('A' for Active; 'I' for Inactive)
REMARK    1  A    between atoms: C_3  and  C_1 
REMARK    2  A    between atoms: C_4  and  C_1 
REMARK    3  A    between atoms: C_2  and  C_5 
REMARK    4  A    between atoms: O_14  and  C_2 
REMARK    5  A    between atoms: C_6  and  C_3 
REMARK    6  A    between atoms: C_13  and  C_4 
REMARK    7  A    between atoms: O_20  and  C_15 
ROOT
ATOM      1  C   UNL d   1     -40.010  14.632  19.478  0.00  0.00     0.042 C 
ENDROOT
BRANCH   1   2
ATOM      2  C   UNL d   1     -40.423  14.554  20.189  0.00  0.00     0.196 C 
ATOM      3  O   UNL d   1     -41.167  14.199  20.204  0.00  0.00    -0.287 OA
BRANCH   2   4
ATOM      4  C   UNL d   1     -40.085  14.833  20.885  0.00  0.00     0.039 A 
ATOM      5  C   UNL d   1     -40.126  15.643  21.071  0.00  0.00     0.005 A 
ATOM      6  C   UNL d   1     -39.786  15.922  21.771  0.00  0.00     0.024 A 
ATOM      7  C   UNL d   1     -39.408  15.392  22.280  0.00  0.00     0.094 A 
ATOM      8  C   UNL d   1     -39.368  14.590  22.095  0.00  0.00     0.024 A 
ATOM      9  C   UNL d   1     -39.705  14.310  21.399  0.00  0.00     0.005 A 
BRANCH   7  10
ATOM     10  O   UNL d   1     -39.071  15.672  22.975  0.00  0.00    -0.328 OA
ATOM     11  C   UNL d   1     -38.274  15.903  22.988  0.00  0.00     0.181 C 
ENDBRANCH   7  10
ENDBRANCH   2   4
ENDBRANCH   1   2
BRANCH   1  12
ATOM     12  C   UNL d   1     -40.282  14.239  18.800  0.00  0.00     0.003 C 
BRANCH  12  13
ATOM     13  C   UNL d   1     -39.845  14.267  18.103  0.00  0.00     0.000 A 
ATOM     14  C   UNL d   1     -39.220  13.753  18.000  0.00  0.00     0.000 A 
ATOM     15  C   UNL d   1     -38.778  13.776  17.303  0.00  0.00     0.005 A 
ATOM     16  C   UNL d   1     -38.972  14.325  16.707  0.00  0.00     0.063 A 
ATOM     17  C   UNL d   1     -39.605  14.840  16.819  0.00  0.00     0.005 A 
ATOM     18  C   UNL d   1     -40.041  14.812  17.515  0.00  0.00     0.000 A 
BRANCH  16  19
ATOM     19  C   UNL d   1     -38.536  14.353  16.010  0.00  0.00     0.296 C 
ATOM     20  O   UNL d   1     -38.216  15.067  15.752  0.00  0.00    -0.259 OA
BRANCH  19  21
ATOM     21  O   UNL d   1     -38.419  13.667  15.572  0.00  0.00    -0.296 OA
ATOM     22  C   UNL d   1     -37.940  13.674  14.901  0.00  0.00     0.185 C 
ENDBRANCH  19  21
ENDBRANCH  16  19
ENDBRANCH  12  13
ENDBRANCH   1  12
TORSDOF 7
ENDMDL
MODEL 2
REMARK VINA RESULT:      -5.4      7.864      9.730
REMARK  7 active torsions:
REMARK  status: ('A' for Active; 'I' for Inactive)
REMARK    1  A    between atoms: C_3  and  C_1 
REMARK    2  A    between atoms: C_4  and  C_1 
REMARK    3  A    between atoms: C_2  and  C_5 
REMARK    4  A    between atoms: O_14  and  C_2 
REMARK    5  A    between atoms: C_6  and  C_3 
REMARK    6  A    between atoms: C_13  and  C_4 
REMARK    7  A    between atoms: O_20  and  C_15 
ROOT
ATOM      1  C   UNL d   1     -47.303  13.457  22.628  0.00  0.00     0.042 C 
ENDROOT
BRANCH   1   2
ATOM      2  C   UNL d   1     -47.743  14.153  22.565  0.00  0.00     0.196 C 
ATOM      3  O   UNL d   1     -47.404  14.881  22.748  0.00  0.00    -0.287 OA
BRANCH   2   4
ATOM      4  C   UNL d   1     -48.527  14.114  22.316  0.00  0.00     0.039 A 
ATOM      5  C   UNL d   1     -49.116  14.532  22.729  0.00  0.00     0.005 A 
ATOM      6  C   UNL d   1     -49.902  14.492  22.478  0.00  0.00     0.024 A 
ATOM      7  C   UNL d   1     -50.096  14.035  21.817  0.00  0.00     0.094 A 
ATOM      8  C   UNL d   1     -49.513  13.620  21.409  0.00  0.00     0.024 A 
ATOM      9  C   UNL d   1     -48.729  13.659  21.657  0.00  0.00     0.005 A 
BRANCH   7  10
ATOM     10  O   UNL d   1     -50.879  13.996  21.570  0.00  0.00    -0.328 OA
ATOM     11  C   UNL d   1     -51.064  13.685  20.824  0.00  0.00     0.181 C 
ENDBRANCH   7  10
ENDBRANCH   2   4
ENDBRANCH   1   2
BRANCH   1  12
ATOM     12  C   UNL d   1     -46.610  13.449  23.083  0.00  0.00     0.003 C 
BRANCH  12  13
ATOM     13  C   UNL d   1     -46.198  12.746  23.197  0.00  0.00     0.000 A 
ATOM     14  C   UNL d   1     -46.564  12.122  23.574  0.00  0.00     0.000 A 
ATOM     15  C   UNL d   1     -46.156  11.414  23.691  0.00  0.00     0.005 A 
ATOM     16  C   UNL d   1     -45.371  11.339  23.424  0.00  0.00     0.063 A 
ATOM     17  C   UNL d   1     -45.008  11.974  23.044  0.00  0.00     0.005 A 
ATOM     18  C   UNL d   1     -45.419  12.676  22.930  0.00  0.00     0.000 A 
BRANCH  16  19
ATOM     19  C   UNL d   1     -44.958  10.637  23.537  0.00  0.00     0.296 C 
ATOM     20  O   UNL d   1     -45.367   9.939  23.697  0.00  0.00    -0.259 OA
BRANCH  19  21
ATOM     21  O   UNL d   1     -44.137  10.632  23.491  0.00  0.00    -0.296 OA
ATOM     22  C   UNL d   1     -43.716   9.928  23.574  0.00  0.00     0.185 C 
ENDBRANCH  19  21
ENDBRANCH  16  19
ENDBRANCH  12  13
ENDBRANCH   1  12
TORSDOF 7
ENDMDL
MODEL 3
REMARK VINA RESULT:      -5.4      0.768      5.289
REMARK  7 active torsions:
REMARK  status: ('A' for Active; 'I' for Inactive)
REMARK    1  A    between atoms: C_3  and  C_1 
REMARK    2  A    between atoms: C_4  and  C_1 
REMARK    3  A    between atoms: C_2  and  C_5 
REMARK    4  A    between atoms: O_14  and  C_2 
REMARK    5  A    between atoms: C_6  and  C_3 
REMARK    6  A    between atoms: C_13  and  C_4 
REMARK    7  A    between atoms: O_20  and  C_15 
ROOT
ATOM      1  C   UNL d   1     -39.721  14.282  18.875  0.00  0.00     0.042 C 
ENDROOT
BRANCH   1   2
ATOM      2  C   UNL d   1     -40.009  14.079  18.128  0.00  0.00     0.196 C 
ATOM      3  O   UNL d   1     -40.777  13.794  18.039  0.00  0.00    -0.287 OA
BRANCH   2   4
ATOM      4  C   UNL d   1     -39.521  14.163  17.471  0.00  0.00     0.039 A 
ATOM      5  C   UNL d   1     -39.558  14.855  17.011  0.00  0.00     0.005 A 
ATOM      6  C   UNL d   1     -39.068  14.937  16.351  0.00  0.00     0.024 A 
ATOM      7  C   UNL d   1     -38.543  14.329  16.154  0.00  0.00     0.094 A 
ATOM      8  C   UNL d   1     -38.507  13.644  16.610  0.00  0.00     0.024 A 
ATOM      9  C   UNL d   1     -38.994  13.560  17.267  0.00  0.00     0.005 A 
BRANCH   7  10
ATOM     10  O   UNL d   1     -38.056  14.414  15.498  0.00  0.00    -0.328 OA
ATOM     11  C   UNL d   1     -37.940  13.775  14.981  0.00  0.00     0.181 C 
ENDBRANCH   7  10
ENDBRANCH   2   4
ENDBRANCH   1   2
BRANCH   1  12
ATOM     12  C   UNL d   1     -40.230  14.267  19.529  0.00  0.00     0.003 C 
BRANCH  12  13
ATOM     13  C   UNL d   1     -39.942  14.435  20.281  0.00  0.00     0.000 A 
ATOM     14  C   UNL d   1     -40.333  14.978  20.749  0.00  0.00     0.000 A 
ATOM     15  C   UNL d   1     -40.050  15.152  21.505  0.00  0.00     0.005 A 
ATOM     16  C   UNL d   1     -39.365  14.772  21.787  0.00  0.00     0.063 A 
ATOM     17  C   UNL d   1     -38.975  14.225  21.309  0.00  0.00     0.005 A 
ATOM     18  C   UNL d   1     -39.262  14.056  20.558  0.00  0.00     0.000 A 
BRANCH  16  19
ATOM     19  C   UNL d   1     -39.077  14.940  22.539  0.00  0.00     0.296 C 
ATOM     20  O   UNL d   1     -38.977  14.334  23.089  0.00  0.00    -0.259 OA
BRANCH  19  21
ATOM     21  O   UNL d   1     -38.888  15.715  22.742  0.00  0.00    -0.296 OA
ATOM     22  C   UNL d   1     -38.651  15.902  23.508  0.00  0.00     0.185 C 
ENDBRANCH  19  21
ENDBRANCH  16  19
ENDBRANCH  12  13
ENDBRANCH   1  12
TORSDOF 7
ENDMDL
MODEL 4
REMARK VINA RESULT:      -5.3      7.850      9.467
REMARK  7 active torsions:
REMARK  status: ('A' for Active; 'I' for Inactive)
REMARK    1  A    between atoms: C_3  and  C_1 
REMARK    2  A    between atoms: C_4  and  C_1 
REMARK    3  A    between atoms: C_2  and  C_5 
REMARK    4  A    between atoms: O_14  and  C_2 
REMARK    5  A    between atoms: C_6  and  C_3 
REMARK    6  A    between atoms: C_13  and  C_4 
REMARK    7  A    between atoms: O_20  and  C_15 
ROOT
ATOM      1  C   UNL d   1     -47.713  12.334  22.800  0.00  0.00     0.042 C 
ENDROOT
BRANCH   1   2
ATOM      2  C   UNL d   1     -48.473  12.166  23.076  0.00  0.00     0.196 C 
ATOM      3  O   UNL d   1     -48.586  11.638  23.698  0.00  0.00    -0.287 OA
BRANCH   2   4
ATOM      4  C   UNL d   1     -49.120  12.532  22.723  0.00  0.00     0.039 A 
ATOM      5  C   UNL d   1     -49.408  13.251  23.026  0.00  0.00     0.005 A 
ATOM      6  C   UNL d   1     -50.058  13.616  22.671  0.00  0.00     0.024 A 
ATOM      7  C   UNL d   1     -50.417  13.263  22.015  0.00  0.00     0.094 A 
ATOM      8  C   UNL d   1     -50.131  12.551  21.715  0.00  0.00     0.024 A 
ATOM      9  C   UNL d   1     -49.484  12.185  22.068  0.00  0.00     0.005 A 
BRANCH   7  10
ATOM     10  O   UNL d   1     -51.063  13.628  21.663  0.00  0.00    -0.328 OA
ATOM     11  C   UNL d   1     -51.048  14.444  21.510  0.00  0.00     0.181 C 
ENDBRANCH   7  10
ENDBRANCH   2   4
ENDBRANCH   1   2
BRANCH   1  12
ATOM     12  C   UNL d   1     -47.072  12.316  23.327  0.00  0.00     0.003 C 
BRANCH  12  13
ATOM     13  C   UNL d   1     -46.301  12.300  23.039  0.00  0.00     0.000 A 
ATOM     14  C   UNL d   1     -45.817  11.669  23.223  0.00  0.00     0.000 A 
ATOM     15  C   UNL d   1     -45.042  11.647  22.938  0.00  0.00     0.005 A 
ATOM     16  C   UNL d   1     -44.758  12.270  22.463  0.00  0.00     0.063 A 
ATOM     17  C   UNL d   1     -45.253  12.903  22.282  0.00  0.00     0.005 A 
ATOM     18  C   UNL d   1     -46.023  12.919  22.569  0.00  0.00     0.000 A 
BRANCH  16  19
ATOM     19  C   UNL d   1     -43.987  12.254  22.176  0.00  0.00     0.296 C 
ATOM     20  O   UNL d   1     -43.459  11.681  22.443  0.00  0.00    -0.259 OA
BRANCH  19  21
ATOM     21  O   UNL d   1     -43.745  12.812  21.622  0.00  0.00    -0.296 OA
ATOM     22  C   UNL d   1     -42.948  12.889  21.425  0.00  0.00     0.185 C 
ENDBRANCH  19  21
ENDBRANCH  16  19
ENDBRANCH  12  13
ENDBRANCH   1  12
TORSDOF 7
ENDMDL
MODEL 5
REMARK VINA RESULT:      -4.7      7.147      9.083
REMARK  7 active torsions:
REMARK  status: ('A' for Active; 'I' for Inactive)
REMARK    1  A    between atoms: C_3  and  C_1 
REMARK    2  A    between atoms: C_4  and  C_1 
REMARK    3  A    between atoms: C_2  and  C_5 
REMARK    4  A    between atoms: O_14  and  C_2 
REMARK    5  A    between atoms: C_6  and  C_3 
REMARK    6  A    between atoms: C_13  and  C_4 
REMARK    7  A    between atoms: O_20  and  C_15 
ROOT
ATOM      1  C   UNL d   1     -46.342  12.999  22.711  0.00  0.00     0.042 C 
ENDROOT
BRANCH   1   2
ATOM      2  C   UNL d   1     -45.692  12.552  22.955  0.00  0.00     0.196 C 
ATOM      3  O   UNL d   1     -45.727  12.107  23.648  0.00  0.00    -0.287 OA
BRANCH   2   4
ATOM      4  C   UNL d   1     -45.007  12.555  22.500  0.00  0.00     0.039 A 
ATOM      5  C   UNL d   1     -44.900  13.132  21.911  0.00  0.00     0.005 A 
ATOM      6  C   UNL d   1     -44.211  13.133  21.455  0.00  0.00     0.024 A 
ATOM      7  C   UNL d   1     -43.633  12.558  21.589  0.00  0.00     0.094 A 
ATOM      8  C   UNL d   1     -43.739  11.986  22.173  0.00  0.00     0.024 A 
ATOM      9  C   UNL d   1     -44.424  11.983  22.628  0.00  0.00     0.005 A 
BRANCH   7  10
ATOM     10  O   UNL d   1     -42.949  12.561  21.135  0.00  0.00    -0.328 OA
ATOM     11  C   UNL d   1     -42.431  13.209  21.164  0.00  0.00     0.181 C 
ENDBRANCH   7  10
ENDBRANCH   2   4
ENDBRANCH   1   2
BRANCH   1  12
ATOM     12  C   UNL d   1     -47.016  13.041  23.193  0.00  0.00     0.003 C 
BRANCH  12  13
ATOM     13  C   UNL d   1     -47.696  13.415  22.921  0.00  0.00     0.000 A 
ATOM     14  C   UNL d   1     -48.299  12.969  22.599  0.00  0.00     0.000 A 
ATOM     15  C   UNL d   1     -48.984  13.338  22.323  0.00  0.00     0.005 A 
ATOM     16  C   UNL d   1     -49.059  14.166  22.376  0.00  0.00     0.063 A 
ATOM     17  C   UNL d   1     -48.446  14.610  22.703  0.00  0.00     0.005 A 
ATOM     18  C   UNL d   1     -47.767  14.237  22.975  0.00  0.00     0.000 A 
BRANCH  16  19
ATOM     19  C   UNL d   1     -49.739  14.539  22.104  0.00  0.00     0.296 C 
ATOM     20  O   UNL d   1     -49.831  15.352  22.203  0.00  0.00    -0.259 OA
BRANCH  19  21
ATOM     21  O   UNL d   1     -50.328  14.100  21.734  0.00  0.00    -0.296 OA
ATOM     22  C   UNL d   1     -51.064  14.435  21.577  0.00  0.00     0.185 C 
ENDBRANCH  19  21
ENDBRANCH  16  19
ENDBRANCH  12  13
ENDBRANCH   1  12
TORSDOF 7
ENDMDL
MODEL 6
REMARK VINA RESULT:      -3.7      1.894      5.260
REMARK  7 active torsions:
REMARK  status: ('A' for Active; 'I' for Inactive)
REMARK    1  A    between atoms: C_3  and  C_1 
REMARK    2  A    between atoms: C_4  and  C_1 
REMARK    3  A    between atoms: C_2  and  C_5 
REMARK    4  A    between atoms: O_14  and  C_2 
REMARK    5  A    between atoms: C_6  and  C_3 
REMARK    6  A    between atoms: C_13  and  C_4 
REMARK    7  A    between atoms: O_20  and  C_15 
ROOT
ATOM      1  C   UNL d   1     -39.118  15.351  19.213  0.00  0.00     0.042 C 
ENDROOT
BRANCH   1   2
ATOM      2  C   UNL d   1     -39.044  15.590  18.426  0.00  0.00     0.196 C 
ATOM      3  O   UNL d   1     -38.337  15.910  18.149  0.00  0.00    -0.287 OA
BRANCH   2   4
ATOM      4  C   UNL d   1     -39.686  15.507  17.917  0.00  0.00     0.039 A 
ATOM      5  C   UNL d   1     -40.317  15.006  18.121  0.00  0.00     0.005 A 
ATOM      6  C   UNL d   1     -40.960  14.924  17.609  0.00  0.00     0.024 A 
ATOM      7  C   UNL d   1     -40.970  15.342  16.896  0.00  0.00     0.094 A 
ATOM      8  C   UNL d   1     -40.344  15.839  16.694  0.00  0.00     0.024 A 
ATOM      9  C   UNL d   1     -39.703  15.922  17.203  0.00  0.00     0.005 A 
BRANCH   7  10
ATOM     10  O   UNL d   1     -41.610  15.259  16.389  0.00  0.00    -0.328 OA
ATOM     11  C   UNL d   1     -42.061  15.922  16.174  0.00  0.00     0.181 C 
ENDBRANCH   7  10
ENDBRANCH   2   4
ENDBRANCH   1   2
BRANCH   1  12
ATOM     12  C   UNL d   1     -38.577  15.626  19.778  0.00  0.00     0.003 C 
BRANCH  12  13
ATOM     13  C   UNL d   1     -38.587  15.323  20.542  0.00  0.00     0.000 A 
ATOM     14  C   UNL d   1     -38.017  15.560  21.076  0.00  0.00     0.000 A 
ATOM     15  C   UNL d   1     -38.022  15.259  21.845  0.00  0.00     0.005 A 
ATOM     16  C   UNL d   1     -38.610  14.716  22.074  0.00  0.00     0.063 A 
ATOM     17  C   UNL d   1     -39.182  14.482  21.529  0.00  0.00     0.005 A 
ATOM     18  C   UNL d   1     -39.172  14.784  20.765  0.00  0.00     0.000 A 
BRANCH  16  19
ATOM     19  C   UNL d   1     -38.621  14.413  22.839  0.00  0.00     0.296 C 
ATOM     20  O   UNL d   1     -38.770  14.911  23.478  0.00  0.00    -0.259 OA
BRANCH  19  21
ATOM     21  O   UNL d   1     -38.483  13.611  22.964  0.00  0.00    -0.296 OA
ATOM     22  C   UNL d   1     -38.197  13.343  23.689  0.00  0.00     0.185 C 
ENDBRANCH  19  21
ENDBRANCH  16  19
ENDBRANCH  12  13
ENDBRANCH   1  12
TORSDOF 7
ENDMDL
MODEL 7
REMARK VINA RESULT:      -3.2      1.406      2.116
REMARK  7 active torsions:
REMARK  status: ('A' for Active; 'I' for Inactive)
REMARK    1  A    between atoms: C_3  and  C_1 
REMARK    2  A    between atoms: C_4  and  C_1 
REMARK    3  A    between atoms: C_2  and  C_5 
REMARK    4  A    between atoms: O_14  and  C_2 
REMARK    5  A    between atoms: C_6  and  C_3 
REMARK    6  A    between atoms: C_13  and  C_4 
REMARK    7  A    between atoms: O_20  and  C_15 
ROOT
ATOM      1  C   UNL d   1     -39.840  14.996  19.277  0.00  0.00     0.042 C 
ENDROOT
BRANCH   1   2
ATOM      2  C   UNL d   1     -40.068  15.170  20.051  0.00  0.00     0.196 C 
ATOM      3  O   UNL d   1     -39.795  15.852  20.425  0.00  0.00    -0.287 OA
BRANCH   2   4
ATOM      4  C   UNL d   1     -40.572  14.656  20.449  0.00  0.00     0.039 A 
ATOM      5  C   UNL d   1     -41.390  14.674  20.297  0.00  0.00     0.005 A 
ATOM      6  C   UNL d   1     -41.895  14.157  20.697  0.00  0.00     0.024 A 
ATOM      7  C   UNL d   1     -41.581  13.625  21.247  0.00  0.00     0.094 A 
ATOM      8  C   UNL d   1     -40.771  13.607  21.397  0.00  0.00     0.024 A 
ATOM      9  C   UNL d   1     -40.267  14.121  20.999  0.00  0.00     0.005 A 
BRANCH   7  10
ATOM     10  O   UNL d   1     -42.085  13.111  21.644  0.00  0.00    -0.328 OA
ATOM     11  C   UNL d   1     -42.823  12.917  21.318  0.00  0.00     0.181 C 
ENDBRANCH   7  10
ENDBRANCH   2   4
ENDBRANCH   1   2
BRANCH   1  12
ATOM     12  C   UNL d   1     -39.442  15.568  18.828  0.00  0.00     0.003 C 
BRANCH  12  13
ATOM     13  C   UNL d   1     -39.149  15.379  18.083  0.00  0.00     0.000 A 
ATOM     14  C   UNL d   1     -39.546  15.636  17.418  0.00  0.00     0.000 A 
ATOM     15  C   UNL d   1     -39.257  15.450  16.667  0.00  0.00     0.005 A 
ATOM     16  C   UNL d   1     -38.561  14.998  16.591  0.00  0.00     0.063 A 
ATOM     17  C   UNL d   1     -38.166  14.742  17.267  0.00  0.00     0.005 A 
ATOM     18  C   UNL d   1     -38.459  14.931  18.012  0.00  0.00     0.000 A 
BRANCH  16  19
ATOM     19  C   UNL d   1     -38.268  14.809  15.846  0.00  0.00     0.296 C 
ATOM     20  O   UNL d   1     -37.941  15.396  15.370  0.00  0.00    -0.259 OA
BRANCH  19  21
ATOM     21  O   UNL d   1     -38.303  14.032  15.577  0.00  0.00    -0.296 OA
ATOM     22  C   UNL d   1     -37.944  13.817  14.867  0.00  0.00     0.185 C 
ENDBRANCH  19  21
ENDBRANCH  16  19
ENDBRANCH  12  13
ENDBRANCH   1  12
TORSDOF 7
ENDMDL
