MODEL 1
REMARK VINA RESULT:      38.8      0.000      0.000
REMARK  3 active torsions:
REMARK  status: ('A' for Active; 'I' for Inactive)
REMARK    1  A    between atoms: C_2  and  C_1 
REMARK    2  A    between atoms: C_14  and  O_17 
REMARK    3  A    between atoms: O_17  and  C_16 
ROOT
ATOM      1  C   UNL d   1     -54.760-101.717 -41.571  0.00  0.00     0.087 A 
ATOM      2  C   UNL d   1     -54.736-101.237 -40.895  0.00  0.00     0.201 A 
ATOM      3  C   UNL d   1     -54.737-101.562 -40.137  0.00  0.00     0.062 A 
ATOM      4  C   UNL d   1     -54.785-102.539 -41.476  0.00  0.00     0.128 A 
ATOM      5  C   UNL d   1     -54.762-102.389 -40.042  0.00  0.00     0.105 A 
ATOM      6  O   UNL d   1     -54.786-102.877 -40.706  0.00  0.00    -0.305 OA
ATOM      7  C   UNL d   1     -54.762-102.714 -39.284  0.00  0.00     0.050 A 
ATOM      8  C   UNL d   1     -54.713-101.088 -39.466  0.00  0.00     0.007 A 
ATOM      9  O   UNL d   1     -54.711-100.413 -40.976  0.00  0.00    -0.286 OA
ATOM     10  C   UNL d   1     -54.739-102.227 -38.628  0.00  0.00     0.105 A 
ATOM     11  C   UNL d   1     -54.714-101.400 -38.724  0.00  0.00     0.025 A 
ENDROOT
BRANCH   1  12
ATOM     12  C   UNL d   1     -54.760-101.391 -42.320  0.00  0.00     0.116 A 
ATOM     13  N   UNL d   1     -54.781-100.584 -42.499  0.00  0.00    -0.238 NA
ATOM     14  C   UNL d   1     -54.772-100.513 -43.321  0.00  0.00     0.088 A 
ATOM     15  C   UNL d   1     -54.785 -99.855 -43.808  0.00  0.00     0.020 A 
ATOM     16  C   UNL d   1     -54.745-101.264 -43.649  0.00  0.00     0.049 A 
ATOM     17  C   UNL d   1     -54.771 -99.936 -44.631  0.00  0.00     0.002 A 
ATOM     18  C   UNL d   1     -54.744-100.703 -44.956  0.00  0.00     0.001 A 
ATOM     19  C   UNL d   1     -54.731-101.361 -44.469  0.00  0.00     0.008 A 
ATOM     20  S   UNL d   1     -54.737-101.827 -43.033  0.00  0.00    -0.066 SA
ENDBRANCH   1  12
BRANCH  10  21
ATOM     21  O   UNL d   1     -54.740-102.566 -37.869  0.00  0.00    -0.273 OA
BRANCH  21  22
ATOM     22  C   UNL d   1     -55.448-102.753 -37.494  0.00  0.00     0.300 C 
ATOM     23  O   UNL d   1     -56.147-102.823 -37.928  0.00  0.00    -0.259 OA
ATOM     24  C   UNL d   1     -55.467-102.874 -36.668  0.00  0.00     0.074 C 
ENDBRANCH  21  22
ENDBRANCH  10  21
TORSDOF 3
ENDMDL
