MODEL 1
REMARK VINA RESULT:      -8.8      0.000      0.000
REMARK  4 active torsions:
REMARK  status: ('A' for Active; 'I' for Inactive)
REMARK    1  A    between atoms: N_2  and  C_1 
REMARK       I    between atoms: C_3  and  N_2 
REMARK    2  A    between atoms: C_6  and  C_3 
REMARK    3  A    between atoms: C_14  and  C_7 
REMARK    4  A    between atoms: C_15  and  C_14 
ROOT
ATOM      1  C   UNL d   1      51.906  32.762  53.071  0.00  0.00     0.197 A 
ATOM      2  N   UNL d   1      52.219  32.360  52.492  0.00  0.00    -0.219 NA
ATOM      3  S   UNL d   1      52.411  32.715  53.717  0.00  0.00    -0.047 SA
ATOM      4  C   UNL d   1      53.051  32.262  53.503  0.00  0.00     0.051 A 
ATOM      5  C   UNL d   1      52.930  32.037  52.725  0.00  0.00     0.108 A 
ENDROOT
BRANCH   1   6
ATOM      6  N   UNL d   1      51.155  33.166  52.988  0.00  0.00    -0.182 NA
ATOM      7  C   UNL d   1      51.146  33.930  52.684  0.00  0.00     0.287 C 
ATOM      8  O   UNL d   1      51.853  34.299  52.464  0.00  0.00    -0.265 OA
BRANCH   7   9
ATOM      9  C   UNL d   1      50.440  34.308  52.608  0.00  0.00     0.087 A 
ATOM     10  S   UNL d   1      50.028  34.748  53.177  0.00  0.00    -0.082 SA
ATOM     11  C   UNL d   1      49.364  35.013  52.853  0.00  0.00     0.036 A 
ATOM     12  C   UNL d   1      49.345  34.735  52.043  0.00  0.00     0.008 A 
ATOM     13  C   UNL d   1      50.023  34.309  51.941  0.00  0.00     0.012 A 
ENDBRANCH   7   9
ENDBRANCH   1   6
BRANCH   4  14
ATOM     14  C   UNL d   1      53.719  32.023  53.893  0.00  0.00     0.008 C 
BRANCH  14  15
ATOM     15  C   UNL d   1      54.193  32.581  54.298  0.00  0.00     0.001 A 
ATOM     16  C   UNL d   1      54.799  32.985  53.891  0.00  0.00     0.002 A 
ATOM     17  C   UNL d   1      55.277  33.543  54.287  0.00  0.00     0.030 A 
ATOM     18  C   UNL d   1      55.150  33.695  55.082  0.00  0.00     0.140 A 
ATOM     19  C   UNL d   1      54.533  33.288  55.509  0.00  0.00     0.030 A 
ATOM     20  F   UNL d   1      55.540  34.189  55.519  0.00  0.00    -0.204 F 
ATOM     21  C   UNL d   1      54.066  32.736  55.101  0.00  0.00     0.002 A 
ENDBRANCH  14  15
ENDBRANCH   4  14
TORSDOF 4
ENDMDL
MODEL 2
REMARK VINA RESULT:      -8.0      2.335      4.526
REMARK  4 active torsions:
REMARK  status: ('A' for Active; 'I' for Inactive)
REMARK    1  A    between atoms: N_2  and  C_1 
REMARK       I    between atoms: C_3  and  N_2 
REMARK    2  A    between atoms: C_6  and  C_3 
REMARK    3  A    between atoms: C_14  and  C_7 
REMARK    4  A    between atoms: C_15  and  C_14 
ROOT
ATOM      1  C   UNL d   1      53.200  32.497  53.584  0.00  0.00     0.197 A 
ATOM      2  N   UNL d   1      53.821  32.902  53.372  0.00  0.00    -0.219 NA
ATOM      3  S   UNL d   1      52.544  32.987  53.528  0.00  0.00    -0.047 SA
ATOM      4  C   UNL d   1      52.795  33.715  53.270  0.00  0.00     0.051 A 
ATOM      5  C   UNL d   1      53.606  33.662  53.170  0.00  0.00     0.108 A 
ENDROOT
BRANCH   1   6
ATOM      6  N   UNL d   1      53.256  31.677  53.827  0.00  0.00    -0.182 NA
ATOM      7  C   UNL d   1      53.065  31.088  53.285  0.00  0.00     0.287 C 
ATOM      8  O   UNL d   1      52.823  31.289  52.520  0.00  0.00    -0.265 OA
BRANCH   7   9
ATOM      9  C   UNL d   1      53.117  30.319  53.515  0.00  0.00     0.087 A 
ATOM     10  S   UNL d   1      53.648  29.979  54.055  0.00  0.00    -0.082 SA
ATOM     11  C   UNL d   1      53.493  29.211  54.104  0.00  0.00     0.036 A 
ATOM     12  C   UNL d   1      52.838  29.047  53.577  0.00  0.00     0.008 A 
ATOM     13  C   UNL d   1      52.644  29.755  53.240  0.00  0.00     0.012 A 
ENDBRANCH   7   9
ENDBRANCH   1   6
BRANCH   4  14
ATOM     14  C   UNL d   1      52.414  34.411  53.111  0.00  0.00     0.008 C 
BRANCH  14  15
ATOM     15  C   UNL d   1      51.643  34.405  52.786  0.00  0.00     0.001 A 
ATOM     16  C   UNL d   1      50.980  34.496  53.286  0.00  0.00     0.002 A 
ATOM     17  C   UNL d   1      50.208  34.492  52.970  0.00  0.00     0.030 A 
ATOM     18  C   UNL d   1      50.099  34.398  52.164  0.00  0.00     0.140 A 
ATOM     19  C   UNL d   1      50.768  34.303  51.643  0.00  0.00     0.030 A 
ATOM     20  F   UNL d   1      49.428  34.382  51.793  0.00  0.00    -0.204 F 
ATOM     21  C   UNL d   1      51.531  34.310  51.972  0.00  0.00     0.002 A 
ENDBRANCH  14  15
ENDBRANCH   4  14
TORSDOF 4
ENDMDL
MODEL 3
REMARK VINA RESULT:      -7.9      1.799      2.452
REMARK  4 active torsions:
REMARK  status: ('A' for Active; 'I' for Inactive)
REMARK    1  A    between atoms: N_2  and  C_1 
REMARK       I    between atoms: C_3  and  N_2 
REMARK    2  A    between atoms: C_6  and  C_3 
REMARK    3  A    between atoms: C_14  and  C_7 
REMARK    4  A    between atoms: C_15  and  C_14 
ROOT
ATOM      1  C   UNL d   1      52.265  33.643  53.286  0.00  0.00     0.197 A 
ATOM      2  N   UNL d   1      52.572  33.801  53.976  0.00  0.00    -0.219 NA
ATOM      3  S   UNL d   1      52.663  32.997  52.971  0.00  0.00    -0.047 SA
ATOM      4  C   UNL d   1      53.230  32.767  53.504  0.00  0.00     0.051 A 
ATOM      5  C   UNL d   1      53.174  33.276  54.143  0.00  0.00     0.108 A 
ENDROOT
BRANCH   1   6
ATOM      6  N   UNL d   1      51.620  34.103  52.962  0.00  0.00    -0.182 NA
ATOM      7  C   UNL d   1      50.849  33.840  53.072  0.00  0.00     0.287 C 
ATOM      8  O   UNL d   1      50.703  33.140  53.489  0.00  0.00    -0.265 OA
BRANCH   7   9
ATOM      9  C   UNL d   1      50.244  34.273  52.767  0.00  0.00     0.087 A 
ATOM     10  S   UNL d   1      49.752  34.816  53.157  0.00  0.00    -0.082 SA
ATOM     11  C   UNL d   1      49.240  35.106  52.637  0.00  0.00     0.036 A 
ATOM     12  C   UNL d   1      49.405  34.737  51.882  0.00  0.00     0.008 A 
ATOM     13  C   UNL d   1      50.026  34.238  52.012  0.00  0.00     0.012 A 
ENDBRANCH   7   9
ENDBRANCH   1   6
BRANCH   4  14
ATOM     14  C   UNL d   1      53.785  32.177  53.507  0.00  0.00     0.008 C 
BRANCH  14  15
ATOM     15  C   UNL d   1      53.547  31.375  53.521  0.00  0.00     0.001 A 
ATOM     16  C   UNL d   1      53.569  30.948  54.239  0.00  0.00     0.002 A 
ATOM     17  C   UNL d   1      53.333  30.148  54.262  0.00  0.00     0.030 A 
ATOM     18  C   UNL d   1      53.080  29.778  53.577  0.00  0.00     0.140 A 
ATOM     19  C   UNL d   1      53.053  30.204  52.838  0.00  0.00     0.030 A 
ATOM     20  F   UNL d   1      52.847  29.050  53.510  0.00  0.00    -0.204 F 
ATOM     21  C   UNL d   1      53.290  31.000  52.830  0.00  0.00     0.002 A 
ENDBRANCH  14  15
ENDBRANCH   4  14
TORSDOF 4
ENDMDL
MODEL 4
REMARK VINA RESULT:      -7.5      1.235      1.755
REMARK  4 active torsions:
REMARK  status: ('A' for Active; 'I' for Inactive)
REMARK    1  A    between atoms: N_2  and  C_1 
REMARK       I    between atoms: C_3  and  N_2 
REMARK    2  A    between atoms: C_6  and  C_3 
REMARK    3  A    between atoms: C_14  and  C_7 
REMARK    4  A    between atoms: C_15  and  C_14 
ROOT
ATOM      1  C   UNL d   1      50.771  34.084  53.195  0.00  0.00     0.197 A 
ATOM      2  N   UNL d   1      50.722  33.315  53.226  0.00  0.00    -0.219 NA
ATOM      3  S   UNL d   1      51.561  34.287  53.100  0.00  0.00    -0.047 SA
ATOM      4  C   UNL d   1      51.996  33.601  53.074  0.00  0.00     0.051 A 
ATOM      5  C   UNL d   1      51.464  32.983  53.154  0.00  0.00     0.108 A 
ENDROOT
BRANCH   1   6
ATOM      6  N   UNL d   1      50.079  34.584  53.256  0.00  0.00    -0.182 NA
ATOM      7  C   UNL d   1      49.624  34.718  52.583  0.00  0.00     0.287 C 
ATOM      8  O   UNL d   1      49.836  34.372  51.862  0.00  0.00    -0.265 OA
BRANCH   7   9
ATOM      9  C   UNL d   1      48.974  35.187  52.642  0.00  0.00     0.087 A 
ATOM     10  S   UNL d   1      48.385  35.326  52.073  0.00  0.00    -0.082 SA
ATOM     11  C   UNL d   1      47.860  35.823  52.375  0.00  0.00     0.036 A 
ATOM     12  C   UNL d   1      48.115  36.015  53.170  0.00  0.00     0.008 A 
ATOM     13  C   UNL d   1      48.800  35.603  53.286  0.00  0.00     0.012 A 
ENDBRANCH   7   9
ENDBRANCH   1   6
BRANCH   4  14
ATOM     14  C   UNL d   1      52.785  33.445  52.991  0.00  0.00     0.008 C 
BRANCH  14  15
ATOM     15  C   UNL d   1      53.266  33.333  53.667  0.00  0.00     0.001 A 
ATOM     16  C   UNL d   1      53.493  32.561  53.892  0.00  0.00     0.002 A 
ATOM     17  C   UNL d   1      53.972  32.440  54.564  0.00  0.00     0.030 A 
ATOM     18  C   UNL d   1      54.222  33.082  55.007  0.00  0.00     0.140 A 
ATOM     19  C   UNL d   1      53.997  33.875  54.787  0.00  0.00     0.030 A 
ATOM     20  F   UNL d   1      54.661  33.060  55.635  0.00  0.00    -0.204 F 
ATOM     21  C   UNL d   1      53.519  33.980  54.116  0.00  0.00     0.002 A 
ENDBRANCH  14  15
ENDBRANCH   4  14
TORSDOF 4
ENDMDL
MODEL 5
REMARK VINA RESULT:      -7.3      2.601      3.384
REMARK  4 active torsions:
REMARK  status: ('A' for Active; 'I' for Inactive)
REMARK    1  A    between atoms: N_2  and  C_1 
REMARK       I    between atoms: C_3  and  N_2 
REMARK    2  A    between atoms: C_6  and  C_3 
REMARK    3  A    between atoms: C_14  and  C_7 
REMARK    4  A    between atoms: C_15  and  C_14 
ROOT
ATOM      1  C   UNL d   1      53.094  32.451  53.182  0.00  0.00     0.197 A 
ATOM      2  N   UNL d   1      52.500  32.347  52.702  0.00  0.00    -0.219 NA
ATOM      3  S   UNL d   1      53.447  31.722  53.316  0.00  0.00    -0.047 SA
ATOM      4  C   UNL d   1      53.037  31.163  52.892  0.00  0.00     0.051 A 
ATOM      5  C   UNL d   1      52.436  31.558  52.501  0.00  0.00     0.108 A 
ENDROOT
BRANCH   1   6
ATOM      6  N   UNL d   1      53.298  33.225  53.488  0.00  0.00    -0.182 NA
ATOM      7  C   UNL d   1      52.736  33.642  53.922  0.00  0.00     0.287 C 
ATOM      8  O   UNL d   1      51.988  33.314  54.058  0.00  0.00    -0.265 OA
BRANCH   7   9
ATOM      9  C   UNL d   1      52.929  34.368  54.209  0.00  0.00     0.087 A 
ATOM     10  S   UNL d   1      53.312  34.555  54.921  0.00  0.00    -0.082 SA
ATOM     11  C   UNL d   1      53.383  35.335  54.967  0.00  0.00     0.036 A 
ATOM     12  C   UNL d   1      53.033  35.667  54.260  0.00  0.00     0.008 A 
ATOM     13  C   UNL d   1      52.770  35.037  53.828  0.00  0.00     0.012 A 
ENDBRANCH   7   9
ENDBRANCH   1   6
BRANCH   4  14
ATOM     14  C   UNL d   1      53.118  30.363  52.801  0.00  0.00     0.008 C 
BRANCH  14  15
ATOM     15  C   UNL d   1      53.175  29.867  53.472  0.00  0.00     0.001 A 
ATOM     16  C   UNL d   1      53.924  29.609  53.737  0.00  0.00     0.002 A 
ATOM     17  C   UNL d   1      53.989  29.113  54.405  0.00  0.00     0.030 A 
ATOM     18  C   UNL d   1      53.315  28.878  54.805  0.00  0.00     0.140 A 
ATOM     19  C   UNL d   1      52.544  29.135  54.544  0.00  0.00     0.030 A 
ATOM     20  F   UNL d   1      53.285  28.427  55.424  0.00  0.00    -0.204 F 
ATOM     21  C   UNL d   1      52.494  29.628  53.878  0.00  0.00     0.002 A 
ENDBRANCH  14  15
ENDBRANCH   4  14
TORSDOF 4
ENDMDL
