MODEL 1
REMARK VINA RESULT:      54.5      0.000      0.000
REMARK  3 active torsions:
REMARK  status: ('A' for Active; 'I' for Inactive)
REMARK    1  A    between atoms: C_9  and  N_1 
REMARK    2  A    between atoms: C_8  and  C_3 
REMARK    3  A    between atoms: C_17  and  C_9 
ROOT
ATOM      1  N   UNL d   1     -50.804  25.238  33.358  0.00  0.00    -0.269 N 
ATOM      2  N   UNL d   1     -50.546  23.927  33.405  0.00  0.00    -0.204 NA
ATOM      3  C   UNL d   1     -50.199  24.675  33.389  0.00  0.00     0.174 A 
ATOM      4  C   UNL d   1     -51.524  24.836  33.354  0.00  0.00     0.185 A 
ATOM      5  C   UNL d   1     -51.366  24.021  33.383  0.00  0.00     0.199 A 
ATOM      6  N   UNL d   1     -52.306  25.101  33.329  0.00  0.00    -0.224 NA
ATOM      7  N   UNL d   1     -51.982  23.482  33.386  0.00  0.00    -0.223 NA
ATOM      8  C   UNL d   1     -52.926  24.550  33.332  0.00  0.00     0.101 A 
ATOM      9  C   UNL d   1     -52.760  23.739  33.361  0.00  0.00     0.101 A 
ATOM     10  C   UNL d   1     -53.712  24.813  33.306  0.00  0.00     0.021 A 
ATOM     11  C   UNL d   1     -53.375  23.200  33.364  0.00  0.00     0.021 A 
ATOM     12  C   UNL d   1     -54.323  24.266  33.309  0.00  0.00     0.002 A 
ATOM     13  C   UNL d   1     -54.154  23.458  33.338  0.00  0.00     0.002 A 
ENDROOT
BRANCH   1  14
ATOM     14  C   UNL d   1     -50.712  26.053  33.335  0.00  0.00     0.108 C 
BRANCH  14  15
ATOM     15  C   UNL d   1     -51.244  26.534  33.739  0.00  0.00     0.118 A 
ATOM     16  O   UNL d   1     -51.688  27.151  33.415  0.00  0.00    -0.304 OA
ATOM     17  C   UNL d   1     -52.144  27.482  34.014  0.00  0.00     0.123 A 
ATOM     18  C   UNL d   1     -51.985  27.072  34.710  0.00  0.00     0.029 A 
ATOM     19  C   UNL d   1     -51.430  26.488  34.541  0.00  0.00     0.028 A 
ENDBRANCH  14  15
ENDBRANCH   1  14
BRANCH   3  20
ATOM     20  C   UNL d   1     -49.392  24.828  33.403  0.00  0.00     0.135 A 
ATOM     21  O   UNL d   1     -49.057  25.586  33.330  0.00  0.00    -0.302 OA
ATOM     22  C   UNL d   1     -48.168  25.483  33.375  0.00  0.00     0.123 A 
ATOM     23  C   UNL d   1     -48.000  24.649  33.476  0.00  0.00     0.029 A 
ATOM     24  C   UNL d   1     -48.775  24.234  33.493  0.00  0.00     0.030 A 
ENDBRANCH   3  20
TORSDOF 3
ENDMDL
