MODEL 1
REMARK VINA RESULT:      -7.1      0.000      0.000
REMARK  3 active torsions:
REMARK  status: ('A' for Active; 'I' for Inactive)
REMARK    1  A    between atoms: N_2  and  C_1 
REMARK    2  A    between atoms: N_3  and  C_1 
REMARK       I    between atoms: C_4  and  N_2 
REMARK    3  A    between atoms: C_9  and  C_4 
ROOT
ATOM      1  C   UNL d   1     -49.297  13.463  22.382  0.00  0.00     0.209 C 
ATOM      2  S   UNL d   1     -49.499  13.148  21.650  0.00  0.00    -0.038 SA
ENDROOT
BRANCH   1   3
ATOM      3  N   UNL d   1     -48.642  13.154  22.788  0.00  0.00    -0.180 NA
ATOM      4  C   UNL d   1     -48.270  12.477  22.496  0.00  0.00     0.281 C 
ATOM      5  O   UNL d   1     -48.543  12.108  21.808  0.00  0.00    -0.265 OA
BRANCH   4   6
ATOM      6  C   UNL d   1     -47.621  12.167  22.895  0.00  0.00     0.058 A 
ATOM      7  C   UNL d   1     -46.904  12.586  22.921  0.00  0.00     0.005 A 
ATOM      8  C   UNL d   1     -46.255  12.280  23.319  0.00  0.00     0.000 A 
ATOM      9  C   UNL d   1     -46.317  11.542  23.698  0.00  0.00     0.000 A 
ATOM     10  C   UNL d   1     -47.029  11.123  23.673  0.00  0.00     0.000 A 
ATOM     11  C   UNL d   1     -47.675  11.439  23.271  0.00  0.00     0.005 A 
ENDBRANCH   4   6
ENDBRANCH   1   3
BRANCH   1  12
ATOM     12  N   UNL d   1     -49.735  14.074  22.707  0.00  0.00    -0.281 N 
ATOM     13  C   UNL d   1     -50.502  13.928  22.980  0.00  0.00     0.082 A 
ATOM     14  C   UNL d   1     -50.946  14.550  23.309  0.00  0.00     0.019 A 
ATOM     15  C   UNL d   1     -50.621  15.306  23.363  0.00  0.00     0.003 A 
ATOM     16  C   UNL d   1     -49.859  15.445  23.090  0.00  0.00     0.019 A 
ATOM     17  C   UNL d   1     -51.058  15.920  23.688  0.00  0.00     0.000 C 
ATOM     18  C   UNL d   1     -49.414  14.830  22.761  0.00  0.00     0.082 A 
ENDBRANCH   1  12
TORSDOF 3
ENDMDL
MODEL 2
REMARK VINA RESULT:      -6.5      1.968      3.971
REMARK  3 active torsions:
REMARK  status: ('A' for Active; 'I' for Inactive)
REMARK    1  A    between atoms: N_2  and  C_1 
REMARK    2  A    between atoms: N_3  and  C_1 
REMARK       I    between atoms: C_4  and  N_2 
REMARK    3  A    between atoms: C_9  and  C_4 
ROOT
ATOM      1  C   UNL d   1     -47.362  12.092  23.289  0.00  0.00     0.209 C 
ATOM      2  S   UNL d   1     -47.256  11.386  23.698  0.00  0.00    -0.038 SA
ENDROOT
BRANCH   1   3
ATOM      3  N   UNL d   1     -48.131  12.383  23.177  0.00  0.00    -0.180 NA
ATOM      4  C   UNL d   1     -48.764  11.851  23.153  0.00  0.00     0.281 C 
ATOM      5  O   UNL d   1     -48.636  11.039  23.239  0.00  0.00    -0.265 OA
BRANCH   4   6
ATOM      6  C   UNL d   1     -49.528  12.135  23.043  0.00  0.00     0.058 A 
ATOM      7  C   UNL d   1     -50.003  12.326  23.697  0.00  0.00     0.005 A 
ATOM      8  C   UNL d   1     -50.767  12.609  23.591  0.00  0.00     0.000 A 
ATOM      9  C   UNL d   1     -51.064  12.705  22.820  0.00  0.00     0.000 A 
ATOM     10  C   UNL d   1     -50.593  12.516  22.168  0.00  0.00     0.000 A 
ATOM     11  C   UNL d   1     -49.828  12.232  22.286  0.00  0.00     0.005 A 
ENDBRANCH   4   6
ENDBRANCH   1   3
BRANCH   1  12
ATOM     12  N   UNL d   1     -46.718  12.502  22.994  0.00  0.00    -0.281 N 
ATOM     13  C   UNL d   1     -46.647  13.313  23.139  0.00  0.00     0.082 A 
ATOM     14  C   UNL d   1     -45.991  13.728  22.839  0.00  0.00     0.019 A 
ATOM     15  C   UNL d   1     -45.416  13.331  22.401  0.00  0.00     0.003 A 
ATOM     16  C   UNL d   1     -45.492  12.525  22.260  0.00  0.00     0.019 A 
ATOM     17  C   UNL d   1     -44.768  13.740  22.104  0.00  0.00     0.000 C 
ATOM     18  C   UNL d   1     -46.142  12.108  22.556  0.00  0.00     0.082 A 
ENDBRANCH   1  12
TORSDOF 3
ENDMDL
MODEL 3
REMARK VINA RESULT:      -5.5      9.094     10.778
REMARK  3 active torsions:
REMARK  status: ('A' for Active; 'I' for Inactive)
REMARK    1  A    between atoms: N_2  and  C_1 
REMARK    2  A    between atoms: N_3  and  C_1 
REMARK       I    between atoms: C_4  and  N_2 
REMARK    3  A    between atoms: C_9  and  C_4 
ROOT
ATOM      1  C   UNL d   1     -40.214  14.962  17.724  0.00  0.00     0.209 C 
ATOM      2  S   UNL d   1     -40.926  15.265  17.444  0.00  0.00    -0.038 SA
ENDROOT
BRANCH   1   3
ATOM      3  N   UNL d   1     -40.076  14.944  18.542  0.00  0.00    -0.180 NA
ATOM      4  C   UNL d   1     -40.529  15.426  19.038  0.00  0.00     0.281 C 
ATOM      5  O   UNL d   1     -41.113  15.922  18.726  0.00  0.00    -0.265 OA
BRANCH   4   6
ATOM      6  C   UNL d   1     -40.396  15.412  19.849  0.00  0.00     0.058 A 
ATOM      7  C   UNL d   1     -40.900  14.981  20.350  0.00  0.00     0.005 A 
ATOM      8  C   UNL d   1     -40.770  14.964  21.161  0.00  0.00     0.000 A 
ATOM      9  C   UNL d   1     -40.127  15.384  21.481  0.00  0.00     0.000 A 
ATOM     10  C   UNL d   1     -39.625  15.814  20.985  0.00  0.00     0.000 A 
ATOM     11  C   UNL d   1     -39.764  15.824  20.173  0.00  0.00     0.005 A 
ENDBRANCH   4   6
ENDBRANCH   1   3
BRANCH   1  12
ATOM     12  N   UNL d   1     -39.649  14.682  17.203  0.00  0.00    -0.281 N 
ATOM     13  C   UNL d   1     -39.307  15.197  16.653  0.00  0.00     0.082 A 
ATOM     14  C   UNL d   1     -38.732  14.909  16.124  0.00  0.00     0.019 A 
ATOM     15  C   UNL d   1     -38.507  14.116  16.149  0.00  0.00     0.003 A 
ATOM     16  C   UNL d   1     -38.850  13.610  16.697  0.00  0.00     0.019 A 
ATOM     17  C   UNL d   1     -37.940  13.833  15.627  0.00  0.00     0.000 C 
ATOM     18  C   UNL d   1     -39.422  13.891  17.225  0.00  0.00     0.082 A 
ENDBRANCH   1  12
TORSDOF 3
ENDMDL
MODEL 4
REMARK VINA RESULT:      -5.2      9.185      9.731
REMARK  3 active torsions:
REMARK  status: ('A' for Active; 'I' for Inactive)
REMARK    1  A    between atoms: N_2  and  C_1 
REMARK    2  A    between atoms: N_3  and  C_1 
REMARK       I    between atoms: C_4  and  N_2 
REMARK    3  A    between atoms: C_9  and  C_4 
ROOT
ATOM      1  C   UNL d   1     -40.488  15.207  20.138  0.00  0.00     0.209 C 
ATOM      2  S   UNL d   1     -41.008  15.701  20.541  0.00  0.00    -0.038 SA
ENDROOT
BRANCH   1   3
ATOM      3  N   UNL d   1     -39.957  14.740  20.571  0.00  0.00    -0.180 NA
ATOM      4  C   UNL d   1     -39.791  14.941  21.356  0.00  0.00     0.281 C 
ATOM      5  O   UNL d   1     -40.148  15.598  21.708  0.00  0.00    -0.265 OA
BRANCH   4   6
ATOM      6  C   UNL d   1     -39.264  14.481  21.789  0.00  0.00     0.058 A 
ATOM      7  C   UNL d   1     -38.469  14.710  21.864  0.00  0.00     0.005 A 
ATOM      8  C   UNL d   1     -37.941  14.254  22.296  0.00  0.00     0.000 A 
ATOM      9  C   UNL d   1     -38.207  13.555  22.662  0.00  0.00     0.000 A 
ATOM     10  C   UNL d   1     -38.998  13.325  22.589  0.00  0.00     0.000 A 
ATOM     11  C   UNL d   1     -39.520  13.791  22.153  0.00  0.00     0.005 A 
ENDBRANCH   4   6
ENDBRANCH   1   3
BRANCH   1  12
ATOM     12  N   UNL d   1     -40.495  15.176  19.320  0.00  0.00    -0.281 N 
ATOM     13  C   UNL d   1     -40.652  14.458  18.938  0.00  0.00     0.082 A 
ATOM     14  C   UNL d   1     -40.659  14.430  18.106  0.00  0.00     0.019 A 
ATOM     15  C   UNL d   1     -40.509  15.112  17.668  0.00  0.00     0.003 A 
ATOM     16  C   UNL d   1     -40.354  15.821  18.052  0.00  0.00     0.019 A 
ATOM     17  C   UNL d   1     -40.516  15.083  16.847  0.00  0.00     0.000 C 
ATOM     18  C   UNL d   1     -40.347  15.855  18.879  0.00  0.00     0.082 A 
ENDBRANCH   1  12
TORSDOF 3
ENDMDL
