MODEL 1
REMARK VINA RESULT:      65.1      0.000      0.000
REMARK  4 active torsions:
REMARK  status: ('A' for Active; 'I' for Inactive)
REMARK    1  A    between atoms: C_4  and  C_1 
REMARK       I    between atoms: N_7  and  C_4 
REMARK    2  A    between atoms: C_8  and  N_7 
REMARK    3  A    between atoms: O_21  and  C_13 
REMARK    4  A    between atoms: O_22  and  C_16 
ROOT
ATOM      1  C   UNL d   1     -52.032  26.246  33.540  0.00  0.00     0.263 C 
ATOM      2  N   UNL d   1     -52.384  25.481  33.307  0.00  0.00    -0.209 NA
ATOM      3  O   UNL d   1     -52.373  27.019  33.309  0.00  0.00    -0.270 OA
ENDROOT
BRANCH   1   4
ATOM      4  C   UNL d   1     -51.352  26.318  33.995  0.00  0.00     0.113 A 
ATOM      5  C   UNL d   1     -50.516  26.486  35.274  0.00  0.00     0.025 A 
ATOM      6  C   UNL d   1     -50.669  26.393  34.471  0.00  0.00     0.074 A 
ATOM      7  C   UNL d   1     -49.752  26.540  35.537  0.00  0.00     0.002 C 
ATOM      8  C   UNL d   1     -50.966  26.545  35.943  0.00  0.00     0.002 C 
ATOM      9  C   UNL d   1     -49.891  26.448  34.740  0.00  0.00     0.012 C 
ATOM     10  C   UNL d   1     -51.416  26.406  34.817  0.00  0.00    -0.023 A 
ATOM     11  C   UNL d   1     -50.220  26.331  33.782  0.00  0.00     0.172 A 
ATOM     12  C   UNL d   1     -52.073  26.335  34.359  0.00  0.00    -0.018 A 
ATOM     13  C   UNL d   1     -50.894  26.259  33.328  0.00  0.00     0.024 A 
ATOM     14  O   UNL d   1     -49.398  26.341  33.629  0.00  0.00    -0.291 OA
ENDBRANCH   1   4
BRANCH   2  15
ATOM     15  C   UNL d   1     -52.007  24.736  33.563  0.00  0.00     0.108 A 
ATOM     16  C   UNL d   1     -51.185  24.568  33.306  0.00  0.00     0.045 A 
ATOM     17  C   UNL d   1     -50.805  23.819  33.564  0.00  0.00     0.096 A 
ATOM     18  C   UNL d   1     -51.251  23.247  34.075  0.00  0.00     0.026 A 
ATOM     19  C   UNL d   1     -52.070  23.437  34.318  0.00  0.00     0.028 A 
ATOM     20  C   UNL d   1     -52.450  24.185  34.061  0.00  0.00     0.112 A 
BRANCH  17  21
ATOM     21  O   UNL d   1     -49.990  23.637  33.317  0.00  0.00    -0.328 OA
ATOM     22  C   UNL d   1     -49.354  23.566  33.914  0.00  0.00     0.181 C 
ENDBRANCH  17  21
BRANCH  20  23
ATOM     23  O   UNL d   1     -53.270  24.376  34.305  0.00  0.00    -0.327 OA
ATOM     24  C   UNL d   1     -53.903  23.789  34.153  0.00  0.00     0.181 C 
ENDBRANCH  20  23
ENDBRANCH   2  15
TORSDOF 4
ENDMDL
