MODEL 1
REMARK VINA RESULT:      41.3      0.000      0.000
REMARK  4 active torsions:
REMARK  status: ('A' for Active; 'I' for Inactive)
REMARK    1  A    between atoms: S_7  and  C_3 
REMARK    2  A    between atoms: C_12  and  S_7 
REMARK    3  A    between atoms: C_9  and  C_12 
REMARK    4  A    between atoms: C_11  and  C_9 
ROOT
ATOM      1  S   UNL d   1      58.935  49.602  50.696  0.00  0.00    -0.043 SA
ENDROOT
BRANCH   1   2
ATOM      2  C   UNL d   1      58.238  49.628  50.259  0.00  0.00     0.220 A 
ATOM      3  N   UNL d   1      57.509  49.652  50.645  0.00  0.00    -0.149 N 
ATOM      4  C   UNL d   1      56.801  49.678  50.215  0.00  0.00     0.303 A 
ATOM      5  N   UNL d   1      57.478  49.649  51.469  0.00  0.00    -0.037 N 
ATOM      6  C   UNL d   1      56.842  49.679  49.386  0.00  0.00     0.161 A 
ATOM      7  O   UNL d   1      56.079  49.701  50.598  0.00  0.00    -0.263 OA
ATOM      8  C   UNL d   1      56.144  49.705  48.951  0.00  0.00     0.028 C 
ATOM      9  N   UNL d   1      57.571  49.656  49.000  0.00  0.00    -0.141 NA
ATOM     10  N   UNL d   1      58.265  49.630  49.439  0.00  0.00    -0.121 NA
ENDBRANCH   1   2
BRANCH   1  11
ATOM     11  C   UNL d   1      59.638  49.377  50.335  0.00  0.00     0.080 C 
BRANCH  11  12
ATOM     12  C   UNL d   1      60.294  49.211  50.797  0.00  0.00     0.202 C 
ATOM     13  O   UNL d   1      60.520  49.708  51.411  0.00  0.00    -0.286 OA
BRANCH  12  14
ATOM     14  C   UNL d   1      60.738  48.524  50.637  0.00  0.00     0.040 A 
ATOM     15  C   UNL d   1      60.612  47.844  51.096  0.00  0.00     0.004 A 
ATOM     16  C   UNL d   1      61.048  47.160  50.943  0.00  0.00     0.011 A 
ATOM     17  C   UNL d   1      61.612  47.158  50.328  0.00  0.00     0.058 A 
ATOM     18  C   UNL d   1      61.731  47.833  49.879  0.00  0.00     0.011 A 
ATOM     19 CL   UNL d   1      62.043  46.482  50.178  0.00  0.00    -0.082 Cl
ATOM     20  C   UNL d   1      61.298  48.519  50.028  0.00  0.00     0.004 A 
ENDBRANCH  12  14
ENDBRANCH  11  12
ENDBRANCH   1  11
TORSDOF 4
ENDMDL
MODEL 2
REMARK VINA RESULT:      43.4      1.429      1.720
REMARK  4 active torsions:
REMARK  status: ('A' for Active; 'I' for Inactive)
REMARK    1  A    between atoms: S_7  and  C_3 
REMARK    2  A    between atoms: C_12  and  S_7 
REMARK    3  A    between atoms: C_9  and  C_12 
REMARK    4  A    between atoms: C_11  and  C_9 
ROOT
ATOM      1  S   UNL d   1      58.931  49.367  50.532  0.00  0.00    -0.043 SA
ENDROOT
BRANCH   1   2
ATOM      2  C   UNL d   1      58.222  49.362  50.113  0.00  0.00     0.220 A 
ATOM      3  N   UNL d   1      57.550  49.018  50.444  0.00  0.00    -0.149 N 
ATOM      4  C   UNL d   1      56.831  49.006  50.031  0.00  0.00     0.303 A 
ATOM      5  N   UNL d   1      57.586  48.679  51.194  0.00  0.00    -0.037 N 
ATOM      6  C   UNL d   1      56.804  49.350  49.276  0.00  0.00     0.161 A 
ATOM      7  O   UNL d   1      56.165  48.665  50.359  0.00  0.00    -0.263 OA
ATOM      8  C   UNL d   1      56.095  49.344  48.858  0.00  0.00     0.028 C 
ATOM      9  N   UNL d   1      57.477  49.694  48.945  0.00  0.00    -0.141 NA
ATOM     10  N   UNL d   1      58.183  49.698  49.365  0.00  0.00    -0.121 NA
ENDBRANCH   1   2
BRANCH   1  11
ATOM     11  C   UNL d   1      59.602  49.705  50.200  0.00  0.00     0.080 C 
BRANCH  11  12
ATOM     12  C   UNL d   1      60.326  49.330  50.282  0.00  0.00     0.202 C 
ATOM     13  O   UNL d   1      60.674  48.931  49.654  0.00  0.00    -0.286 OA
BRANCH  12  14
ATOM     14  C   UNL d   1      60.713  49.356  51.021  0.00  0.00     0.040 A 
ATOM     15  C   UNL d   1      61.480  49.047  51.087  0.00  0.00     0.004 A 
ATOM     16  C   UNL d   1      61.869  49.069  51.814  0.00  0.00     0.011 A 
ATOM     17  C   UNL d   1      61.487  49.403  52.477  0.00  0.00     0.058 A 
ATOM     18  C   UNL d   1      60.729  49.706  52.405  0.00  0.00     0.011 A 
ATOM     19 CL   UNL d   1      61.872  49.425  53.196  0.00  0.00    -0.082 Cl
ATOM     20  C   UNL d   1      60.337  49.686  51.679  0.00  0.00     0.004 A 
ENDBRANCH  12  14
ENDBRANCH  11  12
ENDBRANCH   1  11
TORSDOF 4
ENDMDL
