MODEL 1
REMARK VINA RESULT:      24.9      0.000      0.000
REMARK  5 active torsions:
REMARK  status: ('A' for Active; 'I' for Inactive)
REMARK    1  A    between atoms: C_6  and  C_1 
REMARK    2  A    between atoms: C_9  and  N_2 
REMARK    3  A    between atoms: O_13  and  C_8 
REMARK    4  A    between atoms: O_15  and  C_9 
REMARK    5  A    between atoms: O_14  and  C_10 
ROOT
ATOM      1  C   UNL d   1      13.801  13.058  -2.976  0.00  0.00     0.149 A 
ATOM      2  N   UNL d   1      13.556  13.573  -3.574  0.00  0.00    -0.269 N 
ATOM      3  N   UNL d   1      13.673  12.295  -3.266  0.00  0.00    -0.227 NA
ATOM      4  C   UNL d   1      13.288  13.142  -4.207  0.00  0.00     0.085 A 
ATOM      5  C   UNL d   1      13.363  12.316  -4.007  0.00  0.00     0.099 A 
ATOM      6  C   UNL d   1      12.994  13.366  -4.915  0.00  0.00     0.019 A 
ATOM      7  C   UNL d   1      13.115  11.779  -4.590  0.00  0.00     0.021 A 
ATOM      8  C   UNL d   1      12.771  12.798  -5.436  0.00  0.00     0.002 A 
ATOM      9  C   UNL d   1      12.842  12.023  -5.249  0.00  0.00     0.002 A 
ENDROOT
BRANCH   1  10
ATOM     10  C   UNL d   1      14.095  12.834  -2.267  0.00  0.00     0.037 A 
ATOM     11  C   UNL d   1      14.582  13.351  -1.847  0.00  0.00     0.029 A 
ATOM     12  C   UNL d   1      14.892  13.133  -1.114  0.00  0.00     0.116 A 
ATOM     13  C   UNL d   1      14.713  12.385  -0.796  0.00  0.00     0.116 A 
ATOM     14  C   UNL d   1      14.225  11.863  -1.215  0.00  0.00     0.026 A 
ATOM     15  C   UNL d   1      13.916  12.086  -1.950  0.00  0.00     0.005 A 
BRANCH  12  16
ATOM     16  O   UNL d   1      15.378  13.650  -0.694  0.00  0.00    -0.326 OA
ATOM     17  C   UNL d   1      15.058  14.174  -0.136  0.00  0.00     0.181 C 
ENDBRANCH  12  16
BRANCH  13  18
ATOM     18  O   UNL d   1      15.022  12.162  -0.062  0.00  0.00    -0.326 OA
ATOM     19  C   UNL d   1      15.760  11.780  -0.018  0.00  0.00     0.181 C 
ENDBRANCH  13  18
ENDBRANCH   1  10
BRANCH   2  20
ATOM     20  C   UNL d   1      13.640  14.335  -3.390  0.00  0.00     0.205 C 
BRANCH  20  21
ATOM     21  O   UNL d   1      13.803  14.902  -3.950  0.00  0.00    -0.310 OA
ATOM     22  C   UNL d   1      14.190  15.604  -3.784  0.00  0.00     0.183 C 
ENDBRANCH  20  21
ENDBRANCH   2  20
TORSDOF 5
ENDMDL
