MODEL 1
REMARK VINA RESULT:      -2.6      0.000      0.000
REMARK  11 active torsions:
REMARK  status: ('A' for Active; 'I' for Inactive)
REMARK    1  A    between atoms: C_4  and  C_1 
REMARK    2  A    between atoms: C_10  and  C_2 
REMARK    3  A    between atoms: C_16  and  C_9 
REMARK    4  A    between atoms: O_24  and  C_10 
REMARK    5  A    between atoms: O_18  and  C_14 
REMARK    6  A    between atoms: O_25  and  C_16 
REMARK    7  A    between atoms: C_26  and  C_17 
REMARK    8  A    between atoms: C_19  and  O_18 
REMARK    9  A    between atoms: C_29  and  O_24 
REMARK   10  A    between atoms: C_28  and  O_25 
REMARK   11  A    between atoms: C_30  and  C_26 
ROOT
ATOM      1  C   UNL d   1     -46.605  13.351  22.505  0.00  0.00     0.090 A 
ATOM      2  C   UNL d   1     -46.781  12.641  22.887  0.00  0.00     0.168 A 
ATOM      3  C   UNL d   1     -45.845  13.472  22.191  0.00  0.00     0.201 A 
ATOM      4  C   UNL d   1     -45.261  12.884  22.257  0.00  0.00     0.062 A 
ATOM      5  O   UNL d   1     -46.198  12.053  22.953  0.00  0.00    -0.301 OA
ATOM      6  C   UNL d   1     -45.438  12.174  22.638  0.00  0.00     0.105 A 
ATOM      7  C   UNL d   1     -44.518  13.010  21.946  0.00  0.00     0.007 A 
ATOM      8  C   UNL d   1     -44.871  11.591  22.707  0.00  0.00     0.050 A 
ATOM      9  C   UNL d   1     -44.111  11.712  22.393  0.00  0.00     0.105 A 
ATOM     10  C   UNL d   1     -43.934  12.422  22.012  0.00  0.00     0.023 A 
ATOM     11  O   UNL d   1     -45.668  14.182  21.810  0.00  0.00    -0.286 OA
ENDROOT
BRANCH   1  12
ATOM     12  C   UNL d   1     -47.187  13.939  22.439  0.00  0.00     0.105 A 
ATOM     13  O   UNL d   1     -47.835  13.866  21.932  0.00  0.00    -0.302 OA
ATOM     14  C   UNL d   1     -48.284  14.538  22.012  0.00  0.00     0.163 A 
ATOM     15  C   UNL d   1     -47.930  15.028  22.558  0.00  0.00     0.032 A 
ATOM     16  C   UNL d   1     -47.231  14.656  22.836  0.00  0.00     0.027 A 
BRANCH  14  17
ATOM     17  C   UNL d   1     -49.001  14.711  21.601  0.00  0.00     0.323 C 
ATOM     18  O   UNL d   1     -48.965  15.114  20.855  0.00  0.00    -0.257 OA
BRANCH  17  19
ATOM     19  O   UNL d   1     -49.727  14.498  21.905  0.00  0.00    -0.270 OA
BRANCH  19  20
ATOM     20  C   UNL d   1     -50.339  14.224  21.425  0.00  0.00     0.126 C 
ATOM     21  C   UNL d   1     -50.923  13.753  21.726  0.00  0.00     0.029 C 
ENDBRANCH  19  20
ENDBRANCH  17  19
ENDBRANCH  14  17
ENDBRANCH   1  12
BRANCH   2  22
ATOM     22  C   UNL d   1     -47.560  12.507  23.214  0.00  0.00     0.323 C 
ATOM     23  O   UNL d   1     -47.898  13.078  23.690  0.00  0.00    -0.257 OA
BRANCH  22  24
ATOM     24  O   UNL d   1     -47.967  11.808  23.050  0.00  0.00    -0.270 OA
BRANCH  24  25
ATOM     25  C   UNL d   1     -48.603  11.579  23.534  0.00  0.00     0.126 C 
ATOM     26  C   UNL d   1     -48.981  10.858  23.398  0.00  0.00     0.029 C 
ENDBRANCH  24  25
ENDBRANCH  22  24
ENDBRANCH   2  22
BRANCH  10  27
ATOM     27  C   UNL d   1     -43.156  12.553  21.686  0.00  0.00     0.002 C 
BRANCH  27  28
ATOM     28  C   UNL d   1     -43.050  13.185  21.164  0.00  0.00     0.000 C 
ATOM     29  C   UNL d   1     -42.305  13.257  20.783  0.00  0.00     0.000 C 
ENDBRANCH  27  28
ENDBRANCH  10  27
BRANCH   9  30
ATOM     30  O   UNL d   1     -43.517  11.101  22.466  0.00  0.00    -0.273 OA
BRANCH  30  31
ATOM     31  C   UNL d   1     -43.475  10.674  23.146  0.00  0.00     0.300 C 
ATOM     32  O   UNL d   1     -43.430  10.953  23.697  0.00  0.00    -0.259 OA
ATOM     33  C   UNL d   1     -43.492   9.851  23.125  0.00  0.00     0.074 C 
ENDBRANCH  30  31
ENDBRANCH   9  30
TORSDOF 11
ENDMDL
MODEL 2
REMARK VINA RESULT:      -2.3      1.295      5.101
REMARK  11 active torsions:
REMARK  status: ('A' for Active; 'I' for Inactive)
REMARK    1  A    between atoms: C_4  and  C_1 
REMARK    2  A    between atoms: C_10  and  C_2 
REMARK    3  A    between atoms: C_16  and  C_9 
REMARK    4  A    between atoms: O_24  and  C_10 
REMARK    5  A    between atoms: O_18  and  C_14 
REMARK    6  A    between atoms: O_25  and  C_16 
REMARK    7  A    between atoms: C_26  and  C_17 
REMARK    8  A    between atoms: C_19  and  O_18 
REMARK    9  A    between atoms: C_29  and  O_24 
REMARK   10  A    between atoms: C_28  and  O_25 
REMARK   11  A    between atoms: C_30  and  C_26 
ROOT
ATOM      1  C   UNL d   1     -44.543  12.793  22.062  0.00  0.00     0.090 A 
ATOM      2  C   UNL d   1     -44.611  12.117  22.530  0.00  0.00     0.168 A 
ATOM      3  C   UNL d   1     -45.184  13.319  22.001  0.00  0.00     0.201 A 
ATOM      4  C   UNL d   1     -45.893  13.169  22.408  0.00  0.00     0.062 A 
ATOM      5  O   UNL d   1     -45.321  11.967  22.936  0.00  0.00    -0.301 OA
ATOM      6  C   UNL d   1     -45.962  12.493  22.876  0.00  0.00     0.105 A 
ATOM      7  C   UNL d   1     -46.517  13.690  22.343  0.00  0.00     0.007 A 
ATOM      8  C   UNL d   1     -46.654  12.339  23.278  0.00  0.00     0.050 A 
ATOM      9  C   UNL d   1     -47.295  12.864  23.217  0.00  0.00     0.105 A 
ATOM     10  C   UNL d   1     -47.227  13.541  22.750  0.00  0.00     0.023 A 
ATOM     11  O   UNL d   1     -45.115  13.995  21.534  0.00  0.00    -0.286 OA
ENDROOT
BRANCH   1  12
ATOM     12  C   UNL d   1     -43.834  12.943  21.656  0.00  0.00     0.105 A 
ATOM     13  O   UNL d   1     -43.233  13.413  21.972  0.00  0.00    -0.302 OA
ATOM     14  C   UNL d   1     -42.631  13.436  21.426  0.00  0.00     0.163 A 
ATOM     15  C   UNL d   1     -42.844  12.991  20.778  0.00  0.00     0.032 A 
ATOM     16  C   UNL d   1     -43.608  12.673  20.915  0.00  0.00     0.027 A 
BRANCH  14  17
ATOM     17  C   UNL d   1     -41.900  13.851  21.509  0.00  0.00     0.323 C 
ATOM     18  O   UNL d   1     -41.354  13.615  22.114  0.00  0.00    -0.257 OA
BRANCH  17  19
ATOM     19  O   UNL d   1     -41.706  14.474  21.019  0.00  0.00    -0.270 OA
BRANCH  19  20
ATOM     20  C   UNL d   1     -41.034  14.934  21.142  0.00  0.00     0.126 C 
ATOM     21  C   UNL d   1     -40.790  15.470  20.588  0.00  0.00     0.029 C 
ENDBRANCH  19  20
ENDBRANCH  17  19
ENDBRANCH  14  17
ENDBRANCH   1  12
BRANCH   2  22
ATOM     22  C   UNL d   1     -43.957  11.569  22.598  0.00  0.00     0.323 C 
ATOM     23  O   UNL d   1     -43.486  11.426  21.947  0.00  0.00    -0.257 OA
BRANCH  22  24
ATOM     24  O   UNL d   1     -43.803  11.190  23.314  0.00  0.00    -0.270 OA
BRANCH  24  25
ATOM     25  C   UNL d   1     -43.299  10.529  23.331  0.00  0.00     0.126 C 
ATOM     26  C   UNL d   1     -43.548   9.834  23.698  0.00  0.00     0.029 C 
ENDBRANCH  24  25
ENDBRANCH  22  24
ENDBRANCH   2  22
BRANCH  10  27
ATOM     27  C   UNL d   1     -47.881  14.085  22.683  0.00  0.00     0.002 C 
BRANCH  27  28
ATOM     28  C   UNL d   1     -47.719  14.895  22.681  0.00  0.00     0.000 C 
ATOM     29  C   UNL d   1     -48.336  15.417  22.454  0.00  0.00     0.000 C 
ENDBRANCH  27  28
ENDBRANCH  10  27
BRANCH   9  30
ATOM     30  O   UNL d   1     -48.022  12.702  23.640  0.00  0.00    -0.273 OA
BRANCH  30  31
ATOM     31  C   UNL d   1     -48.291  11.945  23.680  0.00  0.00     0.300 C 
ATOM     32  O   UNL d   1     -47.898  11.466  23.698  0.00  0.00    -0.259 OA
ATOM     33  C   UNL d   1     -49.099  11.789  23.698  0.00  0.00     0.074 C 
ENDBRANCH  30  31
ENDBRANCH   9  30
TORSDOF 11
ENDMDL
MODEL 3
REMARK VINA RESULT:      -2.1      1.332      5.015
REMARK  11 active torsions:
REMARK  status: ('A' for Active; 'I' for Inactive)
REMARK    1  A    between atoms: C_4  and  C_1 
REMARK    2  A    between atoms: C_10  and  C_2 
REMARK    3  A    between atoms: C_16  and  C_9 
REMARK    4  A    between atoms: O_24  and  C_10 
REMARK    5  A    between atoms: O_18  and  C_14 
REMARK    6  A    between atoms: O_25  and  C_16 
REMARK    7  A    between atoms: C_26  and  C_17 
REMARK    8  A    between atoms: C_19  and  O_18 
REMARK    9  A    between atoms: C_29  and  O_24 
REMARK   10  A    between atoms: C_28  and  O_25 
REMARK   11  A    between atoms: C_30  and  C_26 
ROOT
ATOM      1  C   UNL d   1     -46.600  13.110  22.646  0.00  0.00     0.090 A 
ATOM      2  C   UNL d   1     -46.777  12.388  23.004  0.00  0.00     0.168 A 
ATOM      3  C   UNL d   1     -47.216  13.614  22.406  0.00  0.00     0.201 A 
ATOM      4  C   UNL d   1     -48.010  13.396  22.523  0.00  0.00     0.062 A 
ATOM      5  O   UNL d   1     -47.571  12.170  23.121  0.00  0.00    -0.301 OA
ATOM      6  C   UNL d   1     -48.187  12.673  22.881  0.00  0.00     0.105 A 
ATOM      7  C   UNL d   1     -48.609  13.895  22.284  0.00  0.00     0.007 A 
ATOM      8  C   UNL d   1     -48.963  12.452  22.999  0.00  0.00     0.050 A 
ATOM      9  C   UNL d   1     -49.580  12.955  22.759  0.00  0.00     0.105 A 
ATOM     10  C   UNL d   1     -49.403  13.677  22.401  0.00  0.00     0.023 A 
ATOM     11  O   UNL d   1     -47.039  14.336  22.049  0.00  0.00    -0.286 OA
ENDROOT
BRANCH   1  12
ATOM     12  C   UNL d   1     -45.807  13.329  22.529  0.00  0.00     0.105 A 
ATOM     13  O   UNL d   1     -45.336  12.989  21.942  0.00  0.00    -0.302 OA
ATOM     14  C   UNL d   1     -44.602  13.333  21.990  0.00  0.00     0.163 A 
ATOM     15  C   UNL d   1     -44.605  13.879  22.595  0.00  0.00     0.032 A 
ATOM     16  C   UNL d   1     -45.368  13.884  22.944  0.00  0.00     0.027 A 
BRANCH  14  17
ATOM     17  C   UNL d   1     -43.937  13.160  21.499  0.00  0.00     0.323 C 
ATOM     18  O   UNL d   1     -43.942  12.455  21.028  0.00  0.00    -0.257 OA
BRANCH  17  19
ATOM     19  O   UNL d   1     -43.290  13.656  21.467  0.00  0.00    -0.270 OA
BRANCH  19  20
ATOM     20  C   UNL d   1     -42.663  13.525  20.949  0.00  0.00     0.126 C 
ATOM     21  C   UNL d   1     -41.897  13.591  21.198  0.00  0.00     0.029 C 
ENDBRANCH  19  20
ENDBRANCH  17  19
ENDBRANCH  14  17
ENDBRANCH   1  12
BRANCH   2  22
ATOM     22  C   UNL d   1     -46.149  11.864  23.255  0.00  0.00     0.323 C 
ATOM     23  O   UNL d   1     -45.532  12.162  23.698  0.00  0.00    -0.257 OA
BRANCH  22  24
ATOM     24  O   UNL d   1     -46.167  11.064  23.051  0.00  0.00    -0.270 OA
BRANCH  24  25
ATOM     25  C   UNL d   1     -45.811  10.504  23.551  0.00  0.00     0.126 C 
ATOM     26  C   UNL d   1     -45.479   9.821  23.228  0.00  0.00     0.029 C 
ENDBRANCH  24  25
ENDBRANCH  22  24
ENDBRANCH   2  22
BRANCH  10  27
ATOM     27  C   UNL d   1     -50.031  14.199  22.152  0.00  0.00     0.002 C 
BRANCH  27  28
ATOM     28  C   UNL d   1     -50.000  14.990  22.386  0.00  0.00     0.000 C 
ATOM     29  C   UNL d   1     -50.550  15.523  22.041  0.00  0.00     0.000 C 
ENDBRANCH  27  28
ENDBRANCH  10  27
BRANCH   9  30
ATOM     30  O   UNL d   1     -50.394  12.722  22.884  0.00  0.00    -0.273 OA
BRANCH  30  31
ATOM     31  C   UNL d   1     -50.559  11.955  23.059  0.00  0.00     0.300 C 
ATOM     32  O   UNL d   1     -50.321  11.491  22.724  0.00  0.00    -0.259 OA
ATOM     33  C   UNL d   1     -51.052  11.767  23.690  0.00  0.00     0.074 C 
ENDBRANCH  30  31
ENDBRANCH   9  30
TORSDOF 11
ENDMDL
MODEL 4
REMARK VINA RESULT:      -1.7      1.091      2.581
REMARK  11 active torsions:
REMARK  status: ('A' for Active; 'I' for Inactive)
REMARK    1  A    between atoms: C_4  and  C_1 
REMARK    2  A    between atoms: C_10  and  C_2 
REMARK    3  A    between atoms: C_16  and  C_9 
REMARK    4  A    between atoms: O_24  and  C_10 
REMARK    5  A    between atoms: O_18  and  C_14 
REMARK    6  A    between atoms: O_25  and  C_16 
REMARK    7  A    between atoms: C_26  and  C_17 
REMARK    8  A    between atoms: C_19  and  O_18 
REMARK    9  A    between atoms: C_29  and  O_24 
REMARK   10  A    between atoms: C_28  and  O_25 
REMARK   11  A    between atoms: C_30  and  C_26 
ROOT
ATOM      1  C   UNL d   1     -47.183  12.885  22.811  0.00  0.00     0.090 A 
ATOM      2  C   UNL d   1     -46.879  13.584  22.495  0.00  0.00     0.168 A 
ATOM      3  C   UNL d   1     -46.682  12.231  22.921  0.00  0.00     0.201 A 
ATOM      4  C   UNL d   1     -45.877  12.274  22.716  0.00  0.00     0.062 A 
ATOM      5  O   UNL d   1     -46.074  13.628  22.290  0.00  0.00    -0.301 OA
ATOM      6  C   UNL d   1     -45.574  12.973  22.400  0.00  0.00     0.105 A 
ATOM      7  C   UNL d   1     -45.393  11.628  22.828  0.00  0.00     0.007 A 
ATOM      8  C   UNL d   1     -44.786  13.025  22.196  0.00  0.00     0.050 A 
ATOM      9  C   UNL d   1     -44.285  12.370  22.306  0.00  0.00     0.105 A 
ATOM     10  C   UNL d   1     -44.589  11.672  22.622  0.00  0.00     0.023 A 
ATOM     11  O   UNL d   1     -46.986  11.532  23.238  0.00  0.00    -0.286 OA
ENDROOT
BRANCH   1  12
ATOM     12  C   UNL d   1     -47.986  12.841  23.016  0.00  0.00     0.105 A 
ATOM     13  O   UNL d   1     -48.550  12.491  22.525  0.00  0.00    -0.302 OA
ATOM     14  C   UNL d   1     -49.268  12.548  22.901  0.00  0.00     0.163 A 
ATOM     15  C   UNL d   1     -49.164  12.925  23.615  0.00  0.00     0.032 A 
ATOM     16  C   UNL d   1     -48.351  13.116  23.698  0.00  0.00     0.027 A 
BRANCH  14  17
ATOM     17  C   UNL d   1     -50.008  12.265  22.608  0.00  0.00     0.323 C 
ATOM     18  O   UNL d   1     -50.214  11.450  22.717  0.00  0.00    -0.257 OA
BRANCH  17  19
ATOM     19  O   UNL d   1     -50.530  12.759  22.221  0.00  0.00    -0.270 OA
BRANCH  19  20
ATOM     20  C   UNL d   1     -50.847  12.569  21.485  0.00  0.00     0.126 C 
ATOM     21  C   UNL d   1     -51.057  13.148  20.961  0.00  0.00     0.029 C 
ENDBRANCH  19  20
ENDBRANCH  17  19
ENDBRANCH  14  17
ENDBRANCH   1  12
BRANCH   2  22
ATOM     22  C   UNL d   1     -47.386  14.262  22.378  0.00  0.00     0.323 C 
ATOM     23  O   UNL d   1     -47.608  14.712  23.022  0.00  0.00    -0.257 OA
BRANCH  22  24
ATOM     24  O   UNL d   1     -47.650  14.461  21.621  0.00  0.00    -0.270 OA
BRANCH  24  25
ATOM     25  C   UNL d   1     -47.857  15.248  21.451  0.00  0.00     0.126 C 
ATOM     26  C   UNL d   1     -48.468  15.403  20.919  0.00  0.00     0.029 C 
ENDBRANCH  24  25
ENDBRANCH  22  24
ENDBRANCH   2  22
BRANCH  10  27
ATOM     27  C   UNL d   1     -44.080  10.995  22.739  0.00  0.00     0.002 C 
BRANCH  27  28
ATOM     28  C   UNL d   1     -44.301  10.430  23.298  0.00  0.00     0.000 C 
ATOM     29  C   UNL d   1     -43.733   9.849  23.513  0.00  0.00     0.000 C 
ENDBRANCH  27  28
ENDBRANCH  10  27
BRANCH   9  30
ATOM     30  O   UNL d   1     -43.458  12.425  22.092  0.00  0.00    -0.273 OA
BRANCH  30  31
ATOM     31  C   UNL d   1     -43.209  13.045  21.644  0.00  0.00     0.300 C 
ATOM     32  O   UNL d   1     -43.307  13.630  21.824  0.00  0.00    -0.259 OA
ATOM     33  C   UNL d   1     -42.817  12.916  20.932  0.00  0.00     0.074 C 
ENDBRANCH  30  31
ENDBRANCH   9  30
TORSDOF 11
ENDMDL
