MODEL 1
REMARK VINA RESULT:       1.0      0.000      0.000
REMARK  3 active torsions:
REMARK  status: ('A' for Active; 'I' for Inactive)
REMARK    1  A    between atoms: N_9  and  C_3 
REMARK    2  A    between atoms: C_14  and  C_5 
REMARK       I    between atoms: C_10  and  N_11 
REMARK    3  A    between atoms: C_13  and  C_10 
ROOT
ATOM      1  N   UNL d   1     -41.844-122.227 -52.167  0.00  0.00    -0.196 N 
ATOM      2  C   UNL d   1     -41.796-121.810 -52.875  0.00  0.00     0.167 A 
ATOM      3  C   UNL d   1     -41.768-121.832 -51.449  0.00  0.00     0.152 A 
ATOM      4  N   UNL d   1     -41.969-123.017 -52.345  0.00  0.00    -0.163 NA
ATOM      5  C   UNL d   1     -41.891-122.345 -53.487  0.00  0.00     0.055 A 
ATOM      6  C   UNL d   1     -41.998-123.090 -53.164  0.00  0.00     0.104 A 
ATOM      7  N   UNL d   1     -41.671-120.997 -52.867  0.00  0.00    -0.227 NA
ATOM      8  C   UNL d   1     -41.642-121.011 -51.437  0.00  0.00     0.057 A 
ATOM      9  C   UNL d   1     -41.594-120.594 -52.145  0.00  0.00     0.086 A 
ATOM     10  C   UNL d   1     -42.114-123.785 -53.591  0.00  0.00     0.023 C 
ATOM     11  C   UNL d   1     -41.468-119.773 -52.143  0.00  0.00     0.021 C 
ENDROOT
BRANCH   3  12
ATOM     12  N   UNL d   1     -41.817-122.252 -50.735  0.00  0.00    -0.286 N 
ATOM     13  C   UNL d   1     -42.536-122.377 -50.355  0.00  0.00     0.101 A 
ATOM     14  C   UNL d   1     -42.560-122.797 -49.646  0.00  0.00     0.102 A 
ATOM     15  N   UNL d   1     -41.878-123.092 -49.317  0.00  0.00    -0.267 N 
ATOM     16  C   UNL d   1     -41.910-123.516 -48.601  0.00  0.00     0.288 C 
ATOM     17  C   UNL d   1     -41.147-122.971 -49.695  0.00  0.00     0.102 A 
ATOM     18  O   UNL d   1     -41.229-123.817 -48.262  0.00  0.00    -0.264 OA
ATOM     19  C   UNL d   1     -41.123-122.550 -50.404  0.00  0.00     0.101 A 
BRANCH  16  20
ATOM     20  C   UNL d   1     -42.640-123.631 -48.235  0.00  0.00     0.156 A 
ATOM     21  O   UNL d   1     -43.397-123.710 -48.527  0.00  0.00    -0.300 OA
ATOM     22  C   UNL d   1     -43.904-123.812 -47.888  0.00  0.00     0.123 A 
ATOM     23  C   UNL d   1     -43.472-123.796 -47.208  0.00  0.00     0.029 A 
ATOM     24  C   UNL d   1     -42.682-123.684 -47.412  0.00  0.00     0.032 A 
ENDBRANCH  16  20
ENDBRANCH   3  12
BRANCH   5  25
ATOM     25  C   UNL d   1     -41.894-122.247 -54.311  0.00  0.00     0.004 A 
ATOM     26  C   UNL d   1     -41.202-122.374 -54.742  0.00  0.00     0.000 A 
ATOM     27  C   UNL d   1     -41.205-122.277 -55.566  0.00  0.00     0.000 A 
ATOM     28  C   UNL d   1     -41.898-122.052 -55.954  0.00  0.00     0.000 A 
ATOM     29  C   UNL d   1     -42.592-121.925 -55.518  0.00  0.00     0.000 A 
ATOM     30  C   UNL d   1     -42.586-122.023 -54.699  0.00  0.00     0.000 A 
ENDBRANCH   5  25
TORSDOF 3
ENDMDL
