MODEL 1
REMARK VINA RESULT:      14.7      0.000      0.000
REMARK  1 active torsions:
REMARK  status: ('A' for Active; 'I' for Inactive)
REMARK    1  A    between atoms: C_5  and  N_1 
ROOT
ATOM      1  N   UNL d   1     -51.404  26.095  33.306  0.00  0.00    -0.226 N 
ATOM      2  C   UNL d   1     -51.835  26.796  33.306  0.00  0.00     0.359 A 
ATOM      3  C   UNL d   1     -50.575  26.119  33.306  0.00  0.00     0.273 A 
ATOM      4  N   UNL d   1     -51.445  27.525  33.306  0.00  0.00    -0.153 NA
ATOM      5  C   UNL d   1     -50.617  27.549  33.306  0.00  0.00     0.288 A 
ATOM      6  C   UNL d   1     -50.181  26.844  33.306  0.00  0.00     0.124 A 
ATOM      7  O   UNL d   1     -52.656  26.780  33.306  0.00  0.00    -0.244 OA
ATOM      8  O   UNL d   1     -50.140  25.423  33.306  0.00  0.00    -0.266 OA
ATOM      9  O   UNL d   1     -50.222  28.269  33.306  0.00  0.00    -0.265 OA
ENDROOT
BRANCH   1  10
ATOM     10  C   UNL d   1     -51.794  25.375  33.306  0.00  0.00     0.072 A 
ATOM     11  C   UNL d   1     -51.350  24.665  33.306  0.00  0.00     0.029 A 
ATOM     12  C   UNL d   1     -51.740  23.945  33.306  0.00  0.00     0.059 A 
ATOM     13 CL   UNL d   1     -51.296  23.248  33.306  0.00  0.00    -0.082 Cl
ATOM     14  C   UNL d   1     -52.560  23.913  33.306  0.00  0.00     0.011 A 
ATOM     15  C   UNL d   1     -52.996  24.618  33.306  0.00  0.00     0.002 A 
ATOM     16  C   UNL d   1     -52.954  23.188  33.306  0.00  0.00     0.001 C 
ATOM     17  C   UNL d   1     -52.606  25.351  33.306  0.00  0.00     0.018 A 
ENDBRANCH   1  10
TORSDOF 1
ENDMDL
MODEL 2
REMARK VINA RESULT:      15.8      0.904      1.617
REMARK  1 active torsions:
REMARK  status: ('A' for Active; 'I' for Inactive)
REMARK    1  A    between atoms: C_5  and  N_1 
ROOT
ATOM      1  N   UNL d   1     -50.953  25.809  33.358  0.00  0.00    -0.226 N 
ATOM      2  C   UNL d   1     -50.136  25.710  33.346  0.00  0.00     0.359 A 
ATOM      3  C   UNL d   1     -51.277  26.572  33.382  0.00  0.00     0.273 A 
ATOM      4  N   UNL d   1     -49.637  26.368  33.359  0.00  0.00    -0.153 NA
ATOM      5  C   UNL d   1     -49.961  27.131  33.384  0.00  0.00     0.288 A 
ATOM      6  C   UNL d   1     -50.783  27.233  33.395  0.00  0.00     0.124 A 
ATOM      7  O   UNL d   1     -49.808  24.957  33.322  0.00  0.00    -0.244 OA
ATOM      8  O   UNL d   1     -52.092  26.677  33.394  0.00  0.00    -0.266 OA
ATOM      9  O   UNL d   1     -49.470  27.790  33.397  0.00  0.00    -0.265 OA
ENDROOT
BRANCH   1  10
ATOM     10  C   UNL d   1     -51.445  25.154  33.345  0.00  0.00     0.072 A 
ATOM     11  C   UNL d   1     -52.275  25.262  33.337  0.00  0.00     0.029 A 
ATOM     12  C   UNL d   1     -52.768  24.608  33.324  0.00  0.00     0.059 A 
ATOM     13 CL   UNL d   1     -53.586  24.720  33.316  0.00  0.00    -0.082 Cl
ATOM     14  C   UNL d   1     -52.454  23.849  33.319  0.00  0.00     0.011 A 
ATOM     15  C   UNL d   1     -51.632  23.746  33.327  0.00  0.00     0.002 A 
ATOM     16  C   UNL d   1     -52.949  23.188  33.306  0.00  0.00     0.001 C 
ATOM     17  C   UNL d   1     -51.128  24.407  33.340  0.00  0.00     0.018 A 
ENDBRANCH   1  10
TORSDOF 1
ENDMDL
