MODEL 1
REMARK VINA RESULT:       0.7      0.000      0.000
REMARK  6 active torsions:
REMARK  status: ('A' for Active; 'I' for Inactive)
REMARK    1  A    between atoms: C_7  and  C_2 
REMARK    2  A    between atoms: C_16  and  N_3 
REMARK    3  A    between atoms: O_17  and  C_9 
REMARK    4  A    between atoms: O_19  and  C_10 
REMARK    5  A    between atoms: O_18  and  C_11 
REMARK    6  A    between atoms: C_25  and  C_16 
ROOT
ATOM      1  N   UNL d   1      32.477  20.250 -21.625  0.00  0.00    -0.206 NA
ATOM      2  C   UNL d   1      32.690  21.040 -21.759  0.00  0.00     0.151 A 
ATOM      3  N   UNL d   1      32.971  21.099 -22.539  0.00  0.00    -0.273 N 
ATOM      4  C   UNL d   1      32.927  20.348 -22.874  0.00  0.00     0.185 A 
ATOM      5  C   UNL d   1      32.623  19.824 -22.315  0.00  0.00     0.199 A 
ATOM      6  N   UNL d   1      33.127  20.064 -23.631  0.00  0.00    -0.224 NA
ATOM      7  N   UNL d   1      32.520  19.029 -22.502  0.00  0.00    -0.223 NA
ATOM      8  C   UNL d   1      33.022  19.267 -23.815  0.00  0.00     0.101 A 
ATOM      9  C   UNL d   1      32.717  18.750 -23.248  0.00  0.00     0.101 A 
ATOM     10  C   UNL d   1      33.224  18.993 -24.571  0.00  0.00     0.021 A 
ATOM     11  C   UNL d   1      32.613  17.960 -23.434  0.00  0.00     0.021 A 
ATOM     12  C   UNL d   1      32.812  17.680 -24.183  0.00  0.00     0.002 A 
ATOM     13  C   UNL d   1      33.117  18.197 -24.750  0.00  0.00     0.002 A 
ENDROOT
BRANCH   2  14
ATOM     14  C   UNL d   1      32.634  21.655 -21.219  0.00  0.00     0.039 A 
ATOM     15  C   UNL d   1      32.236  22.369 -21.439  0.00  0.00     0.029 A 
ATOM     16  C   UNL d   1      32.170  23.003 -20.903  0.00  0.00     0.118 A 
ATOM     17  C   UNL d   1      32.506  22.919 -20.142  0.00  0.00     0.138 A 
ATOM     18  C   UNL d   1      32.904  22.205 -19.922  0.00  0.00     0.118 A 
ATOM     19  C   UNL d   1      32.971  21.565 -20.460  0.00  0.00     0.029 A 
BRANCH  16  20
ATOM     20  O   UNL d   1      31.781  23.702 -21.118  0.00  0.00    -0.326 OA
ATOM     21  C   UNL d   1      30.854  23.656 -21.603  0.00  0.00     0.181 C 
ENDBRANCH  16  20
BRANCH  17  22
ATOM     22  O   UNL d   1      32.453  23.529 -19.599  0.00  0.00    -0.324 OA
ATOM     23  C   UNL d   1      31.751  23.506 -18.776  0.00  0.00     0.182 C 
ENDBRANCH  17  22
BRANCH  18  24
ATOM     24  O   UNL d   1      33.241  22.115 -19.163  0.00  0.00    -0.326 OA
ATOM     25  C   UNL d   1      33.201  21.143 -18.630  0.00  0.00     0.181 C 
ENDBRANCH  18  24
ENDBRANCH   2  14
BRANCH   3  26
ATOM     26  C   UNL d   1      33.241  21.781 -22.904  0.00  0.00     0.083 C 
BRANCH  26  27
ATOM     27  C   UNL d   1      32.842  22.087 -23.553  0.00  0.00     0.019 C 
ATOM     28  C   UNL d   1      33.162  22.718 -23.973  0.00  0.00     0.002 C 
ENDBRANCH  26  27
ENDBRANCH   3  26
TORSDOF 6
ENDMDL
MODEL 2
REMARK VINA RESULT:       1.4      2.097      4.864
REMARK  6 active torsions:
REMARK  status: ('A' for Active; 'I' for Inactive)
REMARK    1  A    between atoms: C_7  and  C_2 
REMARK    2  A    between atoms: C_16  and  N_3 
REMARK    3  A    between atoms: O_17  and  C_9 
REMARK    4  A    between atoms: O_19  and  C_10 
REMARK    5  A    between atoms: O_18  and  C_11 
REMARK    6  A    between atoms: C_25  and  C_16 
ROOT
ATOM      1  N   UNL d   1      32.975  20.716 -21.178  0.00  0.00    -0.206 NA
ATOM      2  C   UNL d   1      33.078  20.974 -21.959  0.00  0.00     0.151 A 
ATOM      3  N   UNL d   1      33.134  21.802 -21.948  0.00  0.00    -0.273 N 
ATOM      4  C   UNL d   1      33.065  22.043 -21.163  0.00  0.00     0.185 A 
ATOM      5  C   UNL d   1      32.967  21.377 -20.687  0.00  0.00     0.199 A 
ATOM      6  N   UNL d   1      33.079  22.797 -20.809  0.00  0.00    -0.224 NA
ATOM      7  N   UNL d   1      32.884  21.457 -19.872  0.00  0.00    -0.223 NA
ATOM      8  C   UNL d   1      32.995  22.872 -19.992  0.00  0.00     0.101 A 
ATOM      9  C   UNL d   1      32.897  22.199 -19.524  0.00  0.00     0.101 A 
ATOM     10  C   UNL d   1      33.010  23.627 -19.649  0.00  0.00     0.021 A 
ATOM     11  C   UNL d   1      32.814  22.277 -18.714  0.00  0.00     0.021 A 
ATOM     12  C   UNL d   1      32.828  23.023 -18.365  0.00  0.00     0.002 A 
ATOM     13  C   UNL d   1      32.926  23.697 -18.833  0.00  0.00     0.002 A 
ENDROOT
BRANCH   2  14
ATOM     14  C   UNL d   1      33.117  20.496 -22.625  0.00  0.00     0.039 A 
ATOM     15  C   UNL d   1      33.132  19.654 -22.535  0.00  0.00     0.029 A 
ATOM     16  C   UNL d   1      33.172  19.155 -23.199  0.00  0.00     0.118 A 
ATOM     17  C   UNL d   1      33.197  19.502 -23.959  0.00  0.00     0.138 A 
ATOM     18  C   UNL d   1      33.183  20.344 -24.050  0.00  0.00     0.118 A 
ATOM     19  C   UNL d   1      33.143  20.849 -23.381  0.00  0.00     0.029 A 
BRANCH  16  20
ATOM     20  O   UNL d   1      33.186  18.331 -23.111  0.00  0.00    -0.326 OA
ATOM     21  C   UNL d   1      33.107  17.907 -22.157  0.00  0.00     0.181 C 
ENDBRANCH  16  20
BRANCH  17  22
ATOM     22  O   UNL d   1      33.237  19.031 -24.627  0.00  0.00    -0.324 OA
ATOM     23  C   UNL d   1      32.352  18.610 -25.086  0.00  0.00     0.182 C 
ENDBRANCH  17  22
BRANCH  18  24
ATOM     24  O   UNL d   1      33.208  20.697 -24.806  0.00  0.00    -0.326 OA
ATOM     25  C   UNL d   1      32.490  21.493 -25.091  0.00  0.00     0.181 C 
ENDBRANCH  18  24
ENDBRANCH   2  14
BRANCH   3  26
ATOM     26  C   UNL d   1      33.239  22.288 -22.599  0.00  0.00     0.083 C 
BRANCH  26  27
ATOM     27  C   UNL d   1      32.860  23.016 -22.636  0.00  0.00     0.019 C 
ATOM     28  C   UNL d   1      33.086  23.569 -23.201  0.00  0.00     0.002 C 
ENDBRANCH  26  27
ENDBRANCH   3  26
TORSDOF 6
ENDMDL
MODEL 3
REMARK VINA RESULT:       2.5      1.119      2.117
REMARK  6 active torsions:
REMARK  status: ('A' for Active; 'I' for Inactive)
REMARK    1  A    between atoms: C_7  and  C_2 
REMARK    2  A    between atoms: C_16  and  N_3 
REMARK    3  A    between atoms: O_17  and  C_9 
REMARK    4  A    between atoms: O_19  and  C_10 
REMARK    5  A    between atoms: O_18  and  C_11 
REMARK    6  A    between atoms: C_25  and  C_16 
ROOT
ATOM      1  N   UNL d   1      33.002  19.250 -21.981  0.00  0.00    -0.206 NA
ATOM      2  C   UNL d   1      33.095  19.972 -22.378  0.00  0.00     0.151 A 
ATOM      3  N   UNL d   1      33.146  19.810 -23.191  0.00  0.00    -0.273 N 
ATOM      4  C   UNL d   1      33.084  18.994 -23.284  0.00  0.00     0.185 A 
ATOM      5  C   UNL d   1      32.995  18.647 -22.542  0.00  0.00     0.199 A 
ATOM      6  N   UNL d   1      33.096  18.509 -23.962  0.00  0.00    -0.224 NA
ATOM      7  N   UNL d   1      32.920  17.830 -22.471  0.00  0.00    -0.223 NA
ATOM      8  C   UNL d   1      33.020  17.691 -23.886  0.00  0.00     0.101 A 
ATOM      9  C   UNL d   1      32.932  17.353 -23.138  0.00  0.00     0.101 A 
ATOM     10  C   UNL d   1      33.033  17.216 -24.565  0.00  0.00     0.021 A 
ATOM     11  C   UNL d   1      32.857  16.542 -23.066  0.00  0.00     0.021 A 
ATOM     12  C   UNL d   1      32.869  16.063 -23.737  0.00  0.00     0.002 A 
ATOM     13  C   UNL d   1      32.957  16.401 -24.485  0.00  0.00     0.002 A 
ENDROOT
BRANCH   2  14
ATOM     14  C   UNL d   1      33.131  20.714 -22.030  0.00  0.00     0.039 A 
ATOM     15  C   UNL d   1      33.152  20.779 -21.186  0.00  0.00     0.029 A 
ATOM     16  C   UNL d   1      33.188  21.524 -20.816  0.00  0.00     0.118 A 
ATOM     17  C   UNL d   1      33.204  22.207 -21.296  0.00  0.00     0.138 A 
ATOM     18  C   UNL d   1      33.184  22.143 -22.140  0.00  0.00     0.118 A 
ATOM     19  C   UNL d   1      33.147  21.394 -22.515  0.00  0.00     0.029 A 
BRANCH  16  20
ATOM     20  O   UNL d   1      33.208  21.587 -19.990  0.00  0.00    -0.326 OA
ATOM     21  C   UNL d   1      32.890  20.785 -19.397  0.00  0.00     0.181 C 
ENDBRANCH  16  20
BRANCH  17  22
ATOM     22  O   UNL d   1      33.240  22.950 -20.955  0.00  0.00    -0.324 OA
ATOM     23  C   UNL d   1      32.531  23.271 -20.203  0.00  0.00     0.182 C 
ENDBRANCH  17  22
BRANCH  18  24
ATOM     24  O   UNL d   1      33.199  22.823 -22.625  0.00  0.00    -0.326 OA
ATOM     25  C   UNL d   1      32.351  23.536 -22.639  0.00  0.00     0.181 C 
ENDBRANCH  18  24
ENDBRANCH   2  14
BRANCH   3  26
ATOM     26  C   UNL d   1      33.241  20.363 -23.787  0.00  0.00     0.083 C 
BRANCH  26  27
ATOM     27  C   UNL d   1      32.765  20.334 -24.456  0.00  0.00     0.019 C 
ATOM     28  C   UNL d   1      32.760  20.963 -24.986  0.00  0.00     0.002 C 
ENDBRANCH  26  27
ENDBRANCH   3  26
TORSDOF 6
ENDMDL
