MODEL 1
REMARK VINA RESULT:      -5.5      0.000      0.000
REMARK  4 active torsions:
REMARK  status: ('A' for Active; 'I' for Inactive)
REMARK    1  A    between atoms: N_2  and  C_1 
REMARK    2  A    between atoms: C_3  and  C_1 
REMARK       I    between atoms: C_6  and  N_2 
REMARK       I    between atoms: N_8  and  C_6 
REMARK    3  A    between atoms: N_11  and  C_7 
REMARK    4  A    between atoms: C_9  and  N_8 
ROOT
ATOM      1  N   UNL d   1      57.539   0.548  32.136  0.00  0.00    -0.159 NA
ATOM      2  C   UNL d   1      57.565   0.154  31.413  0.00  0.00     0.370 C 
ATOM      3  N   UNL d   1      58.011   0.462  30.799  0.00  0.00    -0.172 NA
ATOM      4  O   UNL d   1      57.144  -0.548  31.306  0.00  0.00    -0.243 OA
ENDROOT
BRANCH   1   5
ATOM      5  C   UNL d   1      57.268   0.600  32.905  0.00  0.00     0.386 A 
ATOM      6  O   UNL d   1      56.539   0.550  32.520  0.00  0.00    -0.283 OA
ATOM      7  C   UNL d   1      55.939   0.577  33.084  0.00  0.00     0.121 A 
ATOM      8  C   UNL d   1      55.117   0.550  33.019  0.00  0.00     0.026 A 
ATOM      9  C   UNL d   1      56.297   0.643  33.827  0.00  0.00     0.121 A 
ATOM     10  C   UNL d   1      54.654   0.589  33.696  0.00  0.00     0.002 A 
ATOM     11  C   UNL d   1      55.009   0.655  34.445  0.00  0.00     0.002 A 
ATOM     12  C   UNL d   1      55.830   0.682  34.502  0.00  0.00     0.026 A 
ATOM     13  O   UNL d   1      57.109   0.657  33.716  0.00  0.00    -0.283 OA
BRANCH   5  14
ATOM     14  C   UNL d   1      58.044   0.642  33.181  0.00  0.00     0.470 C 
ATOM     15  F   UNL d   1      58.778   0.676  32.741  0.00  0.00    -0.164 F 
ATOM     16  F   UNL d   1      58.328   0.663  33.999  0.00  0.00    -0.164 F 
ATOM     17  F   UNL d   1      58.749   0.680  33.439  0.00  0.00    -0.164 F 
ENDBRANCH   5  14
ENDBRANCH   1   5
BRANCH   3  18
ATOM     18  C   UNL d   1      58.166   0.228  30.017  0.00  0.00     0.172 A 
ATOM     19  C   UNL d   1      58.636  -0.427  29.875  0.00  0.00     0.076 A 
ATOM     20  C   UNL d   1      58.794  -0.665  29.100  0.00  0.00     0.153 A 
ATOM     21  N   UNL d   1      58.468  -0.232  28.464  0.00  0.00    -0.206 NA
ATOM     22  C   UNL d   1      57.995   0.426  28.614  0.00  0.00     0.202 A 
ATOM     23  N   UNL d   1      57.840   0.661  29.388  0.00  0.00    -0.205 NA
BRANCH  20  24
ATOM     24  N   UNL d   1      59.267  -1.324  28.950  0.00  0.00    -0.285 N 
ATOM     25  C   UNL d   1      60.082  -1.238  28.896  0.00  0.00     0.108 A 
ATOM     26  C   UNL d   1      60.545  -1.905  28.745  0.00  0.00     0.142 A 
ATOM     27  O   UNL d   1      60.202  -2.645  28.649  0.00  0.00    -0.300 OA
ATOM     28  C   UNL d   1      59.384  -2.722  28.705  0.00  0.00     0.142 A 
ATOM     29  C   UNL d   1      58.910  -2.064  28.855  0.00  0.00     0.108 A 
ENDBRANCH  20  24
ENDBRANCH   3  18
TORSDOF 4
ENDMDL
MODEL 2
REMARK VINA RESULT:      -4.5      1.805      5.499
REMARK  4 active torsions:
REMARK  status: ('A' for Active; 'I' for Inactive)
REMARK    1  A    between atoms: N_2  and  C_1 
REMARK    2  A    between atoms: C_3  and  C_1 
REMARK       I    between atoms: C_6  and  N_2 
REMARK       I    between atoms: N_8  and  C_6 
REMARK    3  A    between atoms: N_11  and  C_7 
REMARK    4  A    between atoms: C_9  and  N_8 
ROOT
ATOM      1  N   UNL d   1      59.527  -1.021  29.723  0.00  0.00    -0.159 NA
ATOM      2  C   UNL d   1      58.737  -0.812  29.835  0.00  0.00     0.370 C 
ATOM      3  N   UNL d   1      58.537  -0.295  30.438  0.00  0.00    -0.172 NA
ATOM      4  O   UNL d   1      58.151  -1.121  29.343  0.00  0.00    -0.243 OA
ENDROOT
BRANCH   1   5
ATOM      5  C   UNL d   1      60.097  -1.437  29.314  0.00  0.00     0.386 A 
ATOM      6  O   UNL d   1      59.603  -2.068  29.513  0.00  0.00    -0.283 OA
ATOM      7  C   UNL d   1      59.925  -2.764  29.209  0.00  0.00     0.121 A 
ATOM      8  C   UNL d   1      59.673  -3.548  29.238  0.00  0.00     0.026 A 
ATOM      9  C   UNL d   1      60.626  -2.564  28.818  0.00  0.00     0.121 A 
ATOM     10  C   UNL d   1      60.121  -4.133  28.876  0.00  0.00     0.002 A 
ATOM     11  C   UNL d   1      60.826  -3.938  28.481  0.00  0.00     0.002 A 
ATOM     12  C   UNL d   1      61.072  -3.152  28.457  0.00  0.00     0.026 A 
ATOM     13  O   UNL d   1      60.730  -1.753  28.882  0.00  0.00    -0.283 OA
BRANCH   5  14
ATOM     14  C   UNL d   1      60.513  -0.739  29.173  0.00  0.00     0.470 C 
ATOM     15  F   UNL d   1      61.075  -0.328  29.673  0.00  0.00    -0.164 F 
ATOM     16  F   UNL d   1      60.493  -0.227  28.473  0.00  0.00    -0.164 F 
ATOM     17  F   UNL d   1      60.889  -0.102  29.038  0.00  0.00    -0.164 F 
ENDBRANCH   5  14
ENDBRANCH   1   5
BRANCH   3  18
ATOM     18  C   UNL d   1      57.823   0.032  30.710  0.00  0.00     0.172 A 
ATOM     19  C   UNL d   1      57.665   0.051  31.513  0.00  0.00     0.076 A 
ATOM     20  C   UNL d   1      56.957   0.375  31.790  0.00  0.00     0.153 A 
ATOM     21  N   UNL d   1      56.405   0.681  31.243  0.00  0.00    -0.206 NA
ATOM     22  C   UNL d   1      56.570   0.658  30.436  0.00  0.00     0.202 A 
ATOM     23  N   UNL d   1      57.277   0.335  30.163  0.00  0.00    -0.205 NA
BRANCH  20  24
ATOM     24  N   UNL d   1      56.792   0.398  32.598  0.00  0.00    -0.285 N 
ATOM     25  C   UNL d   1      56.050   0.175  32.870  0.00  0.00     0.108 A 
ATOM     26  C   UNL d   1      55.897   0.203  33.681  0.00  0.00     0.142 A 
ATOM     27  O   UNL d   1      56.473   0.448  34.212  0.00  0.00    -0.300 OA
ATOM     28  C   UNL d   1      57.215   0.669  33.931  0.00  0.00     0.142 A 
ATOM     29  C   UNL d   1      57.381   0.646  33.123  0.00  0.00     0.108 A 
ENDBRANCH  20  24
ENDBRANCH   3  18
TORSDOF 4
ENDMDL
MODEL 3
REMARK VINA RESULT:      -3.2      1.775      2.164
REMARK  4 active torsions:
REMARK  status: ('A' for Active; 'I' for Inactive)
REMARK    1  A    between atoms: N_2  and  C_1 
REMARK    2  A    between atoms: C_3  and  C_1 
REMARK       I    between atoms: C_6  and  N_2 
REMARK       I    between atoms: N_8  and  C_6 
REMARK    3  A    between atoms: N_11  and  C_7 
REMARK    4  A    between atoms: C_9  and  N_8 
ROOT
ATOM      1  N   UNL d   1      56.581  -0.430  32.497  0.00  0.00    -0.159 NA
ATOM      2  C   UNL d   1      56.748  -0.016  31.804  0.00  0.00     0.370 C 
ATOM      3  N   UNL d   1      57.319  -0.300  31.290  0.00  0.00    -0.172 NA
ATOM      4  O   UNL d   1      56.342   0.681  31.628  0.00  0.00    -0.243 OA
ENDROOT
BRANCH   1   5
ATOM      5  C   UNL d   1      56.159  -0.507  33.191  0.00  0.00     0.386 A 
ATOM      6  O   UNL d   1      56.751   0.000  33.462  0.00  0.00    -0.283 OA
ATOM      7  C   UNL d   1      56.618   0.162  34.260  0.00  0.00     0.121 A 
ATOM      8  C   UNL d   1      57.025   0.627  34.806  0.00  0.00     0.026 A 
ATOM      9  C   UNL d   1      55.936  -0.249  34.487  0.00  0.00     0.121 A 
ATOM     10  C   UNL d   1      56.752   0.681  35.578  0.00  0.00     0.002 A 
ATOM     11  C   UNL d   1      56.068   0.270  35.811  0.00  0.00     0.002 A 
ATOM     12  C   UNL d   1      55.667  -0.192  35.261  0.00  0.00     0.026 A 
ATOM     13  O   UNL d   1      55.657  -0.657  33.834  0.00  0.00    -0.283 OA
BRANCH   5  14
ATOM     14  C   UNL d   1      55.623  -1.009  32.816  0.00  0.00     0.470 C 
ATOM     15  F   UNL d   1      54.792  -0.888  32.642  0.00  0.00    -0.164 F 
ATOM     16  F   UNL d   1      55.757  -1.802  32.492  0.00  0.00    -0.164 F 
ATOM     17  F   UNL d   1      55.139  -1.471  32.473  0.00  0.00    -0.164 F 
ENDBRANCH   5  14
ENDBRANCH   1   5
BRANCH   3  18
ATOM     18  C   UNL d   1      57.626  -0.041  30.563  0.00  0.00     0.172 A 
ATOM     19  C   UNL d   1      58.422  -0.144  30.398  0.00  0.00     0.076 A 
ATOM     20  C   UNL d   1      58.734   0.111  29.677  0.00  0.00     0.153 A 
ATOM     21  N   UNL d   1      58.230   0.475  29.118  0.00  0.00    -0.206 NA
ATOM     22  C   UNL d   1      57.430   0.576  29.290  0.00  0.00     0.202 A 
ATOM     23  N   UNL d   1      57.122   0.320  30.010  0.00  0.00    -0.205 NA
BRANCH  20  24
ATOM     24  N   UNL d   1      59.534   0.010  29.505  0.00  0.00    -0.285 N 
ATOM     25  C   UNL d   1      59.791  -0.681  29.146  0.00  0.00     0.108 A 
ATOM     26  C   UNL d   1      60.595  -0.771  28.978  0.00  0.00     0.142 A 
ATOM     27  O   UNL d   1      61.133  -0.180  29.166  0.00  0.00    -0.300 OA
ATOM     28  C   UNL d   1      60.867   0.511  29.527  0.00  0.00     0.142 A 
ATOM     29  C   UNL d   1      60.067   0.612  29.699  0.00  0.00     0.108 A 
ENDBRANCH  20  24
ENDBRANCH   3  18
TORSDOF 4
ENDMDL
