MODEL 1
REMARK VINA RESULT:      59.4      0.000      0.000
REMARK  4 active torsions:
REMARK  status: ('A' for Active; 'I' for Inactive)
REMARK    1  A    between atoms: N_2  and  C_1 
REMARK       I    between atoms: C_6  and  N_2 
REMARK    2  A    between atoms: C_16  and  N_3 
REMARK    3  A    between atoms: C_8  and  C_6 
REMARK    4  A    between atoms: O_19  and  C_12 
ROOT
ATOM      1  C   UNL d   1     -51.664  26.183  34.008  0.00  0.00    -0.031 C 
ATOM      2  C   UNL d   1     -51.488  26.593  34.715  0.00  0.00    -0.008 C 
ATOM      3  C   UNL d   1     -51.839  25.778  33.308  0.00  0.00     0.133 C 
ENDROOT
BRANCH   3   4
ATOM      4  N   UNL d   1     -51.999  24.955  33.331  0.00  0.00    -0.276 N 
ATOM      5  C   UNL d   1     -51.441  24.338  33.336  0.00  0.00     0.183 A 
ATOM      6  S   UNL d   1     -51.830  23.637  33.359  0.00  0.00    -0.048 SA
ATOM      7  C   UNL d   1     -52.647  23.781  33.370  0.00  0.00     0.050 A 
ATOM      8  C   UNL d   1     -53.290  23.288  33.393  0.00  0.00     0.008 A 
ATOM      9  C   UNL d   1     -52.739  24.602  33.352  0.00  0.00     0.095 A 
ATOM     10  C   UNL d   1     -54.058  23.598  33.399  0.00  0.00     0.003 A 
ATOM     11  C   UNL d   1     -54.155  24.436  33.380  0.00  0.00     0.026 A 
ATOM     12  C   UNL d   1     -53.502  24.915  33.357  0.00  0.00     0.111 A 
BRANCH   5  13
ATOM     13  N   UNL d   1     -50.596  24.425  33.319  0.00  0.00    -0.183 NA
ATOM     14  C   UNL d   1     -50.126  23.857  33.673  0.00  0.00     0.287 C 
ATOM     15  O   UNL d   1     -50.462  23.200  34.047  0.00  0.00    -0.265 OA
BRANCH  14  16
ATOM     16  C   UNL d   1     -49.306  23.942  33.657  0.00  0.00     0.087 A 
ATOM     17  S   UNL d   1     -48.875  24.625  33.423  0.00  0.00    -0.082 SA
ATOM     18  C   UNL d   1     -48.078  24.465  33.493  0.00  0.00     0.036 A 
ATOM     19  C   UNL d   1     -47.994  23.694  33.766  0.00  0.00     0.008 A 
ATOM     20  C   UNL d   1     -48.743  23.376  33.866  0.00  0.00     0.012 A 
ENDBRANCH  14  16
ENDBRANCH   5  13
BRANCH  12  21
ATOM     21  O   UNL d   1     -53.613  25.749  33.339  0.00  0.00    -0.327 OA
ATOM     22  C   UNL d   1     -54.294  26.076  33.676  0.00  0.00     0.181 C 
ENDBRANCH  12  21
ENDBRANCH   3   4
TORSDOF 4
ENDMDL
