MODEL 1
REMARK VINA RESULT:      -2.6      0.000      0.000
REMARK  5 active torsions:
REMARK  status: ('A' for Active; 'I' for Inactive)
REMARK    1  A    between atoms: C_2  and  C_1 
REMARK    2  A    between atoms: C_3  and  C_1 
REMARK    3  A    between atoms: C_4  and  C_2 
REMARK    4  A    between atoms: O_9  and  C_6 
REMARK    5  A    between atoms: O_10  and  C_7 
ROOT
ATOM      1  C   UNL d   1      30.348  16.342 -24.319  0.00  0.00     0.236 C 
ATOM      2  O   UNL d   1      30.440  16.583 -25.095  0.00  0.00    -0.283 OA
ENDROOT
BRANCH   1   3
ATOM      3  C   UNL d   1      30.996  16.192 -23.829  0.00  0.00     0.236 C 
ATOM      4  O   UNL d   1      30.901  16.097 -23.026  0.00  0.00    -0.283 OA
BRANCH   3   5
ATOM      5  C   UNL d   1      31.763  16.137 -24.165  0.00  0.00     0.065 A 
ATOM      6  C   UNL d   1      32.364  16.613 -23.926  0.00  0.00     0.097 A 
ATOM      7  C   UNL d   1      33.119  16.547 -24.267  0.00  0.00     0.024 A 
ATOM      8  C   UNL d   1      33.240  15.986 -24.854  0.00  0.00     0.002 A 
ATOM      9  C   UNL d   1      32.637  15.506 -25.097  0.00  0.00     0.000 A 
ATOM     10  C   UNL d   1      31.884  15.575 -24.752  0.00  0.00     0.005 A 
BRANCH   6  11
ATOM     11  O   UNL d   1      32.238  17.182 -23.328  0.00  0.00    -0.328 OA
ATOM     12  C   UNL d   1      32.761  17.658 -23.127  0.00  0.00     0.181 C 
ENDBRANCH   6  11
ENDBRANCH   3   5
ENDBRANCH   1   3
BRANCH   1  13
ATOM     13  C   UNL d   1      29.586  16.245 -24.011  0.00  0.00     0.065 A 
ATOM     14  C   UNL d   1      29.037  16.853 -24.084  0.00  0.00     0.097 A 
ATOM     15  C   UNL d   1      28.280  16.748 -23.774  0.00  0.00     0.024 A 
ATOM     16  C   UNL d   1      28.075  16.051 -23.401  0.00  0.00     0.002 A 
ATOM     17  C   UNL d   1      28.609  15.455 -23.328  0.00  0.00     0.000 A 
ATOM     18  C   UNL d   1      29.376  15.533 -23.629  0.00  0.00     0.005 A 
BRANCH  14  19
ATOM     19  O   UNL d   1      29.239  17.591 -24.474  0.00  0.00    -0.328 OA
ATOM     20  C   UNL d   1      28.721  18.235 -24.502  0.00  0.00     0.181 C 
ENDBRANCH  14  19
ENDBRANCH   1  13
TORSDOF 5
ENDMDL
MODEL 2
REMARK VINA RESULT:      -2.3      0.555      3.565
REMARK  5 active torsions:
REMARK  status: ('A' for Active; 'I' for Inactive)
REMARK    1  A    between atoms: C_2  and  C_1 
REMARK    2  A    between atoms: C_3  and  C_1 
REMARK    3  A    between atoms: C_4  and  C_2 
REMARK    4  A    between atoms: O_9  and  C_6 
REMARK    5  A    between atoms: O_10  and  C_7 
ROOT
ATOM      1  C   UNL d   1      31.096  16.560 -23.889  0.00  0.00     0.236 C 
ATOM      2  O   UNL d   1      31.101  16.876 -23.135  0.00  0.00    -0.283 OA
ENDROOT
BRANCH   1   3
ATOM      3  C   UNL d   1      30.393  16.384 -24.285  0.00  0.00     0.236 C 
ATOM      4  O   UNL d   1      30.371  16.329 -25.097  0.00  0.00    -0.283 OA
BRANCH   3   5
ATOM      5  C   UNL d   1      29.691  16.259 -23.842  0.00  0.00     0.065 A 
ATOM      6  C   UNL d   1      29.051  16.736 -23.924  0.00  0.00     0.097 A 
ATOM      7  C   UNL d   1      28.361  16.601 -23.479  0.00  0.00     0.024 A 
ATOM      8  C   UNL d   1      28.347  15.970 -22.954  0.00  0.00     0.002 A 
ATOM      9  C   UNL d   1      28.991  15.488 -22.870  0.00  0.00     0.000 A 
ATOM     10  C   UNL d   1      29.678  15.628 -23.317  0.00  0.00     0.005 A 
BRANCH   6  11
ATOM     11  O   UNL d   1      29.068  17.377 -24.459  0.00  0.00    -0.328 OA
ATOM     12  C   UNL d   1      28.519  17.865 -24.501  0.00  0.00     0.181 C 
ENDBRANCH   6  11
ENDBRANCH   3   5
ENDBRANCH   1   3
BRANCH   1  13
ATOM     13  C   UNL d   1      31.816  16.412 -24.271  0.00  0.00     0.065 A 
ATOM     14  C   UNL d   1      32.347  17.028 -24.394  0.00  0.00     0.097 A 
ATOM     15  C   UNL d   1      33.061  16.872 -24.775  0.00  0.00     0.024 A 
ATOM     16  C   UNL d   1      33.241  16.117 -25.029  0.00  0.00     0.002 A 
ATOM     17  C   UNL d   1      32.725  15.512 -24.911  0.00  0.00     0.000 A 
ATOM     18  C   UNL d   1      32.000  15.640 -24.531  0.00  0.00     0.005 A 
BRANCH  14  19
ATOM     19  O   UNL d   1      32.170  17.826 -24.133  0.00  0.00    -0.328 OA
ATOM     20  C   UNL d   1      32.689  18.459 -24.253  0.00  0.00     0.181 C 
ENDBRANCH  14  19
ENDBRANCH   1  13
TORSDOF 5
ENDMDL
MODEL 3
REMARK VINA RESULT:      -1.7      1.312      1.966
REMARK  5 active torsions:
REMARK  status: ('A' for Active; 'I' for Inactive)
REMARK    1  A    between atoms: C_2  and  C_1 
REMARK    2  A    between atoms: C_3  and  C_1 
REMARK    3  A    between atoms: C_4  and  C_2 
REMARK    4  A    between atoms: O_9  and  C_6 
REMARK    5  A    between atoms: O_10  and  C_7 
ROOT
ATOM      1  C   UNL d   1      30.928  17.505 -24.660  0.00  0.00     0.236 C 
ATOM      2  O   UNL d   1      30.617  18.242 -24.828  0.00  0.00    -0.283 OA
ENDROOT
BRANCH   1   3
ATOM      3  C   UNL d   1      31.716  17.406 -24.432  0.00  0.00     0.236 C 
ATOM      4  O   UNL d   1      32.002  16.672 -24.224  0.00  0.00    -0.283 OA
BRANCH   3   5
ATOM      5  C   UNL d   1      32.227  18.070 -24.413  0.00  0.00     0.065 A 
ATOM      6  C   UNL d   1      32.652  18.258 -23.759  0.00  0.00     0.097 A 
ATOM      7  C   UNL d   1      33.156  18.920 -23.754  0.00  0.00     0.024 A 
ATOM      8  C   UNL d   1      33.210  19.379 -24.433  0.00  0.00     0.002 A 
ATOM      9  C   UNL d   1      32.783  19.193 -25.093  0.00  0.00     0.000 A 
ATOM     10  C   UNL d   1      32.281  18.530 -25.092  0.00  0.00     0.005 A 
BRANCH   6  11
ATOM     11  O   UNL d   1      32.595  17.789 -23.071  0.00  0.00    -0.328 OA
ATOM     12  C   UNL d   1      33.041  17.887 -22.494  0.00  0.00     0.181 C 
ENDBRANCH   6  11
ENDBRANCH   3   5
ENDBRANCH   1   3
BRANCH   1  13
ATOM     13  C   UNL d   1      30.443  16.836 -24.718  0.00  0.00     0.065 A 
ATOM     14  C   UNL d   1      29.665  16.873 -24.452  0.00  0.00     0.097 A 
ATOM     15  C   UNL d   1      29.189  16.203 -24.514  0.00  0.00     0.024 A 
ATOM     16  C   UNL d   1      29.483  15.511 -24.834  0.00  0.00     0.002 A 
ATOM     17  C   UNL d   1      30.243  15.471 -25.094  0.00  0.00     0.000 A 
ATOM     18  C   UNL d   1      30.743  16.129 -25.044  0.00  0.00     0.005 A 
BRANCH  14  19
ATOM     19  O   UNL d   1      29.344  17.594 -24.114  0.00  0.00    -0.328 OA
ATOM     20  C   UNL d   1      28.589  17.629 -23.778  0.00  0.00     0.181 C 
ENDBRANCH  14  19
ENDBRANCH   1  13
TORSDOF 5
ENDMDL
MODEL 4
REMARK VINA RESULT:      -1.4      1.785      3.611
REMARK  5 active torsions:
REMARK  status: ('A' for Active; 'I' for Inactive)
REMARK    1  A    between atoms: C_2  and  C_1 
REMARK    2  A    between atoms: C_3  and  C_1 
REMARK    3  A    between atoms: C_4  and  C_2 
REMARK    4  A    between atoms: O_9  and  C_6 
REMARK    5  A    between atoms: O_10  and  C_7 
ROOT
ATOM      1  C   UNL d   1      32.324  17.851 -23.642  0.00  0.00     0.236 C 
ATOM      2  O   UNL d   1      31.742  18.035 -23.097  0.00  0.00    -0.283 OA
ENDROOT
BRANCH   1   3
ATOM      3  C   UNL d   1      32.850  18.419 -23.928  0.00  0.00     0.236 C 
ATOM      4  O   UNL d   1      33.241  18.310 -24.634  0.00  0.00    -0.283 OA
BRANCH   3   5
ATOM      5  C   UNL d   1      32.983  19.118 -23.484  0.00  0.00     0.065 A 
ATOM      6  C   UNL d   1      33.076  19.833 -23.840  0.00  0.00     0.097 A 
ATOM      7  C   UNL d   1      33.208  20.518 -23.388  0.00  0.00     0.024 A 
ATOM      8  C   UNL d   1      33.241  20.451 -22.570  0.00  0.00     0.002 A 
ATOM      9  C   UNL d   1      33.148  19.734 -22.210  0.00  0.00     0.000 A 
ATOM     10  C   UNL d   1      33.017  19.052 -22.666  0.00  0.00     0.005 A 
BRANCH   6  11
ATOM     11  O   UNL d   1      33.041  19.897 -24.671  0.00  0.00    -0.328 OA
ATOM     12  C   UNL d   1      32.933  20.542 -25.008  0.00  0.00     0.181 C 
ENDBRANCH   6  11
ENDBRANCH   3   5
ENDBRANCH   1   3
BRANCH   1  13
ATOM     13  C   UNL d   1      32.390  17.073 -23.918  0.00  0.00     0.065 A 
ATOM     14  C   UNL d   1      31.741  16.708 -24.268  0.00  0.00     0.097 A 
ATOM     15  C   UNL d   1      31.815  15.933 -24.540  0.00  0.00     0.024 A 
ATOM     16  C   UNL d   1      32.522  15.531 -24.463  0.00  0.00     0.002 A 
ATOM     17  C   UNL d   1      33.158  15.884 -24.121  0.00  0.00     0.000 A 
ATOM     18  C   UNL d   1      33.112  16.661 -23.839  0.00  0.00     0.005 A 
BRANCH  14  19
ATOM     19  O   UNL d   1      30.993  17.119 -24.355  0.00  0.00    -0.328 OA
ATOM     20  C   UNL d   1      30.352  16.795 -24.766  0.00  0.00     0.181 C 
ENDBRANCH  14  19
ENDBRANCH   1  13
TORSDOF 5
ENDMDL
MODEL 5
REMARK VINA RESULT:      -1.3      1.966      4.177
REMARK  5 active torsions:
REMARK  status: ('A' for Active; 'I' for Inactive)
REMARK    1  A    between atoms: C_2  and  C_1 
REMARK    2  A    between atoms: C_3  and  C_1 
REMARK    3  A    between atoms: C_4  and  C_2 
REMARK    4  A    between atoms: O_9  and  C_6 
REMARK    5  A    between atoms: O_10  and  C_7 
ROOT
ATOM      1  C   UNL d   1      32.921  18.595 -23.181  0.00  0.00     0.236 C 
ATOM      2  O   UNL d   1      33.081  18.318 -22.428  0.00  0.00    -0.283 OA
ENDROOT
BRANCH   1   3
ATOM      3  C   UNL d   1      32.656  18.096 -23.783  0.00  0.00     0.236 C 
ATOM      4  O   UNL d   1      32.477  18.388 -24.522  0.00  0.00    -0.283 OA
BRANCH   3   5
ATOM      5  C   UNL d   1      32.570  17.275 -23.630  0.00  0.00     0.065 A 
ATOM      6  C   UNL d   1      31.864  16.902 -23.715  0.00  0.00     0.097 A 
ATOM      7  C   UNL d   1      31.792  16.088 -23.561  0.00  0.00     0.024 A 
ATOM      8  C   UNL d   1      32.457  15.672 -23.318  0.00  0.00     0.002 A 
ATOM      9  C   UNL d   1      33.169  16.045 -23.232  0.00  0.00     0.000 A 
ATOM     10  C   UNL d   1      33.235  16.859 -23.388  0.00  0.00     0.005 A 
BRANCH   6  11
ATOM     11  O   UNL d   1      31.189  17.328 -23.962  0.00  0.00    -0.328 OA
ATOM     12  C   UNL d   1      30.564  16.991 -24.153  0.00  0.00     0.181 C 
ENDBRANCH   6  11
ENDBRANCH   3   5
ENDBRANCH   1   3
BRANCH   1  13
ATOM     13  C   UNL d   1      33.028  19.399 -23.349  0.00  0.00     0.065 A 
ATOM     14  C   UNL d   1      33.028  19.947 -22.735  0.00  0.00     0.097 A 
ATOM     15  C   UNL d   1      33.135  20.745 -22.911  0.00  0.00     0.024 A 
ATOM     16  C   UNL d   1      33.240  20.991 -23.683  0.00  0.00     0.002 A 
ATOM     17  C   UNL d   1      33.241  20.459 -24.285  0.00  0.00     0.000 A 
ATOM     18  C   UNL d   1      33.136  19.651 -24.138  0.00  0.00     0.005 A 
BRANCH  14  19
ATOM     19  O   UNL d   1      32.919  19.701 -21.920  0.00  0.00    -0.328 OA
ATOM     20  C   UNL d   1      33.036  20.215 -21.282  0.00  0.00     0.181 C 
ENDBRANCH  14  19
ENDBRANCH   1  13
TORSDOF 5
ENDMDL
MODEL 6
REMARK VINA RESULT:       0.1      4.250      6.243
REMARK  5 active torsions:
REMARK  status: ('A' for Active; 'I' for Inactive)
REMARK    1  A    between atoms: C_2  and  C_1 
REMARK    2  A    between atoms: C_3  and  C_1 
REMARK    3  A    between atoms: C_4  and  C_2 
REMARK    4  A    between atoms: O_9  and  C_6 
REMARK    5  A    between atoms: O_10  and  C_7 
ROOT
ATOM      1  C   UNL d   1      32.765  21.258 -21.616  0.00  0.00     0.236 C 
ATOM      2  O   UNL d   1      32.486  20.772 -21.020  0.00  0.00    -0.283 OA
ENDROOT
BRANCH   1   3
ATOM      3  C   UNL d   1      33.038  20.955 -22.334  0.00  0.00     0.236 C 
ATOM      4  O   UNL d   1      33.241  21.450 -22.948  0.00  0.00    -0.283 OA
BRANCH   3   5
ATOM      5  C   UNL d   1      33.107  20.125 -22.432  0.00  0.00     0.065 A 
ATOM      6  C   UNL d   1      33.173  19.789 -23.158  0.00  0.00     0.097 A 
ATOM      7  C   UNL d   1      33.241  18.965 -23.241  0.00  0.00     0.024 A 
ATOM      8  C   UNL d   1      33.239  18.498 -22.565  0.00  0.00     0.002 A 
ATOM      9  C   UNL d   1      33.173  18.833 -21.833  0.00  0.00     0.000 A 
ATOM     10  C   UNL d   1      33.106  19.658 -21.755  0.00  0.00     0.005 A 
BRANCH   6  11
ATOM     11  O   UNL d   1      33.174  20.266 -23.843  0.00  0.00    -0.328 OA
ATOM     12  C   UNL d   1      33.147  19.977 -24.519  0.00  0.00     0.181 C 
ENDBRANCH   6  11
ENDBRANCH   3   5
ENDBRANCH   1   3
BRANCH   1  13
ATOM     13  C   UNL d   1      32.775  22.078 -21.500  0.00  0.00     0.065 A 
ATOM     14  C   UNL d   1      32.891  22.381 -20.744  0.00  0.00     0.097 A 
ATOM     15  C   UNL d   1      32.900  23.198 -20.638  0.00  0.00     0.024 A 
ATOM     16  C   UNL d   1      32.796  23.702 -21.271  0.00  0.00     0.002 A 
ATOM     17  C   UNL d   1      32.682  23.410 -22.012  0.00  0.00     0.000 A 
ATOM     18  C   UNL d   1      32.669  22.593 -22.148  0.00  0.00     0.005 A 
BRANCH  14  19
ATOM     19  O   UNL d   1      33.003  21.862 -20.069  0.00  0.00    -0.328 OA
ATOM     20  C   UNL d   1      33.070  22.148 -19.296  0.00  0.00     0.181 C 
ENDBRANCH  14  19
ENDBRANCH   1  13
TORSDOF 5
ENDMDL
MODEL 7
REMARK VINA RESULT:       0.1      3.817      5.652
REMARK  5 active torsions:
REMARK  status: ('A' for Active; 'I' for Inactive)
REMARK    1  A    between atoms: C_2  and  C_1 
REMARK    2  A    between atoms: C_3  and  C_1 
REMARK    3  A    between atoms: C_4  and  C_2 
REMARK    4  A    between atoms: O_9  and  C_6 
REMARK    5  A    between atoms: O_10  and  C_7 
ROOT
ATOM      1  C   UNL d   1      32.513  20.862 -21.869  0.00  0.00     0.236 C 
ATOM      2  O   UNL d   1      31.931  21.177 -22.349  0.00  0.00    -0.283 OA
ENDROOT
BRANCH   1   3
ATOM      3  C   UNL d   1      32.925  20.177 -22.075  0.00  0.00     0.236 C 
ATOM      4  O   UNL d   1      33.240  19.689 -21.504  0.00  0.00    -0.283 OA
BRANCH   3   5
ATOM      5  C   UNL d   1      33.020  19.981 -22.885  0.00  0.00     0.065 A 
ATOM      6  C   UNL d   1      32.994  19.220 -23.141  0.00  0.00     0.097 A 
ATOM      7  C   UNL d   1      33.090  19.039 -23.947  0.00  0.00     0.024 A 
ATOM      8  C   UNL d   1      33.212  19.654 -24.478  0.00  0.00     0.002 A 
ATOM      9  C   UNL d   1      33.240  20.421 -24.223  0.00  0.00     0.000 A 
ATOM     10  C   UNL d   1      33.143  20.596 -23.416  0.00  0.00     0.005 A 
BRANCH   6  11
ATOM     11  O   UNL d   1      32.869  18.597 -22.600  0.00  0.00    -0.328 OA
ATOM     12  C   UNL d   1      32.912  17.891 -22.801  0.00  0.00     0.181 C 
ENDBRANCH   6  11
ENDBRANCH   3   5
ENDBRANCH   1   3
BRANCH   1  13
ATOM     13  C   UNL d   1      32.697  21.237 -21.154  0.00  0.00     0.065 A 
ATOM     14  C   UNL d   1      32.530  22.037 -21.059  0.00  0.00     0.097 A 
ATOM     15  C   UNL d   1      32.716  22.403 -20.344  0.00  0.00     0.024 A 
ATOM     16  C   UNL d   1      33.062  21.980 -19.738  0.00  0.00     0.002 A 
ATOM     17  C   UNL d   1      33.227  21.198 -19.826  0.00  0.00     0.000 A 
ATOM     18  C   UNL d   1      33.050  20.805 -20.533  0.00  0.00     0.005 A 
BRANCH  14  19
ATOM     19  O   UNL d   1      32.166  22.493 -21.689  0.00  0.00    -0.328 OA
ATOM     20  C   UNL d   1      32.098  23.317 -21.659  0.00  0.00     0.181 C 
ENDBRANCH  14  19
ENDBRANCH   1  13
TORSDOF 5
ENDMDL
MODEL 8
REMARK VINA RESULT:       0.1      5.032      6.748
REMARK  5 active torsions:
REMARK  status: ('A' for Active; 'I' for Inactive)
REMARK    1  A    between atoms: C_2  and  C_1 
REMARK    2  A    between atoms: C_3  and  C_1 
REMARK    3  A    between atoms: C_4  and  C_2 
REMARK    4  A    between atoms: O_9  and  C_6 
REMARK    5  A    between atoms: O_10  and  C_7 
ROOT
ATOM      1  C   UNL d   1      32.485  21.733 -20.916  0.00  0.00     0.236 C 
ATOM      2  O   UNL d   1      31.991  21.108 -20.728  0.00  0.00    -0.283 OA
ENDROOT
BRANCH   1   3
ATOM      3  C   UNL d   1      32.917  21.751 -21.619  0.00  0.00     0.236 C 
ATOM      4  O   UNL d   1      33.241  22.446 -21.894  0.00  0.00    -0.283 OA
BRANCH   3   5
ATOM      5  C   UNL d   1      33.023  21.043 -22.057  0.00  0.00     0.065 A 
ATOM      6  C   UNL d   1      33.101  21.048 -22.856  0.00  0.00     0.097 A 
ATOM      7  C   UNL d   1      33.205  20.339 -23.278  0.00  0.00     0.024 A 
ATOM      8  C   UNL d   1      33.227  19.632 -22.861  0.00  0.00     0.002 A 
ATOM      9  C   UNL d   1      33.149  19.624 -22.057  0.00  0.00     0.000 A 
ATOM     10  C   UNL d   1      33.045  20.336 -21.640  0.00  0.00     0.005 A 
BRANCH   6  11
ATOM     11  O   UNL d   1      33.078  21.770 -23.276  0.00  0.00    -0.328 OA
ATOM     12  C   UNL d   1      33.018  21.792 -24.009  0.00  0.00     0.181 C 
ENDBRANCH   6  11
ENDBRANCH   3   5
ENDBRANCH   1   3
BRANCH   1  13
ATOM     13  C   UNL d   1      32.556  22.367 -20.388  0.00  0.00     0.065 A 
ATOM     14  C   UNL d   1      32.016  22.986 -20.419  0.00  0.00     0.097 A 
ATOM     15  C   UNL d   1      32.094  23.613 -19.890  0.00  0.00     0.024 A 
ATOM     16  C   UNL d   1      32.699  23.622 -19.342  0.00  0.00     0.002 A 
ATOM     17  C   UNL d   1      33.230  23.019 -19.308  0.00  0.00     0.000 A 
ATOM     18  C   UNL d   1      33.175  22.376 -19.827  0.00  0.00     0.005 A 
BRANCH  14  19
ATOM     19  O   UNL d   1      31.375  22.989 -20.990  0.00  0.00    -0.328 OA
ATOM     20  C   UNL d   1      30.880  23.642 -21.100  0.00  0.00     0.181 C 
ENDBRANCH  14  19
ENDBRANCH   1  13
TORSDOF 5
ENDMDL
