MODEL 1
REMARK VINA RESULT:       4.4      0.000      0.000
REMARK  0 active torsions:
REMARK  status: ('A' for Active; 'I' for Inactive)
ROOT
ATOM      1  N   UNL d   1      23.534  12.871  -1.111  0.00  0.00    -0.187 N 
ATOM      2  C   UNL d   1      24.358  12.901  -1.140  0.00  0.00     0.200 A 
ATOM      3  N   UNL d   1      24.768  12.568  -1.773  0.00  0.00    -0.181 NA
ATOM      4  N   UNL d   1      23.112  12.498  -1.731  0.00  0.00    -0.157 NA
ATOM      5  C   UNL d   1      23.288  13.247  -0.418  0.00  0.00     0.194 A 
ATOM      6  C   UNL d   1      24.356  12.201  -2.385  0.00  0.00     0.300 A 
ATOM      7  C   UNL d   1      23.523  12.166  -2.364  0.00  0.00     0.159 A 
ATOM      8  S   UNL d   1      24.619  13.296  -0.464  0.00  0.00    -0.045 SA
ATOM      9  C   UNL d   1      23.952  13.511  -0.015  0.00  0.00     0.079 A 
ATOM     10  O   UNL d   1      24.766  11.867  -3.019  0.00  0.00    -0.263 OA
ATOM     11  N   UNL d   1      22.506  13.340  -0.174  0.00  0.00    -0.126 N 
ATOM     12  C   UNL d   1      23.110  11.798  -2.977  0.00  0.00     0.028 C 
ENDROOT
TORSDOF 0
ENDMDL
MODEL 2
REMARK VINA RESULT:       6.1      1.399      2.370
REMARK  0 active torsions:
REMARK  status: ('A' for Active; 'I' for Inactive)
ROOT
ATOM      1  N   UNL d   1      23.640  12.591  -1.884  0.00  0.00    -0.187 N 
ATOM      2  C   UNL d   1      24.435  12.809  -1.903  0.00  0.00     0.200 A 
ATOM      3  N   UNL d   1      24.758  13.271  -1.300  0.00  0.00    -0.181 NA
ATOM      4  N   UNL d   1      23.158  12.841  -1.246  0.00  0.00    -0.157 NA
ATOM      5  C   UNL d   1      23.483  12.136  -2.555  0.00  0.00     0.194 A 
ATOM      6  C   UNL d   1      24.286  13.518  -0.671  0.00  0.00     0.300 A 
ATOM      7  C   UNL d   1      23.481  13.302  -0.644  0.00  0.00     0.159 A 
ATOM      8  S   UNL d   1      24.768  12.488  -2.586  0.00  0.00    -0.045 SA
ATOM      9  C   UNL d   1      24.174  12.069  -2.991  0.00  0.00     0.079 A 
ATOM     10  O   UNL d   1      24.610  13.980  -0.068  0.00  0.00    -0.263 OA
ATOM     11  N   UNL d   1      22.754  11.805  -2.751  0.00  0.00    -0.126 N 
ATOM     12  C   UNL d   1      23.009  13.550  -0.014  0.00  0.00     0.028 C 
ENDROOT
TORSDOF 0
ENDMDL
