MODEL 1
REMARK VINA RESULT:      21.3      0.000      0.000
REMARK  3 active torsions:
REMARK  status: ('A' for Active; 'I' for Inactive)
REMARK    1  A    between atoms: C_2  and  C_1 
REMARK       I    between atoms: N_4  and  C_2 
REMARK    2  A    between atoms: C_6  and  N_4 
REMARK    3  A    between atoms: S_12  and  C_5 
ROOT
ATOM      1  C   UNL d   1      45.818 -16.626  44.243  0.00  0.00     0.298 C 
ATOM      2  N   UNL d   1      46.040 -16.996  43.537  0.00  0.00    -0.207 NA
ATOM      3  O   UNL d   1      45.781 -17.058  44.954  0.00  0.00    -0.264 OA
ENDROOT
BRANCH   1   4
ATOM      4  C   UNL d   1      45.633 -15.821  44.242  0.00  0.00     0.153 A 
ATOM      5  N   UNL d   1      46.152 -15.268  43.886  0.00  0.00    -0.216 NA
ATOM      6  C   UNL d   1      45.958 -14.460  43.889  0.00  0.00     0.190 A 
ATOM      7  N   UNL d   1      45.258 -14.200  44.242  0.00  0.00    -0.219 NA
ATOM      8  C   UNL d   1      44.745 -14.748  44.595  0.00  0.00     0.114 A 
ATOM      9  C   UNL d   1      44.930 -15.557  44.596  0.00  0.00     0.099 A 
ATOM     10 CL   UNL d   1      44.414 -16.102  44.950  0.00  0.00    -0.079 Cl
BRANCH   6  11
ATOM     11  S   UNL d   1      46.466 -13.912  43.539  0.00  0.00    -0.075 SA
ATOM     12  C   UNL d   1      46.286 -13.098  43.569  0.00  0.00     0.077 C 
ENDBRANCH   6  11
ENDBRANCH   1   4
BRANCH   2  13
ATOM     13  C   UNL d   1      46.225 -17.798  43.534  0.00  0.00     0.085 A 
ATOM     14  C   UNL d   1      46.344 -18.192  42.826  0.00  0.00     0.018 A 
ATOM     15  C   UNL d   1      46.529 -18.991  42.816  0.00  0.00     0.002 A 
ATOM     16  C   UNL d   1      46.276 -17.781  42.114  0.00  0.00     0.002 A 
ATOM     17  C   UNL d   1      46.646 -19.381  42.101  0.00  0.00     0.000 A 
ATOM     18  C   UNL d   1      46.596 -19.402  43.527  0.00  0.00     0.000 A 
ATOM     19  C   UNL d   1      46.579 -18.974  41.396  0.00  0.00     0.000 A 
ATOM     20  C   UNL d   1      46.394 -18.172  41.399  0.00  0.00     0.000 A 
ATOM     21  C   UNL d   1      46.477 -19.008  44.245  0.00  0.00     0.002 A 
ATOM     22  C   UNL d   1      46.291 -18.204  44.244  0.00  0.00     0.019 A 
ENDBRANCH   2  13
TORSDOF 3
ENDMDL
