MODEL 1
REMARK VINA RESULT:      30.8      0.000      0.000
REMARK  2 active torsions:
REMARK  status: ('A' for Active; 'I' for Inactive)
REMARK    1  A    between atoms: C_5  and  C_1 
REMARK    2  A    between atoms: C_7  and  C_5 
ROOT
ATOM      1  C   UNL d   1     -57.798 -98.841 -44.656  0.00  0.00     0.158 A 
ATOM      2  C   UNL d   1     -57.551 -98.812 -45.442  0.00  0.00     0.131 A 
ATOM      3  O   UNL d   1     -57.229 -98.882 -44.051  0.00  0.00    -0.302 OA
ATOM      4  C   UNL d   1     -56.163 -98.864 -45.008  0.00  0.00     0.044 A 
ATOM      5  C   UNL d   1     -56.410 -98.893 -44.223  0.00  0.00     0.102 A 
ATOM      6  N   UNL d   1     -58.111 -98.772 -46.036  0.00  0.00    -0.146 N 
ATOM      7  C   UNL d   1     -55.352 -98.875 -45.179  0.00  0.00     0.004 A 
ATOM      8  C   UNL d   1     -55.841 -98.934 -43.618  0.00  0.00     0.025 A 
ATOM      9  C   UNL d   1     -54.789 -98.915 -44.580  0.00  0.00     0.000 A 
ATOM     10  C   UNL d   1     -55.035 -98.945 -43.794  0.00  0.00     0.002 A 
ENDROOT
BRANCH   1  11
ATOM     11  C   UNL d   1     -58.597 -98.830 -44.485  0.00  0.00     0.220 C 
ATOM     12  O   UNL d   1     -59.132 -98.822 -45.092  0.00  0.00    -0.284 OA
BRANCH  11  13
ATOM     13  C   UNL d   1     -58.870 -98.827 -43.734  0.00  0.00     0.041 A 
ATOM     14  C   UNL d   1     -59.677 -98.884 -43.573  0.00  0.00     0.003 A 
ATOM     15  C   UNL d   1     -59.945 -98.879 -42.783  0.00  0.00     0.000 A 
ATOM     16  C   UNL d   1     -59.387 -98.815 -42.149  0.00  0.00     0.000 A 
ATOM     17  C   UNL d   1     -58.581 -98.759 -42.329  0.00  0.00     0.000 A 
ATOM     18  C   UNL d   1     -59.644 -98.810 -41.363  0.00  0.00     0.000 C 
ATOM     19  C   UNL d   1     -58.312 -98.763 -43.100  0.00  0.00     0.003 A 
ENDBRANCH  11  13
ENDBRANCH   1  11
TORSDOF 2
ENDMDL
