MODEL 1
REMARK VINA RESULT:      50.6      0.000      0.000
REMARK  2 active torsions:
REMARK  status: ('A' for Active; 'I' for Inactive)
REMARK       I    between atoms: N_2  and  C_1 
REMARK    1  A    between atoms: C_4  and  C_1 
REMARK    2  A    between atoms: C_7  and  N_3 
ROOT
ATOM      1  C   UNL d   1      13.268  12.344  -3.028  0.00  0.00     0.265 C 
ATOM      2  N   UNL d   1      13.440  13.062  -3.393  0.00  0.00    -0.269 N 
ATOM      3  N   UNL d   1      13.784  14.501  -4.128  0.00  0.00    -0.301 N 
ATOM      4  C   UNL d   1      13.151  13.214  -4.155  0.00  0.00     0.102 A 
ATOM      5  C   UNL d   1      13.899  13.623  -2.997  0.00  0.00     0.102 A 
ATOM      6  C   UNL d   1      14.069  14.338  -3.364  0.00  0.00     0.100 A 
ATOM      7  C   UNL d   1      13.326  13.935  -4.517  0.00  0.00     0.100 A 
ATOM      8  O   UNL d   1      12.809  11.779  -3.420  0.00  0.00    -0.267 OA
ENDROOT
BRANCH   1   9
ATOM      9  C   UNL d   1      13.557  12.191  -2.267  0.00  0.00     0.059 A 
ATOM     10  C   UNL d   1      14.360  12.296  -2.109  0.00  0.00     0.031 A 
ATOM     11  C   UNL d   1      14.663  12.145  -1.345  0.00  0.00     0.119 A 
ATOM     12  O   UNL d   1      15.423  12.196  -1.021  0.00  0.00    -0.300 OA
ATOM     13  C   UNL d   1      14.145  11.886  -0.736  0.00  0.00     0.119 A 
ATOM     14  C   UNL d   1      15.381  11.972  -0.219  0.00  0.00     0.304 A 
ATOM     15  O   UNL d   1      14.589  11.779  -0.041  0.00  0.00    -0.300 OA
ATOM     16  C   UNL d   1      13.333  11.782  -0.902  0.00  0.00     0.026 A 
ATOM     17  C   UNL d   1      13.039  11.933  -1.658  0.00  0.00     0.007 A 
ENDBRANCH   1   9
BRANCH   3  18
ATOM     18  C   UNL d   1      13.959  15.221  -4.491  0.00  0.00     0.064 A 
ATOM     19  C   UNL d   1      14.389  15.789  -4.078  0.00  0.00     0.018 A 
ATOM     20  C   UNL d   1      14.559  16.503  -4.444  0.00  0.00     0.013 A 
ATOM     21  C   UNL d   1      14.303  16.648  -5.214  0.00  0.00     0.058 A 
ATOM     22  C   UNL d   1      13.872  16.070  -5.619  0.00  0.00     0.013 A 
ATOM     23 CL   UNL d   1      14.477  17.368  -5.577  0.00  0.00    -0.082 Cl
ATOM     24  C   UNL d   1      13.703  15.361  -5.254  0.00  0.00     0.018 A 
ENDBRANCH   3  18
TORSDOF 2
ENDMDL
MODEL 2
REMARK VINA RESULT:      51.5      2.736      3.884
REMARK  2 active torsions:
REMARK  status: ('A' for Active; 'I' for Inactive)
REMARK       I    between atoms: N_2  and  C_1 
REMARK    1  A    between atoms: C_4  and  C_1 
REMARK    2  A    between atoms: C_7  and  N_3 
ROOT
ATOM      1  C   UNL d   1      14.849  14.066  -0.756  0.00  0.00     0.265 C 
ATOM      2  N   UNL d   1      14.551  13.739  -1.450  0.00  0.00    -0.269 N 
ATOM      3  N   UNL d   1      13.955  13.079  -2.843  0.00  0.00    -0.301 N 
ATOM      4  C   UNL d   1      14.472  12.916  -1.514  0.00  0.00     0.102 A 
ATOM      5  C   UNL d   1      14.334  14.232  -2.076  0.00  0.00     0.102 A 
ATOM      6  C   UNL d   1      14.038  13.903  -2.767  0.00  0.00     0.100 A 
ATOM      7  C   UNL d   1      14.174  12.592  -2.212  0.00  0.00     0.100 A 
ATOM      8  O   UNL d   1      15.067  13.577  -0.127  0.00  0.00    -0.267 OA
ENDROOT
BRANCH   1   9
ATOM      9  C   UNL d   1      14.928  14.889  -0.691  0.00  0.00     0.059 A 
ATOM     10  C   UNL d   1      15.396  15.295  -1.235  0.00  0.00     0.031 A 
ATOM     11  C   UNL d   1      15.484  16.125  -1.181  0.00  0.00     0.119 A 
ATOM     12  O   UNL d   1      15.906  16.676  -1.631  0.00  0.00    -0.300 OA
ATOM     13  C   UNL d   1      15.092  16.544  -0.567  0.00  0.00     0.119 A 
ATOM     14  C   UNL d   1      15.779  17.432  -1.303  0.00  0.00     0.304 A 
ATOM     15  O   UNL d   1      15.274  17.352  -0.643  0.00  0.00    -0.300 OA
ATOM     16  C   UNL d   1      14.619  16.127  -0.019  0.00  0.00     0.026 A 
ATOM     17  C   UNL d   1      14.536  15.308  -0.078  0.00  0.00     0.007 A 
ENDBRANCH   1   9
BRANCH   3  18
ATOM     18  C   UNL d   1      13.656  12.754  -3.540  0.00  0.00     0.064 A 
ATOM     19  C   UNL d   1      13.161  12.098  -3.502  0.00  0.00     0.018 A 
ATOM     20  C   UNL d   1      12.868  11.780  -4.198  0.00  0.00     0.013 A 
ATOM     21  C   UNL d   1      13.067  12.113  -4.926  0.00  0.00     0.058 A 
ATOM     22  C   UNL d   1      13.566  12.773  -4.952  0.00  0.00     0.013 A 
ATOM     23 CL   UNL d   1      12.769  11.789  -5.623  0.00  0.00    -0.082 Cl
ATOM     24  C   UNL d   1      13.856  13.088  -4.258  0.00  0.00     0.018 A 
ENDBRANCH   3  18
TORSDOF 2
ENDMDL
