MODEL 1
REMARK VINA RESULT:      58.4      0.000      0.000
REMARK  3 active torsions:
REMARK  status: ('A' for Active; 'I' for Inactive)
REMARK    1  A    between atoms: S_3  and  N_1 
REMARK    2  A    between atoms: C_5  and  C_4 
REMARK    3  A    between atoms: C_12  and  C_6 
ROOT
ATOM      1  N   UNL d   1     -51.115  24.407  33.676  0.00  0.00    -0.155 N 
ATOM      2  N   UNL d   1     -51.677  23.822  33.760  0.00  0.00    -0.153 NA
ATOM      3  C   UNL d   1     -51.489  25.129  33.668  0.00  0.00     0.098 A 
ATOM      4  C   UNL d   1     -52.415  24.190  33.804  0.00  0.00     0.126 A 
ATOM      5  C   UNL d   1     -52.299  24.998  33.748  0.00  0.00     0.043 A 
ENDROOT
BRANCH   3   6
ATOM      6  C   UNL d   1     -51.126  25.867  33.593  0.00  0.00     0.047 A 
ATOM      7  C   UNL d   1     -51.585  26.548  33.531  0.00  0.00     0.140 A 
ATOM      8  N   UNL d   1     -51.222  27.285  33.457  0.00  0.00    -0.234 NA
ATOM      9 CL   UNL d   1     -52.409  26.493  33.544  0.00  0.00    -0.061 Cl
ATOM     10  C   UNL d   1     -50.399  27.340  33.444  0.00  0.00     0.082 A 
ATOM     11  C   UNL d   1     -49.940  26.659  33.506  0.00  0.00     0.018 A 
ATOM     12  C   UNL d   1     -50.037  28.077  33.369  0.00  0.00     0.018 A 
ATOM     13  C   UNL d   1     -50.302  25.922  33.581  0.00  0.00     0.005 A 
ATOM     14  C   UNL d   1     -49.117  26.713  33.494  0.00  0.00     0.002 A 
ATOM     15  C   UNL d   1     -48.776  27.436  33.421  0.00  0.00     0.000 A 
ATOM     16  C   UNL d   1     -49.236  28.117  33.359  0.00  0.00     0.002 A 
ATOM     17  C   UNL d   1     -50.497  28.759  33.307  0.00  0.00     0.002 C 
ENDBRANCH   3   6
BRANCH   1  18
ATOM     18  S   UNL d   1     -50.501  23.871  33.653  0.00  0.00     0.266 S 
ATOM     19  O   UNL d   1     -49.754  24.062  33.941  0.00  0.00    -0.203 OA
ATOM     20  O   UNL d   1     -50.819  23.194  33.306  0.00  0.00    -0.203 OA
ATOM     21  C   UNL d   1     -50.027  23.205  33.540  0.00  0.00     0.165 C 
ENDBRANCH   1  18
BRANCH   4  22
ATOM     22  C   UNL d   1     -53.129  23.819  33.889  0.00  0.00     0.119 A 
ATOM     23  O   UNL d   1     -53.609  23.521  33.308  0.00  0.00    -0.304 OA
ATOM     24  C   UNL d   1     -54.279  23.193  33.644  0.00  0.00     0.123 A 
ATOM     25  C   UNL d   1     -54.227  23.282  34.453  0.00  0.00     0.029 A 
ATOM     26  C   UNL d   1     -53.514  23.672  34.623  0.00  0.00     0.028 A 
ENDBRANCH   4  22
TORSDOF 3
ENDMDL
