MODEL 1
REMARK VINA RESULT:      -8.2      0.000      0.000
REMARK  6 active torsions:
REMARK  status: ('A' for Active; 'I' for Inactive)
REMARK    1  A    between atoms: C_6  and  N_1 
REMARK    2  A    between atoms: C_7  and  C_4 
REMARK    3  A    between atoms: C_8  and  C_6 
REMARK    4  A    between atoms: C_11  and  C_6 
REMARK    5  A    between atoms: C_13  and  C_7 
REMARK    6  A    between atoms: C_16  and  C_11 
ROOT
ATOM      1  N   UNL d   1      52.521  33.316  53.388  0.00  0.00    -0.254 N 
ATOM      2  C   UNL d   1      52.981  33.234  53.985  0.00  0.00     0.153 A 
ATOM      3  C   UNL d   1      52.596  32.661  52.906  0.00  0.00     0.272 A 
ATOM      4  C   UNL d   1      53.141  32.152  53.242  0.00  0.00     0.088 A 
ATOM      5  S   UNL d   1      53.379  32.517  53.921  0.00  0.00    -0.054 SA
ATOM      6  S   UNL d   1      53.015  33.840  54.583  0.00  0.00    -0.052 SA
ATOM      7  O   UNL d   1      52.191  32.513  52.179  0.00  0.00    -0.266 OA
ENDROOT
BRANCH   1   8
ATOM      8  C   UNL d   1      52.023  33.984  53.263  0.00  0.00     0.132 C 
BRANCH   8   9
ATOM      9  C   UNL d   1      52.301  34.655  52.908  0.00  0.00     0.228 C 
ATOM     10  O   UNL d   1      52.493  34.674  52.105  0.00  0.00    -0.643 OA
ATOM     11  O   UNL d   1      52.393  35.343  53.374  0.00  0.00    -0.643 OA
ENDBRANCH   8   9
BRANCH   8  12
ATOM     12  C   UNL d   1      51.212  33.922  53.529  0.00  0.00     0.024 C 
BRANCH  12  13
ATOM     13  C   UNL d   1      50.620  34.201  53.038  0.00  0.00     0.002 A 
ATOM     14  C   UNL d   1      50.557  33.974  52.278  0.00  0.00     0.000 A 
ATOM     15  C   UNL d   1      49.940  34.278  51.797  0.00  0.00     0.000 A 
ATOM     16  C   UNL d   1      49.429  34.791  52.118  0.00  0.00     0.000 A 
ATOM     17  C   UNL d   1      49.475  35.039  52.897  0.00  0.00     0.000 A 
ATOM     18  C   UNL d   1      50.088  34.739  53.380  0.00  0.00     0.000 A 
ENDBRANCH  12  13
ENDBRANCH   8  12
ENDBRANCH   1   8
BRANCH   4  19
ATOM     19  C   UNL d   1      53.349  31.432  52.898  0.00  0.00     0.011 C 
BRANCH  19  20
ATOM     20  C   UNL d   1      53.331  30.700  53.325  0.00  0.00     0.001 A 
ATOM     21  C   UNL d   1      52.670  30.234  53.275  0.00  0.00     0.001 A 
ATOM     22  C   UNL d   1      52.624  29.512  53.682  0.00  0.00     0.007 A 
ATOM     23  C   UNL d   1      53.308  29.273  54.162  0.00  0.00     0.035 A 
ATOM     24  C   UNL d   1      53.961  29.767  54.191  0.00  0.00     0.007 A 
ATOM     25 BR   UNL d   1      53.295  28.543  54.590  0.00  0.00    -0.049 Br
ATOM     26  C   UNL d   1      53.977  30.466  53.783  0.00  0.00     0.001 A 
ENDBRANCH  19  20
ENDBRANCH   4  19
TORSDOF 6
ENDMDL
MODEL 2
REMARK VINA RESULT:      -7.8      2.328      4.913
REMARK  6 active torsions:
REMARK  status: ('A' for Active; 'I' for Inactive)
REMARK    1  A    between atoms: C_6  and  N_1 
REMARK    2  A    between atoms: C_7  and  C_4 
REMARK    3  A    between atoms: C_8  and  C_6 
REMARK    4  A    between atoms: C_11  and  C_6 
REMARK    5  A    between atoms: C_13  and  C_7 
REMARK    6  A    between atoms: C_16  and  C_11 
ROOT
ATOM      1  N   UNL d   1      51.895  33.720  52.983  0.00  0.00    -0.254 N 
ATOM      2  C   UNL d   1      51.859  34.270  52.462  0.00  0.00     0.153 A 
ATOM      3  C   UNL d   1      51.137  33.529  53.218  0.00  0.00     0.272 A 
ATOM      4  C   UNL d   1      50.611  34.000  52.806  0.00  0.00     0.088 A 
ATOM      5  S   UNL d   1      51.070  34.465  52.332  0.00  0.00    -0.054 SA
ATOM      6  S   UNL d   1      52.574  34.579  52.118  0.00  0.00    -0.052 SA
ATOM      7  O   UNL d   1      50.910  32.947  53.787  0.00  0.00    -0.266 OA
ENDROOT
BRANCH   1   8
ATOM      8  C   UNL d   1      52.614  33.377  53.259  0.00  0.00     0.132 C 
BRANCH   8   9
ATOM      9  C   UNL d   1      52.933  33.586  53.972  0.00  0.00     0.228 C 
ATOM     10  O   UNL d   1      52.550  33.421  54.685  0.00  0.00    -0.643 OA
ATOM     11  O   UNL d   1      53.671  33.979  53.977  0.00  0.00    -0.643 OA
ENDBRANCH   8   9
BRANCH   8  12
ATOM     12  C   UNL d   1      52.991  32.799  52.752  0.00  0.00     0.024 C 
BRANCH  12  13
ATOM     13  C   UNL d   1      53.164  32.063  53.066  0.00  0.00     0.002 A 
ATOM     14  C   UNL d   1      53.719  31.961  53.626  0.00  0.00     0.000 A 
ATOM     15  C   UNL d   1      53.876  31.194  53.929  0.00  0.00     0.000 A 
ATOM     16  C   UNL d   1      53.460  30.584  53.645  0.00  0.00     0.000 A 
ATOM     17  C   UNL d   1      52.884  30.665  53.068  0.00  0.00     0.000 A 
ATOM     18  C   UNL d   1      52.724  31.426  52.763  0.00  0.00     0.000 A 
ENDBRANCH  12  13
ENDBRANCH   8  12
ENDBRANCH   1   8
BRANCH   4  19
ATOM     19  C   UNL d   1      49.794  33.952  52.909  0.00  0.00     0.011 C 
BRANCH  19  20
ATOM     20  C   UNL d   1      49.269  34.581  52.691  0.00  0.00     0.001 A 
ATOM     21  C   UNL d   1      48.950  34.585  51.946  0.00  0.00     0.001 A 
ATOM     22  C   UNL d   1      48.432  35.189  51.706  0.00  0.00     0.007 A 
ATOM     23  C   UNL d   1      48.245  35.814  52.280  0.00  0.00     0.035 A 
ATOM     24  C   UNL d   1      48.584  35.780  53.025  0.00  0.00     0.007 A 
ATOM     25 BR   UNL d   1      47.721  36.444  52.068  0.00  0.00    -0.049 Br
ATOM     26  C   UNL d   1      49.085  35.179  53.230  0.00  0.00     0.001 A 
ENDBRANCH  19  20
ENDBRANCH   4  19
TORSDOF 6
ENDMDL
MODEL 3
REMARK VINA RESULT:      -7.4      2.316      4.655
REMARK  6 active torsions:
REMARK  status: ('A' for Active; 'I' for Inactive)
REMARK    1  A    between atoms: C_6  and  N_1 
REMARK    2  A    between atoms: C_7  and  C_4 
REMARK    3  A    between atoms: C_8  and  C_6 
REMARK    4  A    between atoms: C_11  and  C_6 
REMARK    5  A    between atoms: C_13  and  C_7 
REMARK    6  A    between atoms: C_16  and  C_11 
ROOT
ATOM      1  N   UNL d   1      52.634  33.014  53.386  0.00  0.00    -0.254 N 
ATOM      2  C   UNL d   1      52.037  32.557  53.291  0.00  0.00     0.153 A 
ATOM      3  C   UNL d   1      52.399  33.785  53.252  0.00  0.00     0.272 A 
ATOM      4  C   UNL d   1      51.603  33.785  53.063  0.00  0.00     0.088 A 
ATOM      5  S   UNL d   1      51.381  33.010  53.090  0.00  0.00    -0.054 SA
ATOM      6  S   UNL d   1      52.123  31.716  53.398  0.00  0.00    -0.052 SA
ATOM      7  O   UNL d   1      52.879  34.479  53.295  0.00  0.00    -0.266 OA
ENDROOT
BRANCH   1   8
ATOM      8  C   UNL d   1      53.405  32.747  53.596  0.00  0.00     0.132 C 
BRANCH   8   9
ATOM      9  C   UNL d   1      53.971  32.613  53.035  0.00  0.00     0.228 C 
ATOM     10  O   UNL d   1      54.258  33.219  52.553  0.00  0.00    -0.643 OA
ATOM     11  O   UNL d   1      54.268  31.836  52.947  0.00  0.00    -0.643 OA
ENDBRANCH   8   9
BRANCH   8  12
ATOM     12  C   UNL d   1      53.563  32.625  54.429  0.00  0.00     0.024 C 
BRANCH  12  13
ATOM     13  C   UNL d   1      54.173  33.046  54.774  0.00  0.00     0.002 A 
ATOM     14  C   UNL d   1      54.847  33.212  54.384  0.00  0.00     0.000 A 
ATOM     15  C   UNL d   1      55.457  33.646  54.764  0.00  0.00     0.000 A 
ATOM     16  C   UNL d   1      55.343  33.883  55.511  0.00  0.00     0.000 A 
ATOM     17  C   UNL d   1      54.658  33.723  55.931  0.00  0.00     0.000 A 
ATOM     18  C   UNL d   1      54.048  33.291  55.558  0.00  0.00     0.000 A 
ENDBRANCH  12  13
ENDBRANCH   8  12
ENDBRANCH   1   8
BRANCH   4  19
ATOM     19  C   UNL d   1      51.186  34.475  52.894  0.00  0.00     0.011 C 
BRANCH  19  20
ATOM     20  C   UNL d   1      50.495  34.482  52.403  0.00  0.00     0.001 A 
ATOM     21  C   UNL d   1      50.579  34.364  51.606  0.00  0.00     0.001 A 
ATOM     22  C   UNL d   1      49.919  34.365  51.102  0.00  0.00     0.007 A 
ATOM     23  C   UNL d   1      49.137  34.497  51.457  0.00  0.00     0.035 A 
ATOM     24  C   UNL d   1      49.087  34.613  52.266  0.00  0.00     0.007 A 
ATOM     25 BR   UNL d   1      48.444  34.505  50.972  0.00  0.00    -0.049 Br
ATOM     26  C   UNL d   1      49.748  34.607  52.733  0.00  0.00     0.001 A 
ENDBRANCH  19  20
ENDBRANCH   4  19
TORSDOF 6
ENDMDL
MODEL 4
REMARK VINA RESULT:      -7.3      1.436      2.151
REMARK  6 active torsions:
REMARK  status: ('A' for Active; 'I' for Inactive)
REMARK    1  A    between atoms: C_6  and  N_1 
REMARK    2  A    between atoms: C_7  and  C_4 
REMARK    3  A    between atoms: C_8  and  C_6 
REMARK    4  A    between atoms: C_11  and  C_6 
REMARK    5  A    between atoms: C_13  and  C_7 
REMARK    6  A    between atoms: C_16  and  C_11 
ROOT
ATOM      1  N   UNL d   1      52.173  33.032  53.083  0.00  0.00    -0.254 N 
ATOM      2  C   UNL d   1      51.560  32.588  53.122  0.00  0.00     0.153 A 
ATOM      3  C   UNL d   1      52.828  32.565  52.944  0.00  0.00     0.272 A 
ATOM      4  C   UNL d   1      52.586  31.785  52.896  0.00  0.00     0.088 A 
ATOM      5  S   UNL d   1      51.788  31.805  53.009  0.00  0.00    -0.054 SA
ATOM      6  S   UNL d   1      50.793  32.931  53.264  0.00  0.00    -0.052 SA
ATOM      7  O   UNL d   1      53.629  32.822  52.859  0.00  0.00    -0.266 OA
ENDROOT
BRANCH   1   8
ATOM      8  C   UNL d   1      52.156  33.870  53.172  0.00  0.00     0.132 C 
BRANCH   8   9
ATOM      9  C   UNL d   1      52.263  34.362  52.540  0.00  0.00     0.228 C 
ATOM     10  O   UNL d   1      53.008  34.478  52.201  0.00  0.00    -0.643 OA
ATOM     11  O   UNL d   1      51.598  34.761  52.228  0.00  0.00    -0.643 OA
ENDBRANCH   8   9
BRANCH   8  12
ATOM     12  C   UNL d   1      52.019  34.176  53.960  0.00  0.00     0.024 C 
BRANCH  12  13
ATOM     13  C   UNL d   1      52.588  34.662  54.290  0.00  0.00     0.002 A 
ATOM     14  C   UNL d   1      52.697  35.412  54.049  0.00  0.00     0.000 A 
ATOM     15  C   UNL d   1      53.289  35.888  54.407  0.00  0.00     0.000 A 
ATOM     16  C   UNL d   1      53.730  35.572  54.984  0.00  0.00     0.000 A 
ATOM     17  C   UNL d   1      53.635  34.803  55.248  0.00  0.00     0.000 A 
ATOM     18  C   UNL d   1      53.047  34.325  54.895  0.00  0.00     0.000 A 
ENDBRANCH  12  13
ENDBRANCH   8  12
ENDBRANCH   1   8
BRANCH   4  19
ATOM     19  C   UNL d   1      53.110  31.164  52.759  0.00  0.00     0.011 C 
BRANCH  19  20
ATOM     20  C   UNL d   1      53.167  30.492  53.274  0.00  0.00     0.001 A 
ATOM     21  C   UNL d   1      52.735  29.829  53.101  0.00  0.00     0.001 A 
ATOM     22  C   UNL d   1      52.771  29.157  53.587  0.00  0.00     0.007 A 
ATOM     23  C   UNL d   1      53.286  29.190  54.287  0.00  0.00     0.035 A 
ATOM     24  C   UNL d   1      53.709  29.876  54.433  0.00  0.00     0.007 A 
ATOM     25 BR   UNL d   1      53.346  28.522  54.804  0.00  0.00    -0.049 Br
ATOM     26  C   UNL d   1      53.654  30.516  53.941  0.00  0.00     0.001 A 
ENDBRANCH  19  20
ENDBRANCH   4  19
TORSDOF 6
ENDMDL
MODEL 5
REMARK VINA RESULT:      -7.0      1.913      4.404
REMARK  6 active torsions:
REMARK  status: ('A' for Active; 'I' for Inactive)
REMARK    1  A    between atoms: C_6  and  N_1 
REMARK    2  A    between atoms: C_7  and  C_4 
REMARK    3  A    between atoms: C_8  and  C_6 
REMARK    4  A    between atoms: C_11  and  C_6 
REMARK    5  A    between atoms: C_13  and  C_7 
REMARK    6  A    between atoms: C_16  and  C_11 
ROOT
ATOM      1  N   UNL d   1      53.193  33.271  53.726  0.00  0.00    -0.254 N 
ATOM      2  C   UNL d   1      52.988  33.791  54.238  0.00  0.00     0.153 A 
ATOM      3  C   UNL d   1      52.879  33.478  53.001  0.00  0.00     0.272 A 
ATOM      4  C   UNL d   1      52.456  34.172  53.090  0.00  0.00     0.088 A 
ATOM      5  S   UNL d   1      52.528  34.364  53.870  0.00  0.00    -0.054 SA
ATOM      6  S   UNL d   1      53.241  33.714  55.048  0.00  0.00    -0.052 SA
ATOM      7  O   UNL d   1      52.963  33.061  52.271  0.00  0.00    -0.266 OA
ENDROOT
BRANCH   1   8
ATOM      8  C   UNL d   1      53.669  32.598  53.900  0.00  0.00     0.132 C 
BRANCH   8   9
ATOM      9  C   UNL d   1      54.451  32.571  53.696  0.00  0.00     0.228 C 
ATOM     10  O   UNL d   1      54.693  32.489  52.911  0.00  0.00    -0.643 OA
ATOM     11  O   UNL d   1      55.023  32.630  54.303  0.00  0.00    -0.643 OA
ENDBRANCH   8   9
BRANCH   8  12
ATOM     12  C   UNL d   1      53.289  31.944  54.301  0.00  0.00     0.024 C 
BRANCH  12  13
ATOM     13  C   UNL d   1      53.277  31.216  53.930  0.00  0.00     0.002 A 
ATOM     14  C   UNL d   1      52.874  31.090  53.256  0.00  0.00     0.000 A 
ATOM     15  C   UNL d   1      52.879  30.331  52.897  0.00  0.00     0.000 A 
ATOM     16  C   UNL d   1      53.292  29.752  53.245  0.00  0.00     0.000 A 
ATOM     17  C   UNL d   1      53.714  29.859  53.938  0.00  0.00     0.000 A 
ATOM     18  C   UNL d   1      53.712  30.612  54.300  0.00  0.00     0.000 A 
ENDBRANCH  12  13
ENDBRANCH   8  12
ENDBRANCH   1   8
BRANCH   4  19
ATOM     19  C   UNL d   1      52.064  34.538  52.463  0.00  0.00     0.011 C 
BRANCH  19  20
ATOM     20  C   UNL d   1      51.218  34.542  52.394  0.00  0.00     0.001 A 
ATOM     21  C   UNL d   1      50.879  34.253  51.717  0.00  0.00     0.001 A 
ATOM     22  C   UNL d   1      50.054  34.245  51.623  0.00  0.00     0.007 A 
ATOM     23  C   UNL d   1      49.569  34.557  52.273  0.00  0.00     0.035 A 
ATOM     24  C   UNL d   1      49.943  34.842  52.943  0.00  0.00     0.007 A 
ATOM     25 BR   UNL d   1      48.724  34.564  52.209  0.00  0.00    -0.049 Br
ATOM     26  C   UNL d   1      50.750  34.837  53.007  0.00  0.00     0.001 A 
ENDBRANCH  19  20
ENDBRANCH   4  19
TORSDOF 6
ENDMDL
MODEL 6
REMARK VINA RESULT:      -6.3      2.718      4.898
REMARK  6 active torsions:
REMARK  status: ('A' for Active; 'I' for Inactive)
REMARK    1  A    between atoms: C_6  and  N_1 
REMARK    2  A    between atoms: C_7  and  C_4 
REMARK    3  A    between atoms: C_8  and  C_6 
REMARK    4  A    between atoms: C_11  and  C_6 
REMARK    5  A    between atoms: C_13  and  C_7 
REMARK    6  A    between atoms: C_16  and  C_11 
ROOT
ATOM      1  N   UNL d   1      53.042  31.478  53.284  0.00  0.00    -0.254 N 
ATOM      2  C   UNL d   1      52.446  31.918  53.122  0.00  0.00     0.153 A 
ATOM      3  C   UNL d   1      53.666  31.954  53.511  0.00  0.00     0.272 A 
ATOM      4  C   UNL d   1      53.422  32.734  53.482  0.00  0.00     0.088 A 
ATOM      5  S   UNL d   1      52.654  32.705  53.237  0.00  0.00    -0.054 SA
ATOM      6  S   UNL d   1      51.713  31.566  52.868  0.00  0.00    -0.052 SA
ATOM      7  O   UNL d   1      54.440  31.705  53.741  0.00  0.00    -0.266 OA
ENDROOT
BRANCH   1   8
ATOM      8  C   UNL d   1      53.038  30.637  53.230  0.00  0.00     0.132 C 
BRANCH   8   9
ATOM      9  C   UNL d   1      53.469  30.250  52.666  0.00  0.00     0.228 C 
ATOM     10  O   UNL d   1      54.291  30.190  52.713  0.00  0.00    -0.643 OA
ATOM     11  O   UNL d   1      53.063  29.904  52.023  0.00  0.00    -0.643 OA
ENDBRANCH   8   9
BRANCH   8  12
ATOM     12  C   UNL d   1      52.558  30.212  53.797  0.00  0.00     0.024 C 
BRANCH  12  13
ATOM     13  C   UNL d   1      52.914  29.627  54.244  0.00  0.00     0.002 A 
ATOM     14  C   UNL d   1      53.221  28.971  53.915  0.00  0.00     0.000 A 
ATOM     15  C   UNL d   1      53.580  28.386  54.399  0.00  0.00     0.000 A 
ATOM     16  C   UNL d   1      53.603  28.505  55.181  0.00  0.00     0.000 A 
ATOM     17  C   UNL d   1      53.293  29.173  55.541  0.00  0.00     0.000 A 
ATOM     18  C   UNL d   1      52.935  29.758  55.064  0.00  0.00     0.000 A 
ENDBRANCH  12  13
ENDBRANCH   8  12
ENDBRANCH   1   8
BRANCH   4  19
ATOM     19  C   UNL d   1      53.917  33.363  53.678  0.00  0.00     0.011 C 
BRANCH  19  20
ATOM     20  C   UNL d   1      53.626  34.086  54.013  0.00  0.00     0.001 A 
ATOM     21  C   UNL d   1      53.639  34.178  54.818  0.00  0.00     0.001 A 
ATOM     22  C   UNL d   1      53.360  34.875  55.173  0.00  0.00     0.007 A 
ATOM     23  C   UNL d   1      53.056  35.501  54.653  0.00  0.00     0.035 A 
ATOM     24  C   UNL d   1      53.057  35.377  53.843  0.00  0.00     0.007 A 
ATOM     25 BR   UNL d   1      52.764  36.225  54.982  0.00  0.00    -0.049 Br
ATOM     26  C   UNL d   1      53.335  34.686  53.526  0.00  0.00     0.001 A 
ENDBRANCH  19  20
ENDBRANCH   4  19
TORSDOF 6
ENDMDL
