MODEL 1
REMARK VINA RESULT:      -3.3      0.000      0.000
REMARK  5 active torsions:
REMARK  status: ('A' for Active; 'I' for Inactive)
REMARK       I    between atoms: C_3  and  N_1 
REMARK    1  A    between atoms: C_8  and  N_2 
REMARK    2  A    between atoms: C_11  and  C_3 
REMARK    3  A    between atoms: S_10  and  C_11 
REMARK    4  A    between atoms: C_13  and  S_10 
REMARK    5  A    between atoms: C_12  and  C_13 
ROOT
ATOM      1  N   UNL d   1      33.014  20.491 -22.295  0.00  0.00    -0.269 N 
ATOM      2  N   UNL d   1      32.896  21.691 -21.174  0.00  0.00    -0.301 N 
ATOM      3  C   UNL d   1      33.072  19.880 -22.860  0.00  0.00     0.259 C 
ATOM      4  C   UNL d   1      32.846  20.304 -21.514  0.00  0.00     0.102 A 
ATOM      5  C   UNL d   1      33.124  21.278 -22.519  0.00  0.00     0.102 A 
ATOM      6  C   UNL d   1      33.065  21.876 -21.960  0.00  0.00     0.100 A 
ATOM      7  C   UNL d   1      32.786  20.904 -20.951  0.00  0.00     0.100 A 
ATOM      8  O   UNL d   1      33.241  20.051 -23.651  0.00  0.00    -0.267 OA
ENDROOT
BRANCH   3   9
ATOM      9  C   UNL d   1      32.960  19.082 -22.629  0.00  0.00     0.125 C 
BRANCH   9  10
ATOM     10  S   UNL d   1      32.953  18.500 -23.195  0.00  0.00    -0.094 SA
BRANCH  10  11
ATOM     11  C   UNL d   1      32.930  17.709 -22.968  0.00  0.00     0.035 C 
BRANCH  11  12
ATOM     12  C   UNL d   1      32.676  17.134 -23.497  0.00  0.00     0.006 A 
ATOM     13  C   UNL d   1      31.869  16.988 -23.589  0.00  0.00     0.001 A 
ATOM     14  C   UNL d   1      31.612  16.411 -24.120  0.00  0.00     0.000 A 
ATOM     15  C   UNL d   1      32.162  15.981 -24.558  0.00  0.00     0.000 A 
ATOM     16  C   UNL d   1      32.968  16.126 -24.467  0.00  0.00     0.000 A 
ATOM     17  C   UNL d   1      33.225  16.704 -23.936  0.00  0.00     0.001 A 
ENDBRANCH  11  12
ENDBRANCH  10  11
ENDBRANCH   9  10
ENDBRANCH   3   9
BRANCH   2  18
ATOM     18  C   UNL d   1      32.839  22.288 -20.620  0.00  0.00     0.064 A 
ATOM     19  C   UNL d   1      32.418  22.975 -20.792  0.00  0.00     0.018 A 
ATOM     20  C   UNL d   1      32.362  23.577 -20.229  0.00  0.00     0.002 A 
ATOM     21  C   UNL d   1      32.727  23.489 -19.495  0.00  0.00     0.000 A 
ATOM     22  C   UNL d   1      33.148  22.802 -19.323  0.00  0.00     0.002 A 
ATOM     23  C   UNL d   1      33.204  22.202 -19.885  0.00  0.00     0.018 A 
ENDBRANCH   2  18
TORSDOF 5
ENDMDL
MODEL 2
REMARK VINA RESULT:      -3.0      1.179      5.864
REMARK  5 active torsions:
REMARK  status: ('A' for Active; 'I' for Inactive)
REMARK       I    between atoms: C_3  and  N_1 
REMARK    1  A    between atoms: C_8  and  N_2 
REMARK    2  A    between atoms: C_11  and  C_3 
REMARK    3  A    between atoms: S_10  and  C_11 
REMARK    4  A    between atoms: C_13  and  S_10 
REMARK    5  A    between atoms: C_12  and  C_13 
ROOT
ATOM      1  N   UNL d   1      32.889  19.087 -23.331  0.00  0.00    -0.269 N 
ATOM      2  N   UNL d   1      32.551  17.631 -24.021  0.00  0.00    -0.301 N 
ATOM      3  C   UNL d   1      33.060  19.822 -22.976  0.00  0.00     0.259 C 
ATOM      4  C   UNL d   1      32.712  18.441 -22.856  0.00  0.00     0.102 A 
ATOM      5  C   UNL d   1      32.897  19.008 -24.152  0.00  0.00     0.102 A 
ATOM      6  C   UNL d   1      32.729  18.282 -24.497  0.00  0.00     0.100 A 
ATOM      7  C   UNL d   1      32.543  17.711 -23.200  0.00  0.00     0.100 A 
ATOM      8  O   UNL d   1      33.240  20.483 -23.439  0.00  0.00    -0.267 OA
ENDROOT
BRANCH   3   9
ATOM      9  C   UNL d   1      33.051  19.900 -22.142  0.00  0.00     0.125 C 
BRANCH   9  10
ATOM     10  S   UNL d   1      33.034  20.640 -21.809  0.00  0.00    -0.094 SA
BRANCH  10  11
ATOM     11  C   UNL d   1      32.898  20.722 -21.000  0.00  0.00     0.035 C 
BRANCH  11  12
ATOM     12  C   UNL d   1      32.793  21.468 -20.673  0.00  0.00     0.006 A 
ATOM     13  C   UNL d   1      32.242  21.987 -21.002  0.00  0.00     0.001 A 
ATOM     14  C   UNL d   1      32.135  22.737 -20.675  0.00  0.00     0.000 A 
ATOM     15  C   UNL d   1      32.578  22.967 -20.019  0.00  0.00     0.000 A 
ATOM     16  C   UNL d   1      33.129  22.449 -19.690  0.00  0.00     0.000 A 
ATOM     17  C   UNL d   1      33.236  21.699 -20.017  0.00  0.00     0.001 A 
ENDBRANCH  11  12
ENDBRANCH  10  11
ENDBRANCH   9  10
ENDBRANCH   3   9
BRANCH   2  18
ATOM     18  C   UNL d   1      32.383  16.911 -24.367  0.00  0.00     0.064 A 
ATOM     19  C   UNL d   1      31.613  16.729 -24.598  0.00  0.00     0.018 A 
ATOM     20  C   UNL d   1      31.448  15.999 -24.947  0.00  0.00     0.002 A 
ATOM     21  C   UNL d   1      32.054  15.453 -25.065  0.00  0.00     0.000 A 
ATOM     22  C   UNL d   1      32.824  15.634 -24.834  0.00  0.00     0.002 A 
ATOM     23  C   UNL d   1      32.989  16.363 -24.486  0.00  0.00     0.018 A 
ENDBRANCH   2  18
TORSDOF 5
ENDMDL
MODEL 3
REMARK VINA RESULT:      -2.1      0.843      1.265
REMARK  5 active torsions:
REMARK  status: ('A' for Active; 'I' for Inactive)
REMARK       I    between atoms: C_3  and  N_1 
REMARK    1  A    between atoms: C_8  and  N_2 
REMARK    2  A    between atoms: C_11  and  C_3 
REMARK    3  A    between atoms: S_10  and  C_11 
REMARK    4  A    between atoms: C_13  and  S_10 
REMARK    5  A    between atoms: C_12  and  C_13 
ROOT
ATOM      1  N   UNL d   1      33.174  20.977 -21.493  0.00  0.00    -0.269 N 
ATOM      2  N   UNL d   1      33.111  21.937 -20.157  0.00  0.00    -0.301 N 
ATOM      3  C   UNL d   1      33.205  20.487 -22.167  0.00  0.00     0.259 C 
ATOM      4  C   UNL d   1      33.171  20.637 -20.746  0.00  0.00     0.102 A 
ATOM      5  C   UNL d   1      33.145  21.798 -21.575  0.00  0.00     0.102 A 
ATOM      6  C   UNL d   1      33.114  22.277 -20.909  0.00  0.00     0.100 A 
ATOM      7  C   UNL d   1      33.140  21.117 -20.075  0.00  0.00     0.100 A 
ATOM      8  O   UNL d   1      33.209  20.813 -22.927  0.00  0.00    -0.267 OA
ENDROOT
BRANCH   3   9
ATOM      9  C   UNL d   1      33.234  19.654 -22.080  0.00  0.00     0.125 C 
BRANCH   9  10
ATOM     10  S   UNL d   1      32.987  19.180 -22.691  0.00  0.00    -0.094 SA
BRANCH  10  11
ATOM     11  C   UNL d   1      33.114  18.366 -22.654  0.00  0.00     0.035 C 
BRANCH  11  12
ATOM     12  C   UNL d   1      32.855  17.880 -23.264  0.00  0.00     0.006 A 
ATOM     13  C   UNL d   1      32.828  18.169 -24.036  0.00  0.00     0.001 A 
ATOM     14  C   UNL d   1      32.568  17.683 -24.650  0.00  0.00     0.000 A 
ATOM     15  C   UNL d   1      32.335  16.908 -24.491  0.00  0.00     0.000 A 
ATOM     16  C   UNL d   1      32.362  16.619 -23.719  0.00  0.00     0.000 A 
ATOM     17  C   UNL d   1      32.622  17.106 -23.105  0.00  0.00     0.001 A 
ENDBRANCH  11  12
ENDBRANCH  10  11
ENDBRANCH   9  10
ENDBRANCH   3   9
BRANCH   2  18
ATOM     18  C   UNL d   1      33.080  22.416 -19.496  0.00  0.00     0.064 A 
ATOM     19  C   UNL d   1      33.241  22.106 -18.750  0.00  0.00     0.018 A 
ATOM     20  C   UNL d   1      33.209  22.594 -18.084  0.00  0.00     0.002 A 
ATOM     21  C   UNL d   1      33.015  23.391 -18.167  0.00  0.00     0.000 A 
ATOM     22  C   UNL d   1      32.854  23.701 -18.914  0.00  0.00     0.002 A 
ATOM     23  C   UNL d   1      32.887  23.214 -19.578  0.00  0.00     0.018 A 
ENDBRANCH   2  18
TORSDOF 5
ENDMDL
