MODEL 1
REMARK VINA RESULT:      -4.4      0.000      0.000
REMARK  5 active torsions:
REMARK  status: ('A' for Active; 'I' for Inactive)
REMARK    1  A    between atoms: C_8  and  N_1 
REMARK       I    between atoms: N_2  and  C_4 
REMARK    2  A    between atoms: C_3  and  N_2 
REMARK    3  A    between atoms: N_6  and  C_3 
REMARK    4  A    between atoms: C_4  and  C_12 
REMARK    5  A    between atoms: C_7  and  N_6 
ROOT
ATOM      1  N   UNL d   1     -41.803-122.225 -51.868  0.00  0.00    -0.168 NA
ATOM      2  C   UNL d   1     -41.596-121.959 -51.115  0.00  0.00     0.282 C 
ATOM      3  O   UNL d   1     -41.138-121.285 -51.028  0.00  0.00    -0.265 OA
ENDROOT
BRANCH   2   4
ATOM      4  C   UNL d   1     -41.853-122.375 -50.447  0.00  0.00     0.058 A 
ATOM      5  C   UNL d   1     -42.662-122.376 -50.257  0.00  0.00     0.006 A 
ATOM      6  C   UNL d   1     -42.921-122.786 -49.598  0.00  0.00     0.024 A 
ATOM      7  C   UNL d   1     -42.378-123.197 -49.124  0.00  0.00     0.127 A 
ATOM      8  C   UNL d   1     -41.576-123.191 -49.320  0.00  0.00     0.024 A 
ATOM      9  C   UNL d   1     -41.320-122.776 -49.987  0.00  0.00     0.006 A 
BRANCH   7  10
ATOM     10  N   UNL d   1     -42.640-123.608 -48.462  0.00  0.00    -0.114 N 
ATOM     11  O   UNL d   1     -42.110-123.817 -47.865  0.00  0.00    -0.532 OA
ATOM     12  O   UNL d   1     -43.433-123.809 -48.398  0.00  0.00    -0.532 OA
ENDBRANCH   7  10
ENDBRANCH   2   4
BRANCH   1  13
ATOM     13  C   UNL d   1     -41.551-121.817 -52.536  0.00  0.00     0.275 C 
ATOM     14  S   UNL d   1     -41.124-121.118 -52.449  0.00  0.00    -0.023 SA
BRANCH  13  15
ATOM     15  N   UNL d   1     -41.722-122.102 -53.289  0.00  0.00    -0.369 NA
BRANCH  15  16
ATOM     16  C   UNL d   1     -41.892-122.376 -54.029  0.00  0.00     0.180 A 
ATOM     17  C   UNL d   1     -41.726-122.989 -54.402  0.00  0.00     0.255 A 
ATOM     18  S   UNL d   1     -41.976-123.077 -55.097  0.00  0.00    -0.043 SA
ATOM     19  O   UNL d   1     -41.316-123.511 -54.094  0.00  0.00    -0.277 OA
ATOM     20  C   UNL d   1     -42.386-122.554 -55.405  0.00  0.00     0.041 A 
ATOM     21  C   UNL d   1     -42.552-121.943 -55.033  0.00  0.00     0.043 A 
ENDBRANCH  15  16
ENDBRANCH  13  15
ENDBRANCH   1  13
TORSDOF 5
ENDMDL
MODEL 2
REMARK VINA RESULT:      -4.3      1.627      4.845
REMARK  5 active torsions:
REMARK  status: ('A' for Active; 'I' for Inactive)
REMARK    1  A    between atoms: C_8  and  N_1 
REMARK       I    between atoms: N_2  and  C_4 
REMARK    2  A    between atoms: C_3  and  N_2 
REMARK    3  A    between atoms: N_6  and  C_3 
REMARK    4  A    between atoms: C_4  and  C_12 
REMARK    5  A    between atoms: C_7  and  N_6 
ROOT
ATOM      1  N   UNL d   1     -41.764-122.400 -51.529  0.00  0.00    -0.168 NA
ATOM      2  C   UNL d   1     -41.506-121.869 -52.104  0.00  0.00     0.282 C 
ATOM      3  O   UNL d   1     -41.124-121.177 -51.884  0.00  0.00    -0.265 OA
ENDROOT
BRANCH   2   4
ATOM      4  C   UNL d   1     -41.634-122.035 -52.904  0.00  0.00     0.058 A 
ATOM      5  C   UNL d   1     -42.173-121.572 -53.334  0.00  0.00     0.006 A 
ATOM      6  C   UNL d   1     -42.302-121.733 -54.126  0.00  0.00     0.024 A 
ATOM      7  C   UNL d   1     -41.898-122.355 -54.495  0.00  0.00     0.127 A 
ATOM      8  C   UNL d   1     -41.363-122.811 -54.061  0.00  0.00     0.024 A 
ATOM      9  C   UNL d   1     -41.236-122.645 -53.262  0.00  0.00     0.006 A 
BRANCH   7  10
ATOM     10  N   UNL d   1     -42.029-122.515 -55.290  0.00  0.00    -0.114 N 
ATOM     11  O   UNL d   1     -41.597-123.105 -55.674  0.00  0.00    -0.532 OA
ATOM     12  O   UNL d   1     -42.594-122.086 -55.702  0.00  0.00    -0.532 OA
ENDBRANCH   7  10
ENDBRANCH   2   4
BRANCH   1  13
ATOM     13  C   UNL d   1     -41.640-122.241 -50.731  0.00  0.00     0.275 C 
ATOM     14  S   UNL d   1     -41.123-121.639 -50.512  0.00  0.00    -0.023 SA
BRANCH  13  15
ATOM     15  N   UNL d   1     -42.029-122.678 -50.152  0.00  0.00    -0.369 NA
BRANCH  15  16
ATOM     16  C   UNL d   1     -42.414-123.108 -49.588  0.00  0.00     0.180 A 
ATOM     17  C   UNL d   1     -43.059-123.463 -49.559  0.00  0.00     0.255 A 
ATOM     18  S   UNL d   1     -43.258-123.817 -48.936  0.00  0.00    -0.043 SA
ATOM     19  O   UNL d   1     -43.504-123.469 -50.141  0.00  0.00    -0.277 OA
ATOM     20  C   UNL d   1     -42.812-123.811 -48.356  0.00  0.00     0.041 A 
ATOM     21  C   UNL d   1     -42.169-123.456 -48.383  0.00  0.00     0.043 A 
ENDBRANCH  15  16
ENDBRANCH  13  15
ENDBRANCH   1  13
TORSDOF 5
ENDMDL
MODEL 3
REMARK VINA RESULT:      -1.6      1.788      5.195
REMARK  5 active torsions:
REMARK  status: ('A' for Active; 'I' for Inactive)
REMARK    1  A    between atoms: C_8  and  N_1 
REMARK       I    between atoms: N_2  and  C_4 
REMARK    2  A    between atoms: C_3  and  N_2 
REMARK    3  A    between atoms: N_6  and  C_3 
REMARK    4  A    between atoms: C_4  and  C_12 
REMARK    5  A    between atoms: C_7  and  N_6 
ROOT
ATOM      1  N   UNL d   1     -41.910-122.844 -52.757  0.00  0.00    -0.168 NA
ATOM      2  C   UNL d   1     -41.634-123.123 -53.483  0.00  0.00     0.282 C 
ATOM      3  O   UNL d   1     -41.124-123.764 -53.511  0.00  0.00    -0.265 OA
ENDROOT
BRANCH   2   4
ATOM      4  C   UNL d   1     -41.875-122.753 -54.182  0.00  0.00     0.058 A 
ATOM      5  C   UNL d   1     -41.735-121.940 -54.280  0.00  0.00     0.006 A 
ATOM      6  C   UNL d   1     -41.971-121.570 -54.971  0.00  0.00     0.024 A 
ATOM      7  C   UNL d   1     -42.347-122.005 -55.568  0.00  0.00     0.127 A 
ATOM      8  C   UNL d   1     -42.482-122.813 -55.464  0.00  0.00     0.024 A 
ATOM      9  C   UNL d   1     -42.241-123.182 -54.765  0.00  0.00     0.006 A 
BRANCH   7  10
ATOM     10  N   UNL d   1     -42.583-121.631 -56.261  0.00  0.00    -0.114 N 
ATOM     11  O   UNL d   1     -42.268-120.895 -56.466  0.00  0.00    -0.532 OA
ATOM     12  O   UNL d   1     -43.134-121.992 -56.749  0.00  0.00    -0.532 OA
ENDBRANCH   7  10
ENDBRANCH   2   4
BRANCH   1  13
ATOM     13  C   UNL d   1     -41.675-123.207 -52.057  0.00  0.00     0.275 C 
ATOM     14  S   UNL d   1     -41.123-123.817 -52.080  0.00  0.00    -0.023 SA
BRANCH  13  15
ATOM     15  N   UNL d   1     -41.988-122.965 -51.335  0.00  0.00    -0.369 NA
BRANCH  15  16
ATOM     16  C   UNL d   1     -42.293-122.723 -50.628  0.00  0.00     0.180 A 
ATOM     17  C   UNL d   1     -42.002-122.537 -49.977  0.00  0.00     0.255 A 
ATOM     18  S   UNL d   1     -42.448-122.333 -49.418  0.00  0.00    -0.043 SA
ATOM     19  O   UNL d   1     -41.277-122.550 -49.879  0.00  0.00    -0.277 OA
ATOM     20  C   UNL d   1     -43.173-122.320 -49.518  0.00  0.00     0.041 A 
ATOM     21  C   UNL d   1     -43.464-122.506 -50.167  0.00  0.00     0.043 A 
ENDBRANCH  15  16
ENDBRANCH  13  15
ENDBRANCH   1  13
TORSDOF 5
ENDMDL
