MODEL 1
REMARK VINA RESULT:      -8.1      0.000      0.000
REMARK  5 active torsions:
REMARK  status: ('A' for Active; 'I' for Inactive)
REMARK    1  A    between atoms: S_2  and  C_1 
REMARK    2  A    between atoms: C_9  and  S_2 
REMARK    3  A    between atoms: N_14  and  C_10 
REMARK    4  A    between atoms: C_22  and  N_14 
REMARK    5  A    between atoms: C_23  and  N_14 
ROOT
ATOM      1  C   UNL d   1      50.618  34.220  52.901  0.00  0.00     0.151 A 
ATOM      2  C   UNL d   1      50.652  33.439  53.165  0.00  0.00     0.311 A 
ATOM      3  C   UNL d   1      51.294  34.701  52.947  0.00  0.00     0.019 A 
ATOM      4  O   UNL d   1      51.362  33.140  53.476  0.00  0.00    -0.272 OA
ATOM      5  C   UNL d   1      52.029  33.619  53.520  0.00  0.00     0.105 A 
ATOM      6  C   UNL d   1      51.995  34.400  53.256  0.00  0.00     0.024 A 
ATOM      7  C   UNL d   1      52.731  33.318  53.828  0.00  0.00     0.042 A 
ATOM      8  C   UNL d   1      53.398  33.797  53.872  0.00  0.00     0.066 A 
ATOM      9  O   UNL d   1      49.980  32.959  53.120  0.00  0.00    -0.258 OA
ATOM     10  C   UNL d   1      52.663  34.880  53.300  0.00  0.00     0.004 A 
ATOM     11  C   UNL d   1      53.364  34.578  53.608  0.00  0.00     0.018 A 
ENDROOT
BRANCH   1  12
ATOM     12  S   UNL d   1      49.912  34.529  52.589  0.00  0.00     0.215 S 
ATOM     13  O   UNL d   1      49.704  34.820  53.345  0.00  0.00    -0.217 OA
ATOM     14  O   UNL d   1      50.113  34.240  51.830  0.00  0.00    -0.217 OA
BRANCH  12  15
ATOM     15  C   UNL d   1      49.198  34.841  52.274  0.00  0.00     0.088 A 
ATOM     16  C   UNL d   1      48.723  35.320  52.743  0.00  0.00     0.011 A 
ATOM     17  C   UNL d   1      48.022  35.628  52.439  0.00  0.00     0.001 A 
ATOM     18  C   UNL d   1      47.798  35.456  51.664  0.00  0.00     0.000 A 
ATOM     19  C   UNL d   1      48.278  34.974  51.193  0.00  0.00     0.001 A 
ATOM     20  C   UNL d   1      47.088  35.766  51.349  0.00  0.00     0.000 C 
ATOM     21  C   UNL d   1      48.978  34.666  51.498  0.00  0.00     0.011 A 
ENDBRANCH  12  15
ENDBRANCH   1  12
BRANCH   8  22
ATOM     22  N   UNL d   1      54.111  33.498  54.184  0.00  0.00    -0.304 N 
BRANCH  22  23
ATOM     23  C   UNL d   1      54.431  33.829  54.872  0.00  0.00     0.080 C 
ATOM     24  C   UNL d   1      54.759  33.341  55.451  0.00  0.00     0.021 C 
ENDBRANCH  22  23
BRANCH  22  25
ATOM     25  C   UNL d   1      54.493  32.874  53.802  0.00  0.00     0.080 C 
ATOM     26  C   UNL d   1      55.264  32.968  53.528  0.00  0.00     0.021 C 
ENDBRANCH  22  25
ENDBRANCH   8  22
TORSDOF 5
ENDMDL
MODEL 2
REMARK VINA RESULT:      -7.5      1.661      5.293
REMARK  5 active torsions:
REMARK  status: ('A' for Active; 'I' for Inactive)
REMARK    1  A    between atoms: S_2  and  C_1 
REMARK    2  A    between atoms: C_9  and  S_2 
REMARK    3  A    between atoms: N_14  and  C_10 
REMARK    4  A    between atoms: C_22  and  N_14 
REMARK    5  A    between atoms: C_23  and  N_14 
ROOT
ATOM      1  C   UNL d   1      51.384  34.214  53.037  0.00  0.00     0.151 A 
ATOM      2  C   UNL d   1      51.327  34.033  52.233  0.00  0.00     0.311 A 
ATOM      3  C   UNL d   1      50.747  34.582  53.423  0.00  0.00     0.019 A 
ATOM      4  O   UNL d   1      50.634  34.222  51.817  0.00  0.00    -0.272 OA
ATOM      5  C   UNL d   1      50.006  34.587  52.202  0.00  0.00     0.105 A 
ATOM      6  C   UNL d   1      50.062  34.767  53.005  0.00  0.00     0.024 A 
ATOM      7  C   UNL d   1      49.320  34.773  51.786  0.00  0.00     0.042 A 
ATOM      8  C   UNL d   1      48.692  35.138  52.171  0.00  0.00     0.066 A 
ATOM      9  O   UNL d   1      51.960  33.666  51.848  0.00  0.00    -0.258 OA
ATOM     10  C   UNL d   1      49.433  35.133  53.392  0.00  0.00     0.004 A 
ATOM     11  C   UNL d   1      48.748  35.318  52.974  0.00  0.00     0.018 A 
ENDROOT
BRANCH   1  12
ATOM     12  S   UNL d   1      52.074  34.028  53.462  0.00  0.00     0.215 S 
ATOM     13  O   UNL d   1      51.733  33.302  53.701  0.00  0.00    -0.217 OA
ATOM     14  O   UNL d   1      52.421  34.752  53.228  0.00  0.00    -0.217 OA
BRANCH  12  15
ATOM     15  C   UNL d   1      52.771  33.841  53.892  0.00  0.00     0.088 A 
ATOM     16  C   UNL d   1      53.181  34.438  54.282  0.00  0.00     0.011 A 
ATOM     17  C   UNL d   1      53.864  34.259  54.704  0.00  0.00     0.001 A 
ATOM     18  C   UNL d   1      54.138  33.482  54.737  0.00  0.00     0.000 A 
ATOM     19  C   UNL d   1      53.724  32.882  54.345  0.00  0.00     0.001 A 
ATOM     20  C   UNL d   1      54.832  33.293  55.165  0.00  0.00     0.000 C 
ATOM     21  C   UNL d   1      53.040  33.062  53.922  0.00  0.00     0.011 A 
ENDBRANCH  12  15
ENDBRANCH   1  12
BRANCH   8  22
ATOM     22  N   UNL d   1      47.995  35.328  51.754  0.00  0.00    -0.304 N 
BRANCH  22  23
ATOM     23  C   UNL d   1      47.377  35.720  52.142  0.00  0.00     0.080 C 
ATOM     24  C   UNL d   1      46.933  36.288  51.741  0.00  0.00     0.021 C 
ENDBRANCH  22  23
BRANCH  22  25
ATOM     25  C   UNL d   1      47.928  35.124  50.958  0.00  0.00     0.080 C 
ATOM     26  C   UNL d   1      47.224  34.805  50.672  0.00  0.00     0.021 C 
ENDBRANCH  22  25
ENDBRANCH   8  22
TORSDOF 5
ENDMDL
MODEL 3
REMARK VINA RESULT:      -5.9      1.722      3.105
REMARK  5 active torsions:
REMARK  status: ('A' for Active; 'I' for Inactive)
REMARK    1  A    between atoms: S_2  and  C_1 
REMARK    2  A    between atoms: C_9  and  S_2 
REMARK    3  A    between atoms: N_14  and  C_10 
REMARK    4  A    between atoms: C_22  and  N_14 
REMARK    5  A    between atoms: C_23  and  N_14 
ROOT
ATOM      1  C   UNL d   1      48.067  35.401  52.320  0.00  0.00     0.151 A 
ATOM      2  C   UNL d   1      48.305  35.583  53.088  0.00  0.00     0.311 A 
ATOM      3  C   UNL d   1      48.580  34.986  51.816  0.00  0.00     0.019 A 
ATOM      4  O   UNL d   1      49.057  35.350  53.353  0.00  0.00    -0.272 OA
ATOM      5  C   UNL d   1      49.563  34.938  52.851  0.00  0.00     0.105 A 
ATOM      6  C   UNL d   1      49.324  34.756  52.082  0.00  0.00     0.024 A 
ATOM      7  C   UNL d   1      50.307  34.708  53.117  0.00  0.00     0.042 A 
ATOM      8  C   UNL d   1      50.813  34.296  52.615  0.00  0.00     0.066 A 
ATOM      9  O   UNL d   1      47.795  35.997  53.591  0.00  0.00    -0.258 OA
ATOM     10  C   UNL d   1      49.831  34.344  51.580  0.00  0.00     0.004 A 
ATOM     11  C   UNL d   1      50.575  34.114  51.847  0.00  0.00     0.018 A 
ENDROOT
BRANCH   1  12
ATOM     12  S   UNL d   1      47.316  35.631  52.046  0.00  0.00     0.215 S 
ATOM     13  O   UNL d   1      46.996  34.904  52.309  0.00  0.00    -0.217 OA
ATOM     14  O   UNL d   1      47.628  36.360  51.780  0.00  0.00    -0.217 OA
BRANCH  12  15
ATOM     15  C   UNL d   1      46.557  35.863  51.770  0.00  0.00     0.088 A 
ATOM     16  C   UNL d   1      46.246  35.512  51.094  0.00  0.00     0.011 A 
ATOM     17  C   UNL d   1      45.503  35.736  50.820  0.00  0.00     0.001 A 
ATOM     18  C   UNL d   1      45.071  36.312  51.222  0.00  0.00     0.000 A 
ATOM     19  C   UNL d   1      45.385  36.665  51.901  0.00  0.00     0.001 A 
ATOM     20  C   UNL d   1      44.315  36.544  50.948  0.00  0.00     0.000 C 
ATOM     21  C   UNL d   1      46.129  36.440  52.175  0.00  0.00     0.011 A 
ENDBRANCH  12  15
ENDBRANCH   1  12
BRANCH   8  22
ATOM     22  N   UNL d   1      51.568  34.061  52.879  0.00  0.00    -0.304 N 
BRANCH  22  23
ATOM     23  C   UNL d   1      51.659  33.340  53.275  0.00  0.00     0.080 C 
ATOM     24  C   UNL d   1      52.284  32.838  53.080  0.00  0.00     0.021 C 
ENDBRANCH  22  23
BRANCH  22  25
ATOM     25  C   UNL d   1      52.218  34.550  52.742  0.00  0.00     0.080 C 
ATOM     26  C   UNL d   1      52.762  34.693  53.345  0.00  0.00     0.021 C 
ENDBRANCH  22  25
ENDBRANCH   8  22
TORSDOF 5
ENDMDL
MODEL 4
REMARK VINA RESULT:      -5.3      9.761     11.006
REMARK  5 active torsions:
REMARK  status: ('A' for Active; 'I' for Inactive)
REMARK    1  A    between atoms: S_2  and  C_1 
REMARK    2  A    between atoms: C_9  and  S_2 
REMARK    3  A    between atoms: N_14  and  C_10 
REMARK    4  A    between atoms: C_22  and  N_14 
REMARK    5  A    between atoms: C_23  and  N_14 
ROOT
ATOM      1  C   UNL d   1      44.933  26.877  57.427  0.00  0.00     0.151 A 
ATOM      2  C   UNL d   1      45.339  26.959  58.140  0.00  0.00     0.311 A 
ATOM      3  C   UNL d   1      44.590  27.543  57.068  0.00  0.00     0.019 A 
ATOM      4  O   UNL d   1      45.402  27.707  58.495  0.00  0.00    -0.272 OA
ATOM      5  C   UNL d   1      45.062  28.365  58.137  0.00  0.00     0.105 A 
ATOM      6  C   UNL d   1      44.655  28.283  57.424  0.00  0.00     0.024 A 
ATOM      7  C   UNL d   1      45.127  29.105  58.491  0.00  0.00     0.042 A 
ATOM      8  C   UNL d   1      44.786  29.763  58.134  0.00  0.00     0.066 A 
ATOM      9  O   UNL d   1      45.681  26.296  58.498  0.00  0.00    -0.258 OA
ATOM     10  C   UNL d   1      44.314  28.941  57.065  0.00  0.00     0.004 A 
ATOM     11  C   UNL d   1      44.380  29.681  57.420  0.00  0.00     0.018 A 
ENDROOT
BRANCH   1  12
ATOM     12  S   UNL d   1      44.864  26.132  57.065  0.00  0.00     0.215 S 
ATOM     13  O   UNL d   1      45.413  26.365  56.478  0.00  0.00    -0.217 OA
ATOM     14  O   UNL d   1      44.314  25.891  57.647  0.00  0.00    -0.217 OA
BRANCH  12  15
ATOM     15  C   UNL d   1      44.795  25.379  56.698  0.00  0.00     0.088 A 
ATOM     16  C   UNL d   1      44.396  24.773  57.086  0.00  0.00     0.011 A 
ATOM     17  C   UNL d   1      44.326  24.033  56.731  0.00  0.00     0.001 A 
ATOM     18  C   UNL d   1      44.655  23.900  55.987  0.00  0.00     0.000 A 
ATOM     19  C   UNL d   1      45.056  24.510  55.597  0.00  0.00     0.001 A 
ATOM     20  C   UNL d   1      44.588  23.151  55.620  0.00  0.00     0.000 C 
ATOM     21  C   UNL d   1      45.126  25.250  55.953  0.00  0.00     0.011 A 
ENDBRANCH  12  15
ENDBRANCH   1  12
BRANCH   8  22
ATOM     22  N   UNL d   1      44.849  30.515  58.488  0.00  0.00    -0.304 N 
BRANCH  22  23
ATOM     23  C   UNL d   1      44.418  30.683  59.175  0.00  0.00     0.080 C 
ATOM     24  C   UNL d   1      44.789  31.050  59.815  0.00  0.00     0.021 C 
ENDBRANCH  22  23
BRANCH  22  25
ATOM     25  C   UNL d   1      45.340  31.085  58.150  0.00  0.00     0.080 C 
ATOM     26  C   UNL d   1      45.038  31.826  57.953  0.00  0.00     0.021 C 
ENDBRANCH  22  25
ENDBRANCH   8  22
TORSDOF 5
ENDMDL
