MODEL 1
REMARK VINA RESULT:      46.1      0.000      0.000
REMARK  4 active torsions:
REMARK  status: ('A' for Active; 'I' for Inactive)
REMARK    1  A    between atoms: C_4  and  C_1 
REMARK    2  A    between atoms: C_13  and  N_3 
REMARK    3  A    between atoms: C_11  and  N_5 
REMARK    4  A    between atoms: C_14  and  C_11 
ROOT
ATOM      1  C   UNL d   1     -56.523 -99.243 -44.275  0.00  0.00     0.057 A 
ATOM      2  N   UNL d   1     -55.340 -99.840 -44.055  0.00  0.00    -0.272 N 
ATOM      3  C   UNL d   1     -55.349 -99.120 -43.639  0.00  0.00     0.265 A 
ATOM      4  C   UNL d   1     -56.060 -99.910 -44.441  0.00  0.00     0.086 A 
ATOM      5  C   UNL d   1     -56.074 -98.756 -43.775  0.00  0.00     0.066 A 
ATOM      6  O   UNL d   1     -54.731 -98.830 -43.174  0.00  0.00    -0.267 OA
ENDROOT
BRANCH   1   7
ATOM      7  C   UNL d   1     -57.276 -99.137 -44.574  0.00  0.00     0.149 A 
ATOM      8  N   UNL d   1     -57.508 -98.993 -45.321  0.00  0.00    -0.227 NA
ATOM      9  C   UNL d   1     -58.334 -98.929 -45.335  0.00  0.00     0.099 A 
ATOM     10  C   UNL d   1     -58.856 -98.787 -45.945  0.00  0.00     0.021 A 
ATOM     11  C   UNL d   1     -58.599 -99.038 -44.572  0.00  0.00     0.083 A 
ATOM     12  C   UNL d   1     -59.668 -98.755 -45.775  0.00  0.00     0.002 A 
ATOM     13  C   UNL d   1     -59.934 -98.864 -45.012  0.00  0.00     0.002 A 
ATOM     14  C   UNL d   1     -59.396 -99.009 -44.396  0.00  0.00     0.019 A 
ATOM     15  N   UNL d   1     -57.935 -99.168 -44.095  0.00  0.00    -0.289 N 
BRANCH  15  16
ATOM     16  C   UNL d   1     -57.936 -99.308 -43.272  0.00  0.00     0.082 C 
ATOM     17  C   UNL d   1     -58.375 -98.804 -42.761  0.00  0.00     0.021 C 
ENDBRANCH  15  16
ENDBRANCH   1   7
BRANCH   2  18
ATOM     18  C   UNL d   1     -54.712-100.391 -44.074  0.00  0.00     0.083 C 
BRANCH  18  19
ATOM     19  C   UNL d   1     -54.861-101.170 -44.323  0.00  0.00     0.018 A 
ATOM     20  C   UNL d   1     -55.094-101.735 -43.762  0.00  0.00     0.002 A 
ATOM     21  C   UNL d   1     -55.242-102.506 -44.013  0.00  0.00     0.000 A 
ATOM     22  C   UNL d   1     -55.161-102.718 -44.801  0.00  0.00     0.000 A 
ATOM     23  C   UNL d   1     -54.929-102.153 -45.355  0.00  0.00     0.000 A 
ATOM     24  C   UNL d   1     -54.778-101.374 -45.112  0.00  0.00     0.002 A 
ENDBRANCH  18  19
ENDBRANCH   2  18
TORSDOF 4
ENDMDL
