MODEL 1
REMARK VINA RESULT:      -1.9      0.000      0.000
REMARK  5 active torsions:
REMARK  status: ('A' for Active; 'I' for Inactive)
REMARK    1  A    between atoms: N_7  and  C_1 
REMARK    2  A    between atoms: C_14  and  N_4 
REMARK    3  A    between atoms: S_5  and  N_8 
REMARK    4  A    between atoms: C_13  and  S_5 
REMARK       I    between atoms: C_9  and  N_7 
REMARK    5  A    between atoms: C_15  and  C_9 
ROOT
ATOM      1  N   UNL d   1      57.518  -0.588  30.581  0.00  0.00    -0.202 NA
ATOM      2  C   UNL d   1      57.714  -0.355  31.356  0.00  0.00     0.279 C 
ATOM      3  O   UNL d   1      58.511  -0.269  31.580  0.00  0.00    -0.265 OA
ENDROOT
BRANCH   2   4
ATOM      4  C   UNL d   1      57.121  -0.207  31.908  0.00  0.00     0.061 A 
ATOM      5  C   UNL d   1      56.775   0.540  31.975  0.00  0.00     0.025 A 
ATOM      6  C   UNL d   1      56.182   0.680  32.530  0.00  0.00     0.092 A 
ATOM      7  N   UNL d   1      55.929   0.074  33.024  0.00  0.00    -0.229 N 
ATOM      8  C   UNL d   1      56.270  -0.685  32.967  0.00  0.00     0.092 A 
ATOM      9  C   UNL d   1      56.860  -0.824  32.414  0.00  0.00     0.025 A 
BRANCH   7  10
ATOM     10  S   UNL d   1      55.327   0.219  33.586  0.00  0.00     0.271 S 
ATOM     11  O   UNL d   1      54.761   0.216  32.981  0.00  0.00    -0.200 OA
ATOM     12  O   UNL d   1      55.907   0.220  34.182  0.00  0.00    -0.200 OA
BRANCH  10  13
ATOM     13  C   UNL d   1      54.739   0.363  34.146  0.00  0.00     0.104 A 
ATOM     14  C   UNL d   1      54.932   0.408  34.947  0.00  0.00     0.013 A 
ATOM     15  C   UNL d   1      54.345   0.552  35.508  0.00  0.00     0.001 A 
ATOM     16  C   UNL d   1      53.559   0.650  35.266  0.00  0.00     0.000 A 
ATOM     17  C   UNL d   1      53.363   0.604  34.461  0.00  0.00     0.001 A 
ATOM     18  C   UNL d   1      53.959   0.459  33.899  0.00  0.00     0.013 A 
ENDBRANCH  10  13
ENDBRANCH   7  10
ENDBRANCH   2   4
BRANCH   1  19
ATOM     19  C   UNL d   1      58.115  -0.735  30.032  0.00  0.00     0.160 A 
ATOM     20  C   UNL d   1      58.510  -1.451  29.930  0.00  0.00     0.298 A 
ATOM     21  N   UNL d   1      59.059  -1.351  29.326  0.00  0.00    -0.209 N 
ATOM     22  O   UNL d   1      58.377  -2.139  30.357  0.00  0.00    -0.263 OA
ATOM     23  N   UNL d   1      59.002  -0.578  29.057  0.00  0.00    -0.238 N 
ATOM     24  C   UNL d   1      58.419  -0.196  29.492  0.00  0.00     0.104 A 
ATOM     25  C   UNL d   1      59.453  -0.244  28.455  0.00  0.00     0.120 C 
ATOM     26  C   UNL d   1      58.182   0.589  29.404  0.00  0.00     0.022 C 
BRANCH  21  27
ATOM     27  C   UNL d   1      59.573  -1.930  29.044  0.00  0.00     0.085 A 
ATOM     28  C   UNL d   1      59.261  -2.628  28.743  0.00  0.00     0.019 A 
ATOM     29  C   UNL d   1      59.771  -3.212  28.459  0.00  0.00     0.002 A 
ATOM     30  C   UNL d   1      60.590  -3.090  28.480  0.00  0.00     0.000 A 
ATOM     31  C   UNL d   1      60.897  -2.384  28.785  0.00  0.00     0.002 A 
ATOM     32  C   UNL d   1      60.388  -1.805  29.067  0.00  0.00     0.019 A 
ENDBRANCH  21  27
ENDBRANCH   1  19
TORSDOF 5
ENDMDL
