MODEL 1
REMARK VINA RESULT:      -4.4      0.000      0.000
REMARK  0 active torsions:
REMARK  status: ('A' for Active; 'I' for Inactive)
ROOT
ATOM      1  C   UNL d   1      57.268  -0.270  31.847  0.00  0.00     0.094 A 
ATOM      2  C   UNL d   1      57.730   0.364  32.102  0.00  0.00     0.143 A 
ATOM      3  S   UNL d   1      57.617   0.682  32.855  0.00  0.00    -0.055 SA
ATOM      4  C   UNL d   1      56.693  -0.587  32.346  0.00  0.00     0.013 A 
ATOM      5  C   UNL d   1      57.041   0.364  33.354  0.00  0.00     0.086 A 
ATOM      6  C   UNL d   1      56.579  -0.270  33.100  0.00  0.00     0.017 A 
ATOM      7  C   UNL d   1      57.381  -0.586  31.094  0.00  0.00     0.103 C 
ATOM      8  N   UNL d   1      57.493  -0.902  30.346  0.00  0.00    -0.191 NA
ATOM      9  S   UNL d   1      56.926   0.681  34.112  0.00  0.00    -0.071 SA
ATOM     10  N   UNL d   1      58.303   0.682  31.608  0.00  0.00    -0.140 N 
ATOM     11  C   UNL d   1      56.231  -1.220  32.092  0.00  0.00     0.001 A 
ATOM     12  C   UNL d   1      56.004  -0.587  33.599  0.00  0.00     0.001 A 
ATOM     13  C   UNL d   1      55.655  -1.538  32.591  0.00  0.00     0.000 A 
ATOM     14  C   UNL d   1      55.542  -1.220  33.345  0.00  0.00     0.000 A 
ENDROOT
TORSDOF 0
ENDMDL
MODEL 2
REMARK VINA RESULT:      -2.8      9.712     10.002
REMARK  0 active torsions:
REMARK  status: ('A' for Active; 'I' for Inactive)
ROOT
ATOM      1  C   UNL d   1      59.798  -9.443  34.098  0.00  0.00     0.094 A 
ATOM      2  C   UNL d   1      60.623  -9.435  34.135  0.00  0.00     0.143 A 
ATOM      3  S   UNL d   1      61.068  -9.552  33.451  0.00  0.00    -0.055 SA
ATOM      4  C   UNL d   1      59.419  -9.568  33.377  0.00  0.00     0.013 A 
ATOM      5  C   UNL d   1      60.687  -9.678  32.728  0.00  0.00     0.086 A 
ATOM      6  C   UNL d   1      59.863  -9.685  32.692  0.00  0.00     0.017 A 
ATOM      7  C   UNL d   1      59.354  -9.325  34.784  0.00  0.00     0.103 C 
ATOM      8  N   UNL d   1      58.912  -9.208  35.464  0.00  0.00    -0.191 NA
ATOM      9  S   UNL d   1      61.133  -9.796  32.038  0.00  0.00    -0.071 SA
ATOM     10  N   UNL d   1      61.003  -9.311  34.851  0.00  0.00    -0.140 N 
ATOM     11  C   UNL d   1      58.596  -9.575  33.341  0.00  0.00     0.001 A 
ATOM     12  C   UNL d   1      59.484  -9.810  31.970  0.00  0.00     0.001 A 
ATOM     13  C   UNL d   1      58.216  -9.700  32.618  0.00  0.00     0.000 A 
ATOM     14  C   UNL d   1      58.661  -9.818  31.933  0.00  0.00     0.000 A 
ENDROOT
TORSDOF 0
ENDMDL
MODEL 3
REMARK VINA RESULT:      -2.5      2.243      2.850
REMARK  0 active torsions:
REMARK  status: ('A' for Active; 'I' for Inactive)
ROOT
ATOM      1  C   UNL d   1      55.606   0.627  33.959  0.00  0.00     0.094 A 
ATOM      2  C   UNL d   1      55.930   0.661  34.717  0.00  0.00     0.143 A 
ATOM      3  S   UNL d   1      56.749   0.679  34.816  0.00  0.00    -0.055 SA
ATOM      4  C   UNL d   1      56.102   0.611  33.300  0.00  0.00     0.013 A 
ATOM      5  C   UNL d   1      57.244   0.663  34.156  0.00  0.00     0.086 A 
ATOM      6  C   UNL d   1      56.921   0.629  33.398  0.00  0.00     0.017 A 
ATOM      7  C   UNL d   1      54.787   0.609  33.861  0.00  0.00     0.103 C 
ATOM      8  N   UNL d   1      53.974   0.591  33.762  0.00  0.00    -0.191 NA
ATOM      9  S   UNL d   1      58.069   0.681  34.253  0.00  0.00    -0.071 SA
ATOM     10  N   UNL d   1      55.440   0.678  35.375  0.00  0.00    -0.140 N 
ATOM     11  C   UNL d   1      55.778   0.576  32.543  0.00  0.00     0.001 A 
ATOM     12  C   UNL d   1      57.417   0.612  32.739  0.00  0.00     0.001 A 
ATOM     13  C   UNL d   1      56.274   0.560  31.883  0.00  0.00     0.000 A 
ATOM     14  C   UNL d   1      57.093   0.578  31.981  0.00  0.00     0.000 A 
ENDROOT
TORSDOF 0
ENDMDL
MODEL 4
REMARK VINA RESULT:      -2.5      3.383      4.213
REMARK  0 active torsions:
REMARK  status: ('A' for Active; 'I' for Inactive)
ROOT
ATOM      1  C   UNL d   1      59.243  -1.543  29.206  0.00  0.00     0.094 A 
ATOM      2  C   UNL d   1      59.970  -1.443  28.829  0.00  0.00     0.143 A 
ATOM      3  S   UNL d   1      60.336  -0.703  28.827  0.00  0.00    -0.055 SA
ATOM      4  C   UNL d   1      58.882  -0.904  29.581  0.00  0.00     0.013 A 
ATOM      5  C   UNL d   1      59.974  -0.064  29.203  0.00  0.00     0.086 A 
ATOM      6  C   UNL d   1      59.247  -0.164  29.580  0.00  0.00     0.017 A 
ATOM      7  C   UNL d   1      58.878  -2.283  29.207  0.00  0.00     0.103 C 
ATOM      8  N   UNL d   1      58.514  -3.017  29.209  0.00  0.00    -0.191 NA
ATOM      9  S   UNL d   1      60.340   0.682  29.203  0.00  0.00    -0.071 SA
ATOM     10  N   UNL d   1      60.332  -2.077  28.455  0.00  0.00    -0.140 N 
ATOM     11  C   UNL d   1      58.156  -1.004  29.957  0.00  0.00     0.001 A 
ATOM     12  C   UNL d   1      58.885   0.476  29.955  0.00  0.00     0.001 A 
ATOM     13  C   UNL d   1      57.793  -0.364  30.333  0.00  0.00     0.000 A 
ATOM     14  C   UNL d   1      58.159   0.376  30.332  0.00  0.00     0.000 A 
ENDROOT
TORSDOF 0
ENDMDL
MODEL 5
REMARK VINA RESULT:      -2.2      3.786      5.190
REMARK  0 active torsions:
REMARK  status: ('A' for Active; 'I' for Inactive)
ROOT
ATOM      1  C   UNL d   1      59.108  -1.026  29.440  0.00  0.00     0.094 A 
ATOM      2  C   UNL d   1      59.104  -1.831  29.259  0.00  0.00     0.143 A 
ATOM      3  S   UNL d   1      59.774  -2.185  28.932  0.00  0.00    -0.055 SA
ATOM      4  C   UNL d   1      59.782  -0.575  29.295  0.00  0.00     0.013 A 
ATOM      5  C   UNL d   1      60.449  -1.732  28.787  0.00  0.00     0.086 A 
ATOM      6  C   UNL d   1      60.453  -0.927  28.968  0.00  0.00     0.017 A 
ATOM      7  C   UNL d   1      58.437  -0.674  29.767  0.00  0.00     0.103 C 
ATOM      8  N   UNL d   1      57.772  -0.322  30.092  0.00  0.00    -0.191 NA
ATOM      9  S   UNL d   1      61.124  -2.085  28.458  0.00  0.00    -0.071 SA
ATOM     10  N   UNL d   1      58.434  -2.283  29.403  0.00  0.00    -0.140 N 
ATOM     11  C   UNL d   1      59.787   0.229  29.476  0.00  0.00     0.001 A 
ATOM     12  C   UNL d   1      61.128  -0.476  28.822  0.00  0.00     0.001 A 
ATOM     13  C   UNL d   1      60.462   0.681  29.330  0.00  0.00     0.000 A 
ATOM     14  C   UNL d   1      61.133   0.328  29.003  0.00  0.00     0.000 A 
ENDROOT
TORSDOF 0
ENDMDL
MODEL 6
REMARK VINA RESULT:      -2.0      3.965      5.085
REMARK  0 active torsions:
REMARK  status: ('A' for Active; 'I' for Inactive)
ROOT
ATOM      1  C   UNL d   1      59.847  -1.892  28.941  0.00  0.00     0.094 A 
ATOM      2  C   UNL d   1      59.084  -2.070  29.199  0.00  0.00     0.143 A 
ATOM      3  S   UNL d   1      58.579  -1.465  29.443  0.00  0.00    -0.055 SA
ATOM      4  C   UNL d   1      60.106  -1.109  28.927  0.00  0.00     0.013 A 
ATOM      5  C   UNL d   1      58.838  -0.681  29.429  0.00  0.00     0.086 A 
ATOM      6  C   UNL d   1      59.601  -0.503  29.171  0.00  0.00     0.017 A 
ATOM      7  C   UNL d   1      60.352  -2.498  28.697  0.00  0.00     0.103 C 
ATOM      8  N   UNL d   1      60.854  -3.098  28.455  0.00  0.00    -0.191 NA
ATOM      9  S   UNL d   1      58.332  -0.070  29.674  0.00  0.00    -0.071 SA
ATOM     10  N   UNL d   1      58.824  -2.848  29.214  0.00  0.00    -0.140 N 
ATOM     11  C   UNL d   1      60.868  -0.931  28.670  0.00  0.00     0.001 A 
ATOM     12  C   UNL d   1      59.860   0.281  29.157  0.00  0.00     0.001 A 
ATOM     13  C   UNL d   1      61.127  -0.148  28.656  0.00  0.00     0.000 A 
ATOM     14  C   UNL d   1      60.622   0.458  28.900  0.00  0.00     0.000 A 
ENDROOT
TORSDOF 0
ENDMDL
MODEL 7
REMARK VINA RESULT:      -1.9      1.880      2.714
REMARK  0 active torsions:
REMARK  status: ('A' for Active; 'I' for Inactive)
ROOT
ATOM      1  C   UNL d   1      57.143   0.676  34.290  0.00  0.00     0.094 A 
ATOM      2  C   UNL d   1      57.709   0.677  33.689  0.00  0.00     0.143 A 
ATOM      3  S   UNL d   1      57.471   0.677  32.899  0.00  0.00    -0.055 SA
ATOM      4  C   UNL d   1      56.341   0.674  34.101  0.00  0.00     0.013 A 
ATOM      5  C   UNL d   1      56.668   0.675  32.710  0.00  0.00     0.086 A 
ATOM      6  C   UNL d   1      56.102   0.673  33.311  0.00  0.00     0.017 A 
ATOM      7  C   UNL d   1      57.382   0.677  35.080  0.00  0.00     0.103 C 
ATOM      8  N   UNL d   1      57.617   0.677  35.865  0.00  0.00    -0.191 NA
ATOM      9  S   UNL d   1      56.426   0.674  31.916  0.00  0.00    -0.071 SA
ATOM     10  N   UNL d   1      58.508   0.679  33.874  0.00  0.00    -0.140 N 
ATOM     11  C   UNL d   1      55.777   0.672  34.701  0.00  0.00     0.001 A 
ATOM     12  C   UNL d   1      55.299   0.671  33.121  0.00  0.00     0.001 A 
ATOM     13  C   UNL d   1      54.973   0.670  34.512  0.00  0.00     0.000 A 
ATOM     14  C   UNL d   1      54.735   0.669  33.721  0.00  0.00     0.000 A 
ENDROOT
TORSDOF 0
ENDMDL
MODEL 8
REMARK VINA RESULT:      -1.9      9.585      9.865
REMARK  0 active torsions:
REMARK  status: ('A' for Active; 'I' for Inactive)
ROOT
ATOM      1  C   UNL d   1      58.664  -9.691  32.201  0.00  0.00     0.094 A 
ATOM      2  C   UNL d   1      59.129  -9.772  31.524  0.00  0.00     0.143 A 
ATOM      3  S   UNL d   1      59.950  -9.813  31.588  0.00  0.00    -0.055 SA
ATOM      4  C   UNL d   1      59.021  -9.650  32.943  0.00  0.00     0.013 A 
ATOM      5  C   UNL d   1      60.307  -9.772  32.332  0.00  0.00     0.086 A 
ATOM      6  C   UNL d   1      59.843  -9.691  33.009  0.00  0.00     0.017 A 
ATOM      7  C   UNL d   1      57.843  -9.650  32.135  0.00  0.00     0.103 C 
ATOM      8  N   UNL d   1      57.027  -9.610  32.071  0.00  0.00    -0.191 NA
ATOM      9  S   UNL d   1      61.133  -9.813  32.400  0.00  0.00    -0.071 SA
ATOM     10  N   UNL d   1      58.776  -9.813  30.784  0.00  0.00    -0.140 N 
ATOM     11  C   UNL d   1      58.558  -9.569  33.619  0.00  0.00     0.001 A 
ATOM     12  C   UNL d   1      60.201  -9.650  33.751  0.00  0.00     0.001 A 
ATOM     13  C   UNL d   1      58.915  -9.528  34.362  0.00  0.00     0.000 A 
ATOM     14  C   UNL d   1      59.737  -9.569  34.427  0.00  0.00     0.000 A 
ENDROOT
TORSDOF 0
ENDMDL
MODEL 9
REMARK VINA RESULT:      -1.7      9.733     10.195
REMARK  0 active torsions:
REMARK  status: ('A' for Active; 'I' for Inactive)
ROOT
ATOM      1  C   UNL d   1      58.697  -9.812  31.954  0.00  0.00     0.094 A 
ATOM      2  C   UNL d   1      57.928  -9.811  31.655  0.00  0.00     0.143 A 
ATOM      3  S   UNL d   1      57.801  -9.810  30.840  0.00  0.00    -0.055 SA
ATOM      4  C   UNL d   1      59.339  -9.812  31.437  0.00  0.00     0.013 A 
ATOM      5  C   UNL d   1      58.445  -9.809  30.323  0.00  0.00     0.086 A 
ATOM      6  C   UNL d   1      59.214  -9.810  30.621  0.00  0.00     0.017 A 
ATOM      7  C   UNL d   1      58.822  -9.814  32.769  0.00  0.00     0.103 C 
ATOM      8  N   UNL d   1      58.948  -9.816  33.579  0.00  0.00    -0.191 NA
ATOM      9  S   UNL d   1      58.321  -9.808  29.502  0.00  0.00    -0.071 SA
ATOM     10  N   UNL d   1      57.286  -9.812  32.166  0.00  0.00    -0.140 N 
ATOM     11  C   UNL d   1      60.107  -9.813  31.735  0.00  0.00     0.001 A 
ATOM     12  C   UNL d   1      59.857  -9.810  30.104  0.00  0.00     0.001 A 
ATOM     13  C   UNL d   1      60.751  -9.812  31.218  0.00  0.00     0.000 A 
ATOM     14  C   UNL d   1      60.625  -9.811  30.402  0.00  0.00     0.000 A 
ENDROOT
TORSDOF 0
ENDMDL
