MODEL 1
REMARK VINA RESULT:      72.0      0.000      0.000
REMARK  6 active torsions:
REMARK  status: ('A' for Active; 'I' for Inactive)
REMARK    1  A    between atoms: C_7  and  C_1 
REMARK    2  A    between atoms: C_10  and  C_2 
REMARK    3  A    between atoms: C_8  and  C_7 
REMARK    4  A    between atoms: C_9  and  C_8 
REMARK    5  A    between atoms: C_13  and  C_9 
REMARK    6  A    between atoms: O_20  and  C_16 
ROOT
ATOM      1  C   UNL d   1     -56.617 -98.939 -44.307  0.00  0.00     0.097 A 
ATOM      2  C   UNL d   1     -57.441 -98.905 -44.312  0.00  0.00     0.009 A 
ATOM      3  C   UNL d   1     -56.209 -98.931 -43.586  0.00  0.00     0.282 A 
ATOM      4  C   UNL d   1     -57.864 -98.864 -43.604  0.00  0.00     0.018 A 
ATOM      5  N   UNL d   1     -56.637 -98.891 -42.889  0.00  0.00    -0.208 NA
ATOM      6  C   UNL d   1     -57.457 -98.857 -42.882  0.00  0.00     0.085 A 
ATOM      7  C   UNL d   1     -58.675 -98.831 -43.616  0.00  0.00     0.008 A 
ATOM      8  O   UNL d   1     -55.387 -98.965 -43.573  0.00  0.00    -0.265 OA
ATOM      9  C   UNL d   1     -57.871 -98.817 -42.192  0.00  0.00     0.020 A 
ATOM     10  C   UNL d   1     -59.102 -98.790 -42.905  0.00  0.00     0.035 A 
ATOM     11  C   UNL d   1     -58.694 -98.783 -42.183  0.00  0.00     0.008 A 
ATOM     12 BR   UNL d   1     -59.941 -98.756 -42.901  0.00  0.00    -0.049 Br
ENDROOT
BRANCH   1  13
ATOM     13  C   UNL d   1     -56.175 -98.981 -45.027  0.00  0.00     0.200 C 
ATOM     14  O   UNL d   1     -56.540 -98.768 -45.730  0.00  0.00    -0.286 OA
BRANCH  13  15
ATOM     15  C   UNL d   1     -55.401 -99.227 -45.025  0.00  0.00     0.042 C 
BRANCH  15  16
ATOM     16  C   UNL d   1     -55.153 -99.820 -44.502  0.00  0.00     0.005 C 
BRANCH  16  17
ATOM     17  C   UNL d   1     -55.014-100.577 -44.768  0.00  0.00     0.022 A 
ATOM     18  C   UNL d   1     -54.960-101.183 -44.223  0.00  0.00     0.094 A 
ATOM     19  C   UNL d   1     -54.818-101.961 -44.485  0.00  0.00     0.024 A 
ATOM     20  C   UNL d   1     -54.735-102.094 -45.295  0.00  0.00     0.002 A 
ATOM     21  C   UNL d   1     -54.791-101.484 -45.828  0.00  0.00     0.000 A 
ATOM     22  C   UNL d   1     -54.929-100.730 -45.574  0.00  0.00     0.002 A 
BRANCH  18  23
ATOM     23  O   UNL d   1     -55.042-101.051 -43.408  0.00  0.00    -0.328 OA
ATOM     24  C   UNL d   1     -54.745-101.593 -42.869  0.00  0.00     0.181 C 
ENDBRANCH  18  23
ENDBRANCH  16  17
ENDBRANCH  15  16
ENDBRANCH  13  15
ENDBRANCH   1  13
BRANCH   2  25
ATOM     25  C   UNL d   1     -57.856 -98.913 -45.046  0.00  0.00     0.000 A 
ATOM     26  C   UNL d   1     -57.439 -98.820 -45.755  0.00  0.00     0.000 A 
ATOM     27  C   UNL d   1     -57.848 -98.827 -46.480  0.00  0.00     0.000 A 
ATOM     28  C   UNL d   1     -58.663 -98.927 -46.476  0.00  0.00     0.000 A 
ATOM     29  C   UNL d   1     -59.076 -99.019 -45.764  0.00  0.00     0.000 A 
ATOM     30  C   UNL d   1     -58.676 -99.012 -45.055  0.00  0.00     0.000 A 
ENDBRANCH   2  25
TORSDOF 6
ENDMDL
