MODEL 1
REMARK VINA RESULT:      -6.1      0.000      0.000
REMARK  9 active torsions:
REMARK  status: ('A' for Active; 'I' for Inactive)
REMARK    1  A    between atoms: C_19  and  N_1 
REMARK    2  A    between atoms: S_10  and  C_2 
REMARK    3  A    between atoms: N_8  and  C_9 
REMARK    4  A    between atoms: C_20  and  S_10 
REMARK    5  A    between atoms: C_11  and  C_20 
REMARK       I    between atoms: N_13  and  C_11 
REMARK    6  A    between atoms: C_15  and  N_13 
REMARK    7  A    between atoms: C_32  and  C_19 
REMARK    8  A    between atoms: O_25  and  C_22 
REMARK    9  A    between atoms: C_33  and  C_32 
ROOT
ATOM      1  N   UNL d   1      52.297  33.899  53.298  0.00  0.00    -0.253 N 
ATOM      2  C   UNL d   1      51.499  33.779  53.116  0.00  0.00     0.182 A 
ATOM      3  C   UNL d   1      52.791  33.264  53.432  0.00  0.00     0.268 A 
ATOM      4  C   UNL d   1      52.484  32.496  53.382  0.00  0.00     0.076 A 
ATOM      5  N   UNL d   1      51.194  33.025  53.066  0.00  0.00    -0.222 NA
ATOM      6  C   UNL d   1      51.690  32.377  53.200  0.00  0.00     0.088 A 
ATOM      7  C   UNL d   1      52.977  31.866  53.515  0.00  0.00     0.024 A 
ATOM      8  C   UNL d   1      52.679  31.088  53.468  0.00  0.00     0.065 A 
ATOM      9  O   UNL d   1      53.589  33.384  53.615  0.00  0.00    -0.267 OA
ATOM     10  C   UNL d   1      51.386  31.619  53.151  0.00  0.00     0.021 A 
ATOM     11  C   UNL d   1      51.880  30.980  53.284  0.00  0.00     0.019 A 
ENDROOT
BRANCH   2  12
ATOM     12  S   UNL d   1      50.997  34.438  52.980  0.00  0.00    -0.044 SA
BRANCH  12  13
ATOM     13  C   UNL d   1      50.244  34.324  52.668  0.00  0.00     0.101 C 
BRANCH  13  14
ATOM     14  C   UNL d   1      49.664  34.893  52.777  0.00  0.00     0.286 C 
ATOM     15  N   UNL d   1      48.939  34.811  52.414  0.00  0.00    -0.207 NA
ATOM     16  O   UNL d   1      49.812  35.549  53.254  0.00  0.00    -0.265 OA
BRANCH  15  17
ATOM     17  C   UNL d   1      48.347  35.384  52.520  0.00  0.00     0.087 A 
ATOM     18  C   UNL d   1      47.822  35.526  51.902  0.00  0.00     0.043 A 
ATOM     19  C   UNL d   1      47.230  36.098  52.008  0.00  0.00     0.096 A 
ATOM     20  C   UNL d   1      47.171  36.512  52.713  0.00  0.00     0.024 A 
ATOM     21  C   UNL d   1      47.704  36.362  53.326  0.00  0.00     0.004 A 
ATOM     22  C   UNL d   1      48.289  35.798  53.225  0.00  0.00     0.019 A 
BRANCH  19  23
ATOM     23  O   UNL d   1      46.691  36.249  51.384  0.00  0.00    -0.328 OA
ATOM     24  C   UNL d   1      45.961  35.887  51.376  0.00  0.00     0.181 C 
ENDBRANCH  19  23
ENDBRANCH  15  17
ENDBRANCH  13  14
ENDBRANCH  12  13
ENDBRANCH   2  12
BRANCH   1  25
ATOM     25  C   UNL d   1      52.594  34.678  53.346  0.00  0.00     0.085 C 
BRANCH  25  26
ATOM     26  C   UNL d   1      52.883  34.955  54.060  0.00  0.00     0.019 C 
BRANCH  26  27
ATOM     27  C   UNL d   1      53.207  35.714  54.109  0.00  0.00     0.002 C 
ATOM     28  C   UNL d   1      53.200  36.117  54.832  0.00  0.00     0.000 C 
ENDBRANCH  26  27
ENDBRANCH  25  26
ENDBRANCH   1  25
BRANCH   8  29
ATOM     29  N   UNL d   1      53.171  30.440  53.601  0.00  0.00    -0.300 N 
ATOM     30  C   UNL d   1      53.840  30.327  53.122  0.00  0.00     0.107 A 
ATOM     31  C   UNL d   1      54.326  29.673  53.265  0.00  0.00     0.142 A 
ATOM     32  O   UNL d   1      54.149  29.138  53.877  0.00  0.00    -0.300 OA
ATOM     33  C   UNL d   1      53.476  29.263  54.349  0.00  0.00     0.142 A 
ATOM     34  C   UNL d   1      52.985  29.913  54.213  0.00  0.00     0.107 A 
ENDBRANCH   8  29
TORSDOF 9
ENDMDL
MODEL 2
REMARK VINA RESULT:      -6.1      0.862      6.271
REMARK  9 active torsions:
REMARK  status: ('A' for Active; 'I' for Inactive)
REMARK    1  A    between atoms: C_19  and  N_1 
REMARK    2  A    between atoms: S_10  and  C_2 
REMARK    3  A    between atoms: N_8  and  C_9 
REMARK    4  A    between atoms: C_20  and  S_10 
REMARK    5  A    between atoms: C_11  and  C_20 
REMARK       I    between atoms: N_13  and  C_11 
REMARK    6  A    between atoms: C_15  and  N_13 
REMARK    7  A    between atoms: C_32  and  C_19 
REMARK    8  A    between atoms: O_25  and  C_22 
REMARK    9  A    between atoms: C_33  and  C_32 
ROOT
ATOM      1  N   UNL d   1      51.409  34.370  53.456  0.00  0.00    -0.253 N 
ATOM      2  C   UNL d   1      51.490  33.752  52.913  0.00  0.00     0.182 A 
ATOM      3  C   UNL d   1      50.750  34.850  53.441  0.00  0.00     0.268 A 
ATOM      4  C   UNL d   1      50.162  34.710  52.876  0.00  0.00     0.076 A 
ATOM      5  N   UNL d   1      50.913  33.612  52.355  0.00  0.00    -0.222 NA
ATOM      6  C   UNL d   1      50.243  34.095  52.335  0.00  0.00     0.088 A 
ATOM      7  C   UNL d   1      49.506  35.189  52.863  0.00  0.00     0.024 A 
ATOM      8  C   UNL d   1      48.906  35.058  52.297  0.00  0.00     0.065 A 
ATOM      9  O   UNL d   1      50.669  35.469  53.985  0.00  0.00    -0.267 OA
ATOM     10  C   UNL d   1      49.662  33.956  51.776  0.00  0.00     0.021 A 
ATOM     11  C   UNL d   1      48.998  34.436  51.760  0.00  0.00     0.019 A 
ENDROOT
BRANCH   2  12
ATOM     12  S   UNL d   1      52.173  33.262  52.935  0.00  0.00    -0.044 SA
BRANCH  12  13
ATOM     13  C   UNL d   1      52.140  32.500  52.627  0.00  0.00     0.101 C 
BRANCH  13  14
ATOM     14  C   UNL d   1      52.658  31.925  52.901  0.00  0.00     0.286 C 
ATOM     15  N   UNL d   1      52.427  31.144  52.917  0.00  0.00    -0.207 NA
ATOM     16  O   UNL d   1      53.411  32.136  53.160  0.00  0.00    -0.265 OA
BRANCH  15  17
ATOM     17  C   UNL d   1      52.945  30.556  53.192  0.00  0.00     0.087 A 
ATOM     18  C   UNL d   1      52.668  30.013  53.745  0.00  0.00     0.043 A 
ATOM     19  C   UNL d   1      53.186  29.426  54.020  0.00  0.00     0.096 A 
ATOM     20  C   UNL d   1      53.958  29.389  53.747  0.00  0.00     0.024 A 
ATOM     21  C   UNL d   1      54.226  29.940  53.192  0.00  0.00     0.004 A 
ATOM     22  C   UNL d   1      53.718  30.520  52.919  0.00  0.00     0.019 A 
BRANCH  19  23
ATOM     23  O   UNL d   1      52.911  28.870  54.582  0.00  0.00    -0.328 OA
ATOM     24  C   UNL d   1      53.319  28.752  55.278  0.00  0.00     0.181 C 
ENDBRANCH  19  23
ENDBRANCH  15  17
ENDBRANCH  13  14
ENDBRANCH  12  13
ENDBRANCH   2  12
BRANCH   1  25
ATOM     25  C   UNL d   1      52.010  34.501  54.022  0.00  0.00     0.085 C 
BRANCH  25  26
ATOM     26  C   UNL d   1      52.460  35.184  53.980  0.00  0.00     0.019 C 
BRANCH  26  27
ATOM     27  C   UNL d   1      53.049  35.327  54.541  0.00  0.00     0.002 C 
ATOM     28  C   UNL d   1      53.540  35.988  54.461  0.00  0.00     0.000 C 
ENDBRANCH  26  27
ENDBRANCH  25  26
ENDBRANCH   1  25
BRANCH   8  29
ATOM     29  N   UNL d   1      48.237  35.538  52.275  0.00  0.00    -0.300 N 
ATOM     30  C   UNL d   1      48.009  35.956  52.955  0.00  0.00     0.107 A 
ATOM     31  C   UNL d   1      47.335  36.434  52.921  0.00  0.00     0.142 A 
ATOM     32  O   UNL d   1      46.893  36.495  52.219  0.00  0.00    -0.300 OA
ATOM     33  C   UNL d   1      47.132  36.071  51.545  0.00  0.00     0.142 A 
ATOM     34  C   UNL d   1      47.804  35.591  51.571  0.00  0.00     0.107 A 
ENDBRANCH   8  29
TORSDOF 9
ENDMDL
MODEL 3
REMARK VINA RESULT:      -4.7     10.318     11.145
REMARK  9 active torsions:
REMARK  status: ('A' for Active; 'I' for Inactive)
REMARK    1  A    between atoms: C_19  and  N_1 
REMARK    2  A    between atoms: S_10  and  C_2 
REMARK    3  A    between atoms: N_8  and  C_9 
REMARK    4  A    between atoms: C_20  and  S_10 
REMARK    5  A    between atoms: C_11  and  C_20 
REMARK       I    between atoms: N_13  and  C_11 
REMARK    6  A    between atoms: C_15  and  N_13 
REMARK    7  A    between atoms: C_32  and  C_19 
REMARK    8  A    between atoms: O_25  and  C_22 
REMARK    9  A    between atoms: C_33  and  C_32 
ROOT
ATOM      1  N   UNL d   1      44.882  27.729  57.628  0.00  0.00    -0.253 N 
ATOM      2  C   UNL d   1      44.694  27.562  58.416  0.00  0.00     0.182 A 
ATOM      3  C   UNL d   1      44.882  27.137  57.068  0.00  0.00     0.268 A 
ATOM      4  C   UNL d   1      44.691  26.364  57.298  0.00  0.00     0.076 A 
ATOM      5  N   UNL d   1      44.506  26.803  58.645  0.00  0.00    -0.222 NA
ATOM      6  C   UNL d   1      44.504  26.198  58.082  0.00  0.00     0.088 A 
ATOM      7  C   UNL d   1      44.691  25.776  56.739  0.00  0.00     0.024 A 
ATOM      8  C   UNL d   1      44.500  24.994  56.958  0.00  0.00     0.065 A 
ATOM      9  O   UNL d   1      45.070  27.304  56.279  0.00  0.00    -0.267 OA
ATOM     10  C   UNL d   1      44.315  25.435  58.310  0.00  0.00     0.021 A 
ATOM     11  C   UNL d   1      44.314  24.838  57.749  0.00  0.00     0.019 A 
ENDROOT
BRANCH   2  12
ATOM     12  S   UNL d   1      44.696  28.179  58.987  0.00  0.00    -0.044 SA
BRANCH  12  13
ATOM     13  C   UNL d   1      44.543  28.007  59.777  0.00  0.00     0.101 C 
BRANCH  13  14
ATOM     14  C   UNL d   1      44.593  28.599  60.342  0.00  0.00     0.286 C 
ATOM     15  N   UNL d   1      44.428  28.432  61.123  0.00  0.00    -0.207 NA
ATOM     16  O   UNL d   1      44.811  29.363  60.124  0.00  0.00    -0.265 OA
BRANCH  15  17
ATOM     17  C   UNL d   1      44.477  29.026  61.701  0.00  0.00     0.087 A 
ATOM     18  C   UNL d   1      44.430  29.812  61.463  0.00  0.00     0.043 A 
ATOM     19  C   UNL d   1      44.478  30.406  62.041  0.00  0.00     0.096 A 
ATOM     20  C   UNL d   1      44.571  30.212  62.832  0.00  0.00     0.024 A 
ATOM     21  C   UNL d   1      44.617  29.419  63.059  0.00  0.00     0.004 A 
ATOM     22  C   UNL d   1      44.570  28.831  62.492  0.00  0.00     0.019 A 
BRANCH  19  23
ATOM     23  O   UNL d   1      44.432  31.209  61.806  0.00  0.00    -0.328 OA
ATOM     24  C   UNL d   1      44.315  31.793  62.363  0.00  0.00     0.181 C 
ENDBRANCH  19  23
ENDBRANCH  15  17
ENDBRANCH  13  14
ENDBRANCH  12  13
ENDBRANCH   2  12
BRANCH   1  25
ATOM     25  C   UNL d   1      45.073  28.512  57.409  0.00  0.00     0.085 C 
BRANCH  25  26
ATOM     26  C   UNL d   1      44.528  28.956  56.988  0.00  0.00     0.019 C 
BRANCH  26  27
ATOM     27  C   UNL d   1      44.758  29.665  56.632  0.00  0.00     0.002 C 
ATOM     28  C   UNL d   1      44.314  30.352  56.760  0.00  0.00     0.000 C 
ENDBRANCH  26  27
ENDBRANCH  25  26
ENDBRANCH   1  25
BRANCH   8  29
ATOM     29  N   UNL d   1      44.498  24.388  56.399  0.00  0.00    -0.300 N 
ATOM     30  C   UNL d   1      44.496  23.597  56.651  0.00  0.00     0.107 A 
ATOM     31  C   UNL d   1      44.494  22.998  56.081  0.00  0.00     0.142 A 
ATOM     32  O   UNL d   1      44.492  23.184  55.270  0.00  0.00    -0.300 OA
ATOM     33  C   UNL d   1      44.494  23.980  55.032  0.00  0.00     0.142 A 
ATOM     34  C   UNL d   1      44.496  24.584  55.595  0.00  0.00     0.107 A 
ENDBRANCH   8  29
TORSDOF 9
ENDMDL
MODEL 4
REMARK VINA RESULT:      -3.8     12.436     13.675
REMARK  9 active torsions:
REMARK  status: ('A' for Active; 'I' for Inactive)
REMARK    1  A    between atoms: C_19  and  N_1 
REMARK    2  A    between atoms: S_10  and  C_2 
REMARK    3  A    between atoms: N_8  and  C_9 
REMARK    4  A    between atoms: C_20  and  S_10 
REMARK    5  A    between atoms: C_11  and  C_20 
REMARK       I    between atoms: N_13  and  C_11 
REMARK    6  A    between atoms: C_15  and  N_13 
REMARK    7  A    between atoms: C_32  and  C_19 
REMARK    8  A    between atoms: O_25  and  C_22 
REMARK    9  A    between atoms: C_33  and  C_32 
ROOT
ATOM      1  N   UNL d   1      44.415  29.880  62.752  0.00  0.00    -0.253 N 
ATOM      2  C   UNL d   1      44.411  29.091  63.000  0.00  0.00     0.182 A 
ATOM      3  C   UNL d   1      44.485  30.064  61.961  0.00  0.00     0.268 A 
ATOM      4  C   UNL d   1      44.553  29.452  61.408  0.00  0.00     0.076 A 
ATOM      5  N   UNL d   1      44.477  28.486  62.459  0.00  0.00    -0.222 NA
ATOM      6  C   UNL d   1      44.548  28.667  61.656  0.00  0.00     0.088 A 
ATOM      7  C   UNL d   1      44.622  29.638  60.622  0.00  0.00     0.024 A 
ATOM      8  C   UNL d   1      44.691  29.029  60.055  0.00  0.00     0.065 A 
ATOM      9  O   UNL d   1      44.489  30.854  61.713  0.00  0.00    -0.267 OA
ATOM     10  C   UNL d   1      44.615  28.060  61.110  0.00  0.00     0.021 A 
ATOM     11  C   UNL d   1      44.686  28.244  60.314  0.00  0.00     0.019 A 
ENDROOT
BRANCH   2  12
ATOM     12  S   UNL d   1      44.338  28.909  63.817  0.00  0.00    -0.044 SA
BRANCH  12  13
ATOM     13  C   UNL d   1      44.549  28.163  64.092  0.00  0.00     0.101 C 
BRANCH  13  14
ATOM     14  C   UNL d   1      44.705  28.048  64.889  0.00  0.00     0.286 C 
ATOM     15  N   UNL d   1      44.718  27.294  65.198  0.00  0.00    -0.207 NA
ATOM     16  O   UNL d   1      44.849  28.695  65.380  0.00  0.00    -0.265 OA
BRANCH  15  17
ATOM     17  C   UNL d   1      44.875  27.171  66.004  0.00  0.00     0.087 A 
ATOM     18  C   UNL d   1      45.584  26.810  66.216  0.00  0.00     0.043 A 
ATOM     19  C   UNL d   1      45.741  26.687  67.022  0.00  0.00     0.096 A 
ATOM     20  C   UNL d   1      45.200  26.919  67.593  0.00  0.00     0.024 A 
ATOM     21  C   UNL d   1      44.492  27.280  67.368  0.00  0.00     0.004 A 
ATOM     22  C   UNL d   1      44.334  27.403  66.574  0.00  0.00     0.019 A 
BRANCH  19  23
ATOM     23  O   UNL d   1      46.460  26.321  67.247  0.00  0.00    -0.328 OA
ATOM     24  C   UNL d   1      47.036  26.750  67.633  0.00  0.00     0.181 C 
ENDBRANCH  19  23
ENDBRANCH  15  17
ENDBRANCH  13  14
ENDBRANCH  12  13
ENDBRANCH   2  12
BRANCH   1  25
ATOM     25  C   UNL d   1      44.346  30.489  63.320  0.00  0.00     0.085 C 
BRANCH  25  26
ATOM     26  C   UNL d   1      44.764  31.185  63.215  0.00  0.00     0.019 C 
BRANCH  26  27
ATOM     27  C   UNL d   1      44.852  31.714  63.844  0.00  0.00     0.002 C 
ATOM     28  C   UNL d   1      44.315  32.338  63.934  0.00  0.00     0.000 C 
ENDBRANCH  26  27
ENDBRANCH  25  26
ENDBRANCH   1  25
BRANCH   8  29
ATOM     29  N   UNL d   1      44.763  29.206  59.253  0.00  0.00    -0.300 N 
ATOM     30  C   UNL d   1      44.315  28.781  58.697  0.00  0.00     0.107 A 
ATOM     31  C   UNL d   1      44.395  28.968  57.896  0.00  0.00     0.142 A 
ATOM     32  O   UNL d   1      44.914  29.569  57.649  0.00  0.00    -0.300 OA
ATOM     33  C   UNL d   1      45.357  29.986  58.216  0.00  0.00     0.142 A 
ATOM     34  C   UNL d   1      45.283  29.807  59.019  0.00  0.00     0.107 A 
ENDBRANCH   8  29
TORSDOF 9
ENDMDL
MODEL 5
REMARK VINA RESULT:      -3.6      1.134      6.358
REMARK  9 active torsions:
REMARK  status: ('A' for Active; 'I' for Inactive)
REMARK    1  A    between atoms: C_19  and  N_1 
REMARK    2  A    between atoms: S_10  and  C_2 
REMARK    3  A    between atoms: N_8  and  C_9 
REMARK    4  A    between atoms: C_20  and  S_10 
REMARK    5  A    between atoms: C_11  and  C_20 
REMARK       I    between atoms: N_13  and  C_11 
REMARK    6  A    between atoms: C_15  and  N_13 
REMARK    7  A    between atoms: C_32  and  C_19 
REMARK    8  A    between atoms: O_25  and  C_22 
REMARK    9  A    between atoms: C_33  and  C_32 
ROOT
ATOM      1  N   UNL d   1      50.396  34.672  53.087  0.00  0.00    -0.253 N 
ATOM      2  C   UNL d   1      50.582  34.192  52.440  0.00  0.00     0.182 A 
ATOM      3  C   UNL d   1      49.690  35.080  53.111  0.00  0.00     0.268 A 
ATOM      4  C   UNL d   1      49.161  35.007  52.478  0.00  0.00     0.076 A 
ATOM      5  N   UNL d   1      50.062  34.118  51.816  0.00  0.00    -0.222 NA
ATOM      6  C   UNL d   1      49.346  34.529  51.835  0.00  0.00     0.088 A 
ATOM      7  C   UNL d   1      48.459  35.414  52.504  0.00  0.00     0.024 A 
ATOM      8  C   UNL d   1      47.917  35.349  51.872  0.00  0.00     0.065 A 
ATOM      9  O   UNL d   1      49.504  35.561  53.758  0.00  0.00    -0.267 OA
ATOM     10  C   UNL d   1      48.823  34.456  51.209  0.00  0.00     0.021 A 
ATOM     11  C   UNL d   1      48.113  34.865  51.231  0.00  0.00     0.019 A 
ENDROOT
BRANCH   2  12
ATOM     12  S   UNL d   1      51.311  33.775  52.424  0.00  0.00    -0.044 SA
BRANCH  12  13
ATOM     13  C   UNL d   1      51.314  32.957  52.332  0.00  0.00     0.101 C 
BRANCH  13  14
ATOM     14  C   UNL d   1      51.986  32.526  52.519  0.00  0.00     0.286 C 
ATOM     15  N   UNL d   1      51.948  31.935  53.079  0.00  0.00    -0.207 NA
ATOM     16  O   UNL d   1      52.701  32.690  52.143  0.00  0.00    -0.265 OA
BRANCH  15  17
ATOM     17  C   UNL d   1      52.624  31.494  53.274  0.00  0.00     0.087 A 
ATOM     18  C   UNL d   1      53.175  31.825  53.789  0.00  0.00     0.043 A 
ATOM     19  C   UNL d   1      53.851  31.384  53.984  0.00  0.00     0.096 A 
ATOM     20  C   UNL d   1      53.966  30.636  53.669  0.00  0.00     0.024 A 
ATOM     21  C   UNL d   1      53.407  30.314  53.153  0.00  0.00     0.004 A 
ATOM     22  C   UNL d   1      52.739  30.746  52.958  0.00  0.00     0.019 A 
BRANCH  19  23
ATOM     23  O   UNL d   1      54.416  31.713  54.507  0.00  0.00    -0.328 OA
ATOM     24  C   UNL d   1      54.214  32.340  54.988  0.00  0.00     0.181 C 
ENDBRANCH  19  23
ENDBRANCH  15  17
ENDBRANCH  13  14
ENDBRANCH  12  13
ENDBRANCH   2  12
BRANCH   1  25
ATOM     25  C   UNL d   1      50.939  34.738  53.719  0.00  0.00     0.085 C 
BRANCH  25  26
ATOM     26  C   UNL d   1      51.511  35.323  53.698  0.00  0.00     0.019 C 
BRANCH  26  27
ATOM     27  C   UNL d   1      51.955  35.492  54.374  0.00  0.00     0.002 C 
ATOM     28  C   UNL d   1      52.775  35.592  54.313  0.00  0.00     0.000 C 
ENDBRANCH  26  27
ENDBRANCH  25  26
ENDBRANCH   1  25
BRANCH   8  29
ATOM     29  N   UNL d   1      47.201  35.757  51.887  0.00  0.00    -0.300 N 
ATOM     30  C   UNL d   1      46.640  35.623  51.290  0.00  0.00     0.107 A 
ATOM     31  C   UNL d   1      45.926  36.039  51.316  0.00  0.00     0.142 A 
ATOM     32  O   UNL d   1      45.771  36.581  51.928  0.00  0.00    -0.300 OA
ATOM     33  C   UNL d   1      46.342  36.706  52.519  0.00  0.00     0.142 A 
ATOM     34  C   UNL d   1      47.059  36.295  52.501  0.00  0.00     0.107 A 
ENDBRANCH   8  29
TORSDOF 9
ENDMDL
