MODEL 1
REMARK VINA RESULT:      53.6      0.000      0.000
REMARK  2 active torsions:
REMARK  status: ('A' for Active; 'I' for Inactive)
REMARK    1  A    between atoms: C_6  and  C_2 
REMARK    2  A    between atoms: C_7  and  C_3 
ROOT
ATOM      1  N   UNL d   1     -49.839  26.287  34.161  0.00  0.00    -0.238 NA
ATOM      2  C   UNL d   1     -49.690  27.078  34.054  0.00  0.00     0.112 A 
ATOM      3  C   UNL d   1     -50.508  26.092  33.716  0.00  0.00     0.088 A 
ATOM      4  S   UNL d   1     -50.257  27.390  33.544  0.00  0.00    -0.066 SA
ATOM      5  C   UNL d   1     -50.769  26.771  33.334  0.00  0.00     0.056 A 
ENDROOT
BRANCH   3   6
ATOM      6  C   UNL d   1     -50.905  25.384  33.615  0.00  0.00     0.020 A 
ATOM      7  C   UNL d   1     -51.740  25.358  33.632  0.00  0.00     0.028 A 
ATOM      8  C   UNL d   1     -52.141  24.618  33.527  0.00  0.00     0.123 A 
ATOM      9  O   UNL d   1     -52.958  24.594  33.544  0.00  0.00    -0.301 OA
ATOM     10  C   UNL d   1     -51.707  23.932  33.409  0.00  0.00     0.123 A 
ATOM     11  C   UNL d   1     -53.355  23.887  33.444  0.00  0.00     0.149 A 
ATOM     12  C   UNL d   1     -52.929  23.191  33.324  0.00  0.00     0.149 A 
ATOM     13  O   UNL d   1     -52.104  23.210  33.306  0.00  0.00    -0.301 OA
ATOM     14  C   UNL d   1     -50.876  23.976  33.395  0.00  0.00     0.027 A 
ATOM     15  C   UNL d   1     -50.474  24.689  33.496  0.00  0.00     0.004 A 
ENDBRANCH   3   6
BRANCH   2  16
ATOM     16  C   UNL d   1     -49.092  27.571  34.363  0.00  0.00     0.043 A 
ATOM     17  C   UNL d   1     -48.313  27.495  34.107  0.00  0.00     0.101 A 
ATOM     18  N   UNL d   1     -47.722  27.995  34.425  0.00  0.00    -0.242 NA
ATOM     19  C   UNL d   1     -47.922  28.570  35.000  0.00  0.00     0.099 A 
ATOM     20  C   UNL d   1     -48.704  28.637  35.248  0.00  0.00     0.021 A 
ATOM     21  C   UNL d   1     -49.288  28.146  34.937  0.00  0.00     0.005 A 
ENDBRANCH   2  16
TORSDOF 2
ENDMDL
