MODEL 1
REMARK VINA RESULT:      -8.2      0.000      0.000
REMARK  6 active torsions:
REMARK  status: ('A' for Active; 'I' for Inactive)
REMARK       I    between atoms: C_4  and  N_1 
REMARK    1  A    between atoms: C_8  and  C_3 
REMARK    2  A    between atoms: C_16  and  C_4 
REMARK    3  A    between atoms: C_13  and  C_5 
REMARK    4  A    between atoms: N_6  and  C_9 
REMARK    5  A    between atoms: O_24  and  C_11 
REMARK    6  A    between atoms: O_25  and  C_17 
ROOT
ATOM      1  N   UNL d   1     -47.451  14.422  22.602  0.00  0.00    -0.195 N 
ATOM      2  N   UNL d   1     -46.630  14.312  22.466  0.00  0.00    -0.163 NA
ATOM      3  C   UNL d   1     -47.762  13.675  22.794  0.00  0.00     0.088 A 
ATOM      4  C   UNL d   1     -47.885  15.161  22.553  0.00  0.00     0.280 C 
ATOM      5  C   UNL d   1     -46.463  13.503  22.578  0.00  0.00     0.103 A 
ATOM      6  C   UNL d   1     -47.149  13.124  22.776  0.00  0.00     0.040 A 
ATOM      7  O   UNL d   1     -47.503  15.854  22.358  0.00  0.00    -0.265 OA
ENDROOT
BRANCH   3   8
ATOM      8  C   UNL d   1     -48.568  13.570  22.965  0.00  0.00     0.020 A 
ATOM      9  C   UNL d   1     -48.766  12.848  22.640  0.00  0.00     0.028 A 
ATOM     10  C   UNL d   1     -49.531  12.562  22.704  0.00  0.00     0.116 A 
ATOM     11  C   UNL d   1     -50.107  13.002  23.099  0.00  0.00     0.116 A 
ATOM     12  C   UNL d   1     -49.879  13.747  23.429  0.00  0.00     0.026 A 
ATOM     13  C   UNL d   1     -49.116  14.032  23.365  0.00  0.00     0.004 A 
BRANCH  10  14
ATOM     14  O   UNL d   1     -49.730  11.819  22.367  0.00  0.00    -0.326 OA
ATOM     15  C   UNL d   1     -49.635  11.677  21.536  0.00  0.00     0.181 C 
ENDBRANCH  10  14
BRANCH  11  16
ATOM     16  O   UNL d   1     -50.894  12.714  23.169  0.00  0.00    -0.326 OA
ATOM     17  C   UNL d   1     -51.064  12.131  23.696  0.00  0.00     0.181 C 
ENDBRANCH  11  16
ENDBRANCH   3   8
BRANCH   4  18
ATOM     18  C   UNL d   1     -48.723  15.158  22.713  0.00  0.00     0.058 A 
ATOM     19  C   UNL d   1     -49.265  15.064  22.099  0.00  0.00     0.005 A 
ATOM     20  C   UNL d   1     -50.079  15.060  22.240  0.00  0.00     0.000 A 
ATOM     21  C   UNL d   1     -50.352  15.152  23.012  0.00  0.00     0.000 A 
ATOM     22  C   UNL d   1     -49.810  15.246  23.625  0.00  0.00     0.000 A 
ATOM     23  C   UNL d   1     -48.991  15.250  23.484  0.00  0.00     0.005 A 
ENDBRANCH   4  18
BRANCH   5  24
ATOM     24  C   UNL d   1     -45.748  13.105  22.513  0.00  0.00     0.019 A 
ATOM     25  C   UNL d   1     -45.222  13.363  21.920  0.00  0.00     0.003 A 
ATOM     26  C   UNL d   1     -44.504  12.994  21.824  0.00  0.00     0.024 A 
ATOM     27  C   UNL d   1     -44.292  12.356  22.321  0.00  0.00     0.127 A 
ATOM     28  C   UNL d   1     -44.818  12.098  22.914  0.00  0.00     0.024 A 
ATOM     29  C   UNL d   1     -45.553  12.490  22.999  0.00  0.00     0.003 A 
BRANCH  27  30
ATOM     30  N   UNL d   1     -43.543  11.975  22.217  0.00  0.00    -0.114 N 
ATOM     31  O   UNL d   1     -42.980  12.289  21.690  0.00  0.00    -0.532 OA
ATOM     32  O   UNL d   1     -43.370  11.280  22.647  0.00  0.00    -0.532 OA
ENDBRANCH  27  30
ENDBRANCH   5  24
TORSDOF 6
ENDMDL
MODEL 2
REMARK VINA RESULT:      -7.4      1.169      2.400
REMARK  6 active torsions:
REMARK  status: ('A' for Active; 'I' for Inactive)
REMARK       I    between atoms: C_4  and  N_1 
REMARK    1  A    between atoms: C_8  and  C_3 
REMARK    2  A    between atoms: C_16  and  C_4 
REMARK    3  A    between atoms: C_13  and  C_5 
REMARK    4  A    between atoms: N_6  and  C_9 
REMARK    5  A    between atoms: O_24  and  C_11 
REMARK    6  A    between atoms: O_25  and  C_17 
ROOT
ATOM      1  N   UNL d   1     -48.038  12.167  22.880  0.00  0.00    -0.195 N 
ATOM      2  N   UNL d   1     -47.226  11.959  22.921  0.00  0.00    -0.163 NA
ATOM      3  C   UNL d   1     -48.084  12.860  22.424  0.00  0.00     0.088 A 
ATOM      4  C   UNL d   1     -48.694  11.746  23.241  0.00  0.00     0.280 C 
ATOM      5  C   UNL d   1     -46.800  12.530  22.488  0.00  0.00     0.103 A 
ATOM      6  C   UNL d   1     -47.321  13.071  22.191  0.00  0.00     0.040 A 
ATOM      7  O   UNL d   1     -48.564  11.070  23.676  0.00  0.00    -0.265 OA
ENDROOT
BRANCH   3   8
ATOM      8  C   UNL d   1     -48.811  13.230  22.265  0.00  0.00     0.020 A 
ATOM      9  C   UNL d   1     -48.660  14.031  22.310  0.00  0.00     0.028 A 
ATOM     10  C   UNL d   1     -49.261  14.572  22.182  0.00  0.00     0.116 A 
ATOM     11  C   UNL d   1     -50.025  14.311  22.006  0.00  0.00     0.116 A 
ATOM     12  C   UNL d   1     -50.158  13.477  21.965  0.00  0.00     0.026 A 
ATOM     13  C   UNL d   1     -49.558  12.937  22.093  0.00  0.00     0.004 A 
BRANCH  10  14
ATOM     14  O   UNL d   1     -49.101  15.395  22.229  0.00  0.00    -0.326 OA
ATOM     15  C   UNL d   1     -48.647  15.716  22.869  0.00  0.00     0.181 C 
ENDBRANCH  10  14
BRANCH  11  16
ATOM     16  O   UNL d   1     -50.647  14.861  21.874  0.00  0.00    -0.326 OA
ATOM     17  C   UNL d   1     -51.063  14.839  21.186  0.00  0.00     0.181 C 
ENDBRANCH  11  16
ENDBRANCH   3   8
BRANCH   4  18
ATOM     18  C   UNL d   1     -49.485  12.048  23.136  0.00  0.00     0.058 A 
ATOM     19  C   UNL d   1     -49.814  12.561  23.690  0.00  0.00     0.005 A 
ATOM     20  C   UNL d   1     -50.578  12.860  23.600  0.00  0.00     0.000 A 
ATOM     21  C   UNL d   1     -51.020  12.638  22.940  0.00  0.00     0.000 A 
ATOM     22  C   UNL d   1     -50.691  12.125  22.387  0.00  0.00     0.000 A 
ATOM     23  C   UNL d   1     -49.921  11.824  22.477  0.00  0.00     0.005 A 
ENDBRANCH   4  18
BRANCH   5  24
ATOM     24  C   UNL d   1     -45.991  12.585  22.354  0.00  0.00     0.019 A 
ATOM     25  C   UNL d   1     -45.740  13.110  21.757  0.00  0.00     0.003 A 
ATOM     26  C   UNL d   1     -44.947  13.192  21.594  0.00  0.00     0.024 A 
ATOM     27  C   UNL d   1     -44.385  12.750  22.024  0.00  0.00     0.127 A 
ATOM     28  C   UNL d   1     -44.636  12.225  22.621  0.00  0.00     0.024 A 
ATOM     29  C   UNL d   1     -45.455  12.153  22.776  0.00  0.00     0.003 A 
BRANCH  27  30
ATOM     30  N   UNL d   1     -43.560  12.839  21.851  0.00  0.00    -0.114 N 
ATOM     31  O   UNL d   1     -43.218  13.597  21.808  0.00  0.00    -0.532 OA
ATOM     32  O   UNL d   1     -43.089  12.161  21.723  0.00  0.00    -0.532 OA
ENDBRANCH  27  30
ENDBRANCH   5  24
TORSDOF 6
ENDMDL
