MODEL 1
REMARK VINA RESULT:      -4.3      0.000      0.000
REMARK  4 active torsions:
REMARK  status: ('A' for Active; 'I' for Inactive)
REMARK    1  A    between atoms: C_12  and  N_1 
REMARK    2  A    between atoms: N_3  and  C_11 
REMARK    3  A    between atoms: C_11  and  C_15 
REMARK    4  A    between atoms: C_15  and  C_12 
ROOT
ATOM      1  N   UNL d   1      57.035   0.676  32.347  0.00  0.00    -0.303 N 
ATOM      2  C   UNL d   1      57.682   0.679  32.870  0.00  0.00     0.064 A 
ATOM      3  C   UNL d   1      57.386   0.679  33.640  0.00  0.00     0.018 A 
ATOM      4  C   UNL d   1      56.561   0.676  33.600  0.00  0.00     0.018 A 
ATOM      5  C   UNL d   1      56.343   0.674  32.797  0.00  0.00     0.064 A 
ATOM      6  C   UNL d   1      55.544   0.670  32.587  0.00  0.00     0.018 A 
ATOM      7  C   UNL d   1      55.978   0.674  34.186  0.00  0.00     0.002 A 
ATOM      8  C   UNL d   1      54.966   0.669  33.171  0.00  0.00     0.002 A 
ATOM      9  C   UNL d   1      55.182   0.671  33.966  0.00  0.00     0.000 A 
ATOM     10  C   UNL d   1      58.477   0.682  32.654  0.00  0.00     0.019 C 
ATOM     11  C   UNL d   1      57.840   0.682  34.328  0.00  0.00     0.002 C 
ATOM     12  C   UNL d   1      54.602   0.669  34.550  0.00  0.00     0.000 C 
ENDROOT
BRANCH   1  13
ATOM     13  C   UNL d   1      57.079   0.675  31.520  0.00  0.00     0.124 C 
BRANCH  13  14
ATOM     14  C   UNL d   1      57.449   0.044  31.132  0.00  0.00     0.232 C 
ATOM     15  O   UNL d   1      57.197  -0.722  31.266  0.00  0.00    -0.283 OA
BRANCH  14  16
ATOM     16  C   UNL d   1      58.070   0.197  30.614  0.00  0.00     0.144 C 
BRANCH  16  17
ATOM     17  N   UNL d   1      58.265  -0.342  30.025  0.00  0.00    -0.225 N 
ATOM     18  N   UNL d   1      58.215  -1.166  30.095  0.00  0.00    -0.165 NA
ATOM     19  C   UNL d   1      58.464  -1.497  29.377  0.00  0.00     0.103 A 
ATOM     20  C   UNL d   1      58.505  -2.298  29.194  0.00  0.00     0.022 C 
ATOM     21  C   UNL d   1      58.667  -0.876  28.865  0.00  0.00     0.040 A 
ATOM     22  C   UNL d   1      58.543  -0.163  29.269  0.00  0.00     0.085 A 
ATOM     23  C   UNL d   1      58.673   0.592  28.971  0.00  0.00     0.021 C 
ENDBRANCH  16  17
ENDBRANCH  14  16
ENDBRANCH  13  14
ENDBRANCH   1  13
TORSDOF 4
ENDMDL
MODEL 2
REMARK VINA RESULT:      -2.3      0.852      4.648
REMARK  4 active torsions:
REMARK  status: ('A' for Active; 'I' for Inactive)
REMARK    1  A    between atoms: C_12  and  N_1 
REMARK    2  A    between atoms: N_3  and  C_11 
REMARK    3  A    between atoms: C_11  and  C_15 
REMARK    4  A    between atoms: C_15  and  C_12 
ROOT
ATOM      1  N   UNL d   1      58.363  -0.675  30.298  0.00  0.00    -0.303 N 
ATOM      2  C   UNL d   1      58.742  -0.146  29.781  0.00  0.00     0.064 A 
ATOM      3  C   UNL d   1      58.978  -0.569  29.112  0.00  0.00     0.018 A 
ATOM      4  C   UNL d   1      58.750  -1.356  29.210  0.00  0.00     0.018 A 
ATOM      5  C   UNL d   1      58.368  -1.423  29.946  0.00  0.00     0.064 A 
ATOM      6  C   UNL d   1      58.078  -2.155  30.195  0.00  0.00     0.018 A 
ATOM      7  C   UNL d   1      58.837  -2.023  28.730  0.00  0.00     0.002 A 
ATOM      8  C   UNL d   1      58.165  -2.816  29.716  0.00  0.00     0.002 A 
ATOM      9  C   UNL d   1      58.543  -2.751  28.986  0.00  0.00     0.000 A 
ATOM     10  C   UNL d   1      58.859   0.659  29.914  0.00  0.00     0.019 C 
ATOM     11  C   UNL d   1      59.374  -0.254  28.461  0.00  0.00     0.002 C 
ATOM     12  C   UNL d   1      58.631  -3.413  28.507  0.00  0.00     0.000 C 
ENDROOT
BRANCH   1  13
ATOM     13  C   UNL d   1      58.040  -0.486  31.036  0.00  0.00     0.124 C 
BRANCH  13  14
ATOM     14  C   UNL d   1      57.305  -0.108  31.073  0.00  0.00     0.232 C 
ATOM     15  O   UNL d   1      56.728  -0.280  30.520  0.00  0.00    -0.283 OA
BRANCH  14  16
ATOM     16  C   UNL d   1      57.163   0.442  31.670  0.00  0.00     0.144 C 
BRANCH  16  17
ATOM     17  N   UNL d   1      56.762   0.222  32.354  0.00  0.00    -0.225 N 
ATOM     18  N   UNL d   1      56.010  -0.123  32.378  0.00  0.00    -0.165 NA
ATOM     19  C   UNL d   1      55.817  -0.255  33.173  0.00  0.00     0.103 A 
ATOM     20  C   UNL d   1      55.122  -0.588  33.460  0.00  0.00     0.022 C 
ATOM     21  C   UNL d   1      56.451   0.010  33.638  0.00  0.00     0.040 A 
ATOM     22  C   UNL d   1      57.034   0.304  33.128  0.00  0.00     0.085 A 
ATOM     23  C   UNL d   1      57.758   0.623  33.353  0.00  0.00     0.021 C 
ENDBRANCH  16  17
ENDBRANCH  14  16
ENDBRANCH  13  14
ENDBRANCH   1  13
TORSDOF 4
ENDMDL
MODEL 3
REMARK VINA RESULT:      -1.9      1.488      2.192
REMARK  4 active torsions:
REMARK  status: ('A' for Active; 'I' for Inactive)
REMARK    1  A    between atoms: C_12  and  N_1 
REMARK    2  A    between atoms: N_3  and  C_11 
REMARK    3  A    between atoms: C_11  and  C_15 
REMARK    4  A    between atoms: C_15  and  C_12 
ROOT
ATOM      1  N   UNL d   1      57.876  -0.286  31.102  0.00  0.00    -0.303 N 
ATOM      2  C   UNL d   1      58.304   0.238  31.586  0.00  0.00     0.064 A 
ATOM      3  C   UNL d   1      57.956   0.235  32.334  0.00  0.00     0.018 A 
ATOM      4  C   UNL d   1      57.315  -0.286  32.320  0.00  0.00     0.018 A 
ATOM      5  C   UNL d   1      57.265  -0.609  31.555  0.00  0.00     0.064 A 
ATOM      6  C   UNL d   1      56.671  -1.154  31.376  0.00  0.00     0.018 A 
ATOM      7  C   UNL d   1      56.770  -0.510  32.899  0.00  0.00     0.002 A 
ATOM      8  C   UNL d   1      56.130  -1.376  31.954  0.00  0.00     0.002 A 
ATOM      9  C   UNL d   1      56.179  -1.056  32.711  0.00  0.00     0.000 A 
ATOM     10  C   UNL d   1      58.959   0.680  31.356  0.00  0.00     0.019 C 
ATOM     11  C   UNL d   1      58.208   0.678  32.982  0.00  0.00     0.002 C 
ATOM     12  C   UNL d   1      55.637  -1.278  33.289  0.00  0.00     0.000 C 
ENDROOT
BRANCH   1  13
ATOM     13  C   UNL d   1      58.034  -0.453  30.308  0.00  0.00     0.124 C 
BRANCH  13  14
ATOM     14  C   UNL d   1      58.654  -0.966  30.114  0.00  0.00     0.232 C 
ATOM     15  O   UNL d   1      59.427  -0.747  30.266  0.00  0.00    -0.283 OA
BRANCH  14  16
ATOM     16  C   UNL d   1      58.484  -1.694  29.770  0.00  0.00     0.144 C 
BRANCH  16  17
ATOM     17  N   UNL d   1      59.051  -2.088  29.324  0.00  0.00    -0.225 N 
ATOM     18  N   UNL d   1      59.855  -1.892  29.290  0.00  0.00    -0.165 NA
ATOM     19  C   UNL d   1      60.226  -2.427  28.778  0.00  0.00     0.103 A 
ATOM     20  C   UNL d   1      61.023  -2.443  28.577  0.00  0.00     0.022 C 
ATOM     21  C   UNL d   1      59.649  -2.953  28.496  0.00  0.00     0.040 A 
ATOM     22  C   UNL d   1      58.924  -2.741  28.836  0.00  0.00     0.085 A 
ATOM     23  C   UNL d   1      58.202  -3.114  28.709  0.00  0.00     0.021 C 
ENDBRANCH  16  17
ENDBRANCH  14  16
ENDBRANCH  13  14
ENDBRANCH   1  13
TORSDOF 4
ENDMDL
