MODEL 1
REMARK VINA RESULT:      -3.3      0.000      0.000
REMARK  5 active torsions:
REMARK  status: ('A' for Active; 'I' for Inactive)
REMARK    1  A    between atoms: C_3  and  C_2 
REMARK    2  A    between atoms: C_7  and  C_3 
REMARK    3  A    between atoms: C_10  and  C_4 
REMARK    4  A    between atoms: C_12  and  C_7 
REMARK    5  A    between atoms: C_18  and  C_11 
ROOT
ATOM      1  C   UNL d   1      32.788  18.701 -24.004  0.00  0.00     0.092 C 
ATOM      2  C   UNL d   1      32.705  19.320 -24.543  0.00  0.00     0.103 C 
ATOM      3  N   UNL d   1      32.623  19.940 -25.081  0.00  0.00    -0.191 NA
ENDROOT
BRANCH   1   4
ATOM      4  C   UNL d   1      32.415  17.980 -24.150  0.00  0.00     0.120 A 
ATOM      5  N   UNL d   1      31.611  17.899 -24.013  0.00  0.00    -0.238 NA
ATOM      6  C   UNL d   1      31.399  17.118 -24.210  0.00  0.00     0.088 A 
ATOM      7  C   UNL d   1      32.073  16.743 -24.460  0.00  0.00     0.056 A 
ATOM      8  S   UNL d   1      32.700  17.258 -24.428  0.00  0.00    -0.065 SA
BRANCH   6   9
ATOM      9  C   UNL d   1      30.612  16.878 -24.126  0.00  0.00     0.018 A 
ATOM     10  C   UNL d   1      30.023  17.160 -24.614  0.00  0.00     0.005 A 
ATOM     11  C   UNL d   1      29.260  16.917 -24.519  0.00  0.00     0.042 A 
ATOM     12  C   UNL d   1      29.046  16.379 -23.931  0.00  0.00     0.196 A 
ATOM     13  C   UNL d   1      29.633  16.087 -23.432  0.00  0.00     0.042 A 
ATOM     14  O   UNL d   1      28.395  16.055 -23.712  0.00  0.00    -0.287 OA
ATOM     15  C   UNL d   1      30.411  16.337 -23.532  0.00  0.00     0.005 A 
ENDBRANCH   6   9
ENDBRANCH   1   4
BRANCH   1  16
ATOM     16  C   UNL d   1      33.241  18.798 -23.320  0.00  0.00     0.012 C 
BRANCH  16  17
ATOM     17  C   UNL d   1      33.142  19.482 -22.838  0.00  0.00     0.001 A 
ATOM     18  C   UNL d   1      32.946  19.362 -22.049  0.00  0.00     0.000 A 
ATOM     19  C   UNL d   1      32.842  20.053 -21.542  0.00  0.00     0.000 A 
ATOM     20  C   UNL d   1      32.944  20.810 -21.874  0.00  0.00     0.000 A 
ATOM     21  C   UNL d   1      33.140  20.902 -22.670  0.00  0.00     0.000 A 
ATOM     22  C   UNL d   1      33.241  20.259 -23.155  0.00  0.00     0.000 A 
BRANCH  20  23
ATOM     23  C   UNL d   1      32.836  21.474 -21.356  0.00  0.00     0.000 C 
ATOM     24  C   UNL d   1      32.454  21.394 -20.636  0.00  0.00     0.000 C 
ATOM     25  C   UNL d   1      33.128  22.211 -21.596  0.00  0.00     0.000 C 
ENDBRANCH  20  23
ENDBRANCH  16  17
ENDBRANCH   1  16
TORSDOF 5
ENDMDL
MODEL 2
REMARK VINA RESULT:      -2.2      2.317      5.291
REMARK  5 active torsions:
REMARK  status: ('A' for Active; 'I' for Inactive)
REMARK    1  A    between atoms: C_3  and  C_2 
REMARK    2  A    between atoms: C_7  and  C_3 
REMARK    3  A    between atoms: C_10  and  C_4 
REMARK    4  A    between atoms: C_12  and  C_7 
REMARK    5  A    between atoms: C_18  and  C_11 
ROOT
ATOM      1  C   UNL d   1      33.201  19.258 -22.865  0.00  0.00     0.092 C 
ATOM      2  C   UNL d   1      33.220  18.807 -22.174  0.00  0.00     0.103 C 
ATOM      3  N   UNL d   1      33.240  18.355 -21.485  0.00  0.00    -0.191 NA
ENDROOT
BRANCH   1   4
ATOM      4  C   UNL d   1      33.161  20.080 -22.814  0.00  0.00     0.120 A 
ATOM      5  N   UNL d   1      33.018  20.441 -22.093  0.00  0.00    -0.238 NA
ATOM      6  C   UNL d   1      33.009  21.264 -22.218  0.00  0.00     0.088 A 
ATOM      7  C   UNL d   1      33.147  21.386 -23.008  0.00  0.00     0.056 A 
ATOM      8  S   UNL d   1      33.241  20.671 -23.383  0.00  0.00    -0.065 SA
BRANCH   6   9
ATOM      9  C   UNL d   1      32.876  21.770 -21.579  0.00  0.00     0.018 A 
ATOM     10  C   UNL d   1      33.231  21.651 -20.855  0.00  0.00     0.005 A 
ATOM     11  C   UNL d   1      33.091  22.153 -20.241  0.00  0.00     0.042 A 
ATOM     12  C   UNL d   1      32.587  22.803 -20.317  0.00  0.00     0.196 A 
ATOM     13  C   UNL d   1      32.222  22.934 -21.044  0.00  0.00     0.042 A 
ATOM     14  O   UNL d   1      32.352  23.357 -19.855  0.00  0.00    -0.287 OA
ATOM     15  C   UNL d   1      32.368  22.418 -21.670  0.00  0.00     0.005 A 
ENDBRANCH   6   9
ENDBRANCH   1   4
BRANCH   1  16
ATOM     16  C   UNL d   1      33.221  18.892 -23.605  0.00  0.00     0.012 C 
BRANCH  16  17
ATOM     17  C   UNL d   1      32.690  18.262 -23.783  0.00  0.00     0.001 A 
ATOM     18  C   UNL d   1      33.006  17.505 -23.831  0.00  0.00     0.000 A 
ATOM     19  C   UNL d   1      32.474  16.850 -24.012  0.00  0.00     0.000 A 
ATOM     20  C   UNL d   1      31.666  17.013 -24.132  0.00  0.00     0.000 A 
ATOM     21  C   UNL d   1      31.375  17.784 -24.078  0.00  0.00     0.000 A 
ATOM     22  C   UNL d   1      31.867  18.407 -23.907  0.00  0.00     0.000 A 
BRANCH  20  23
ATOM     23  C   UNL d   1      31.163  16.353 -24.309  0.00  0.00     0.000 C 
ATOM     24  C   UNL d   1      30.918  15.834 -23.724  0.00  0.00     0.000 C 
ATOM     25  C   UNL d   1      30.922  16.242 -25.094  0.00  0.00     0.000 C 
ENDBRANCH  20  23
ENDBRANCH  16  17
ENDBRANCH   1  16
TORSDOF 5
ENDMDL
MODEL 3
REMARK VINA RESULT:      -1.7      1.877      5.074
REMARK  5 active torsions:
REMARK  status: ('A' for Active; 'I' for Inactive)
REMARK    1  A    between atoms: C_3  and  C_2 
REMARK    2  A    between atoms: C_7  and  C_3 
REMARK    3  A    between atoms: C_10  and  C_4 
REMARK    4  A    between atoms: C_12  and  C_7 
REMARK    5  A    between atoms: C_18  and  C_11 
ROOT
ATOM      1  C   UNL d   1      31.346  16.171 -23.639  0.00  0.00     0.092 C 
ATOM      2  C   UNL d   1      31.197  15.815 -24.368  0.00  0.00     0.103 C 
ATOM      3  N   UNL d   1      31.047  15.459 -25.097  0.00  0.00    -0.191 NA
ENDROOT
BRANCH   1   4
ATOM      4  C   UNL d   1      32.024  16.629 -23.539  0.00  0.00     0.120 A 
ATOM      5  N   UNL d   1      31.967  17.446 -23.507  0.00  0.00    -0.238 NA
ATOM      6  C   UNL d   1      32.735  17.750 -23.405  0.00  0.00     0.088 A 
ATOM      7  C   UNL d   1      33.241  17.116 -23.376  0.00  0.00     0.056 A 
ATOM      8  S   UNL d   1      32.819  16.426 -23.457  0.00  0.00    -0.065 SA
BRANCH   6   9
ATOM      9  C   UNL d   1      32.844  18.567 -23.354  0.00  0.00     0.018 A 
ATOM     10  C   UNL d   1      32.886  18.951 -22.636  0.00  0.00     0.005 A 
ATOM     11  C   UNL d   1      32.993  19.749 -22.602  0.00  0.00     0.042 A 
ATOM     12  C   UNL d   1      33.064  20.207 -23.285  0.00  0.00     0.196 A 
ATOM     13  C   UNL d   1      33.023  19.830 -24.017  0.00  0.00     0.042 A 
ATOM     14  O   UNL d   1      33.165  20.946 -23.428  0.00  0.00    -0.287 OA
ATOM     15  C   UNL d   1      32.914  19.014 -24.047  0.00  0.00     0.005 A 
ENDBRANCH   6   9
ENDBRANCH   1   4
BRANCH   1  16
ATOM     16  C   UNL d   1      30.821  16.071 -23.009  0.00  0.00     0.012 C 
BRANCH  16  17
ATOM     17  C   UNL d   1      29.989  16.068 -23.145  0.00  0.00     0.001 A 
ATOM     18  C   UNL d   1      29.532  15.576 -22.671  0.00  0.00     0.000 A 
ATOM     19  C   UNL d   1      28.678  15.562 -22.798  0.00  0.00     0.000 A 
ATOM     20  C   UNL d   1      28.356  16.047 -23.393  0.00  0.00     0.000 A 
ATOM     21  C   UNL d   1      28.838  16.532 -23.855  0.00  0.00     0.000 A 
ATOM     22  C   UNL d   1      29.642  16.552 -23.743  0.00  0.00     0.000 A 
BRANCH  20  23
ATOM     23  C   UNL d   1      27.514  16.017 -23.499  0.00  0.00     0.000 C 
ATOM     24  C   UNL d   1      27.166  15.453 -23.981  0.00  0.00     0.000 C 
ATOM     25  C   UNL d   1      27.048  16.574 -23.102  0.00  0.00     0.000 C 
ENDBRANCH  20  23
ENDBRANCH  16  17
ENDBRANCH   1  16
TORSDOF 5
ENDMDL
