MODEL 1
REMARK VINA RESULT:      -6.2      0.000      0.000
REMARK  5 active torsions:
REMARK  status: ('A' for Active; 'I' for Inactive)
REMARK    1  A    between atoms: C_6  and  N_1 
REMARK    2  A    between atoms: C_11  and  C_6 
REMARK    3  A    between atoms: C_14  and  C_11 
REMARK    4  A    between atoms: C_12  and  O_13 
REMARK    5  A    between atoms: O_13  and  C_14 
ROOT
ATOM      1  C   UNL d   1     -41.624-122.453 -50.750  0.00  0.00     0.238 C 
ATOM      2  O   UNL d   1     -41.716-121.655 -50.559  0.00  0.00    -0.283 OA
ENDROOT
BRANCH   1   3
ATOM      3  C   UNL d   1     -41.517-123.015 -50.154  0.00  0.00     0.126 C 
BRANCH   3   4
ATOM      4  N   UNL d   1     -42.044-123.041 -49.512  0.00  0.00    -0.284 N 
ATOM      5  C   UNL d   1     -42.847-122.862 -49.532  0.00  0.00     0.183 A 
ATOM      6  N   UNL d   1     -43.158-122.961 -48.774  0.00  0.00    -0.224 NA
ATOM      7  C   UNL d   1     -42.542-123.204 -48.283  0.00  0.00     0.099 A 
ATOM      8  C   UNL d   1     -41.854-123.254 -48.734  0.00  0.00     0.083 A 
ATOM      9  C   UNL d   1     -42.521-123.385 -47.483  0.00  0.00     0.021 A 
ATOM     10  C   UNL d   1     -41.142-123.486 -48.384  0.00  0.00     0.019 A 
ATOM     11  C   UNL d   1     -41.123-123.668 -47.580  0.00  0.00     0.002 A 
ATOM     12  C   UNL d   1     -41.814-123.618 -47.124  0.00  0.00     0.002 A 
ENDBRANCH   3   4
ENDBRANCH   1   3
BRANCH   1  13
ATOM     13  C   UNL d   1     -41.638-122.695 -51.551  0.00  0.00     0.166 C 
BRANCH  13  14
ATOM     14  O   UNL d   1     -41.400-122.159 -52.157  0.00  0.00    -0.302 OA
BRANCH  14  15
ATOM     15  C   UNL d   1     -41.483-122.353 -52.965  0.00  0.00     0.100 A 
ATOM     16  C   UNL d   1     -41.892-121.856 -53.460  0.00  0.00     0.025 A 
ATOM     17  C   UNL d   1     -41.974-122.050 -54.268  0.00  0.00     0.002 A 
ATOM     18  C   UNL d   1     -42.345-121.670 -54.887  0.00  0.00     0.000 A 
ATOM     19  C   UNL d   1     -41.640-122.743 -54.555  0.00  0.00     0.000 A 
ATOM     20  C   UNL d   1     -42.241-122.127 -55.558  0.00  0.00     0.000 A 
ATOM     21  C   UNL d   1     -41.807-122.788 -55.354  0.00  0.00     0.000 A 
ATOM     22  C   UNL d   1     -41.223-123.245 -54.036  0.00  0.00     0.002 A 
ATOM     23  C   UNL d   1     -41.149-123.046 -53.252  0.00  0.00     0.025 A 
ENDBRANCH  14  15
ENDBRANCH  13  14
ENDBRANCH   1  13
TORSDOF 5
ENDMDL
MODEL 2
REMARK VINA RESULT:      -5.2      1.355      5.485
REMARK  5 active torsions:
REMARK  status: ('A' for Active; 'I' for Inactive)
REMARK    1  A    between atoms: C_6  and  N_1 
REMARK    2  A    between atoms: C_11  and  C_6 
REMARK    3  A    between atoms: C_14  and  C_11 
REMARK    4  A    between atoms: C_12  and  O_13 
REMARK    5  A    between atoms: O_13  and  C_14 
ROOT
ATOM      1  C   UNL d   1     -41.393-122.181 -51.478  0.00  0.00     0.238 C 
ATOM      2  O   UNL d   1     -41.328-121.368 -51.352  0.00  0.00    -0.283 OA
ENDROOT
BRANCH   1   3
ATOM      3  C   UNL d   1     -41.123-122.516 -52.184  0.00  0.00     0.126 C 
BRANCH   3   4
ATOM      4  N   UNL d   1     -41.468-122.294 -52.906  0.00  0.00    -0.284 N 
ATOM      5  C   UNL d   1     -41.855-121.585 -53.064  0.00  0.00     0.183 A 
ATOM      6  N   UNL d   1     -42.112-121.594 -53.848  0.00  0.00    -0.224 NA
ATOM      7  C   UNL d   1     -41.882-122.314 -54.175  0.00  0.00     0.099 A 
ATOM      8  C   UNL d   1     -41.485-122.749 -53.598  0.00  0.00     0.083 A 
ATOM      9  C   UNL d   1     -41.984-122.629 -54.926  0.00  0.00     0.021 A 
ATOM     10  C   UNL d   1     -41.189-123.500 -53.771  0.00  0.00     0.019 A 
ATOM     11  C   UNL d   1     -41.293-123.816 -54.527  0.00  0.00     0.002 A 
ATOM     12  C   UNL d   1     -41.692-123.381 -55.110  0.00  0.00     0.002 A 
ENDBRANCH   3   4
ENDBRANCH   1   3
BRANCH   1  13
ATOM     13  C   UNL d   1     -41.733-122.669 -50.890  0.00  0.00     0.166 C 
BRANCH  13  14
ATOM     14  O   UNL d   1     -41.328-122.795 -50.162  0.00  0.00    -0.302 OA
BRANCH  14  15
ATOM     15  C   UNL d   1     -41.732-123.060 -49.481  0.00  0.00     0.100 A 
ATOM     16  C   UNL d   1     -41.400-122.952 -48.746  0.00  0.00     0.025 A 
ATOM     17  C   UNL d   1     -41.804-123.217 -48.066  0.00  0.00     0.002 A 
ATOM     18  C   UNL d   1     -41.617-123.189 -47.272  0.00  0.00     0.000 A 
ATOM     19  C   UNL d   1     -42.534-123.586 -48.144  0.00  0.00     0.000 A 
ATOM     20  C   UNL d   1     -42.230-123.539 -46.859  0.00  0.00     0.000 A 
ATOM     21  C   UNL d   1     -42.796-123.783 -47.395  0.00  0.00     0.000 A 
ATOM     22  C   UNL d   1     -42.863-123.690 -48.903  0.00  0.00     0.002 A 
ATOM     23  C   UNL d   1     -42.462-123.429 -49.559  0.00  0.00     0.025 A 
ENDBRANCH  14  15
ENDBRANCH  13  14
ENDBRANCH   1  13
TORSDOF 5
ENDMDL
