MODEL 1
REMARK VINA RESULT:      14.1      0.000      0.000
REMARK  3 active torsions:
REMARK  status: ('A' for Active; 'I' for Inactive)
REMARK    1  A    between atoms: N_4  and  C_1 
REMARK    2  A    between atoms: C_9  and  C_3 
REMARK    3  A    between atoms: C_7  and  N_4 
ROOT
ATOM      1  C   UNL d   1      46.164 -17.206  44.683  0.00  0.00     0.196 A 
ATOM      2  N   UNL d   1      46.382 -16.407  44.503  0.00  0.00    -0.221 NA
ATOM      3  C   UNL d   1      45.741 -15.963  44.674  0.00  0.00     0.090 A 
ATOM      4  S   UNL d   1      45.410 -17.237  44.955  0.00  0.00    -0.046 SA
ATOM      5  C   UNL d   1      45.126 -16.451  44.955  0.00  0.00     0.058 A 
ENDROOT
BRANCH   1   6
ATOM      6  N   UNL d   1      46.647 -17.921  44.603  0.00  0.00    -0.202 NA
BRANCH   6   7
ATOM      7  C   UNL d   1      46.516 -18.438  43.959  0.00  0.00     0.165 A 
ATOM      8  N   UNL d   1      46.293 -19.192  44.239  0.00  0.00    -0.225 NA
ATOM      9  C   UNL d   1      46.112 -19.870  43.770  0.00  0.00     0.101 A 
ATOM     10  C   UNL d   1      46.108 -19.957  42.966  0.00  0.00     0.021 A 
ATOM     11  C   UNL d   1      46.288 -19.380  42.387  0.00  0.00     0.002 A 
ATOM     12  C   UNL d   1      46.508 -18.600  42.478  0.00  0.00     0.003 A 
ATOM     13  C   UNL d   1      46.612 -18.171  43.196  0.00  0.00     0.039 A 
ENDBRANCH   6   7
ENDBRANCH   1   6
BRANCH   3  14
ATOM     14  C   UNL d   1      45.661 -15.150  44.598  0.00  0.00     0.018 A 
ATOM     15  C   UNL d   1      44.987 -14.784  44.884  0.00  0.00     0.002 A 
ATOM     16  C   UNL d   1      44.899 -13.975  44.813  0.00  0.00     0.007 A 
ATOM     17  C   UNL d   1      45.496 -13.509  44.447  0.00  0.00     0.035 A 
ATOM     18  C   UNL d   1      46.179 -13.883  44.157  0.00  0.00     0.007 A 
ATOM     19 BR   UNL d   1      45.453 -12.690  44.352  0.00  0.00    -0.049 Br
ATOM     20  C   UNL d   1      46.260 -14.696  44.233  0.00  0.00     0.002 A 
ENDBRANCH   3  14
TORSDOF 3
ENDMDL
MODEL 2
REMARK VINA RESULT:      14.2      2.001      4.714
REMARK  3 active torsions:
REMARK  status: ('A' for Active; 'I' for Inactive)
REMARK    1  A    between atoms: N_4  and  C_1 
REMARK    2  A    between atoms: C_9  and  C_3 
REMARK    3  A    between atoms: C_7  and  N_4 
ROOT
ATOM      1  C   UNL d   1      45.306 -15.820  44.439  0.00  0.00     0.196 A 
ATOM      2  N   UNL d   1      45.260 -16.449  43.871  0.00  0.00    -0.221 NA
ATOM      3  C   UNL d   1      45.845 -16.956  44.060  0.00  0.00     0.090 A 
ATOM      4  S   UNL d   1      45.906 -15.951  44.954  0.00  0.00    -0.046 SA
ATOM      5  C   UNL d   1      46.261 -16.673  44.726  0.00  0.00     0.058 A 
ENDROOT
BRANCH   1   6
ATOM      6  N   UNL d   1      44.803 -15.118  44.497  0.00  0.00    -0.202 NA
BRANCH   6   7
ATOM      7  C   UNL d   1      45.141 -14.359  44.401  0.00  0.00     0.165 A 
ATOM      8  N   UNL d   1      44.826 -13.990  43.722  0.00  0.00    -0.225 NA
ATOM      9  C   UNL d   1      45.020 -13.222  43.430  0.00  0.00     0.101 A 
ATOM     10  C   UNL d   1      45.538 -12.673  43.721  0.00  0.00     0.021 A 
ATOM     11  C   UNL d   1      46.020 -12.735  44.403  0.00  0.00     0.002 A 
ATOM     12  C   UNL d   1      46.094 -13.347  44.937  0.00  0.00     0.003 A 
ATOM     13  C   UNL d   1      45.692 -14.088  44.935  0.00  0.00     0.039 A 
ENDBRANCH   6   7
ENDBRANCH   1   6
BRANCH   3  14
ATOM     14  C   UNL d   1      46.041 -17.658  43.683  0.00  0.00     0.018 A 
ATOM     15  C   UNL d   1      46.185 -18.328  44.130  0.00  0.00     0.002 A 
ATOM     16  C   UNL d   1      46.380 -19.031  43.762  0.00  0.00     0.007 A 
ATOM     17  C   UNL d   1      46.436 -19.076  42.923  0.00  0.00     0.035 A 
ATOM     18  C   UNL d   1      46.289 -18.394  42.473  0.00  0.00     0.007 A 
ATOM     19 BR   UNL d   1      46.629 -19.762  42.508  0.00  0.00    -0.049 Br
ATOM     20  C   UNL d   1      46.093 -17.692  42.850  0.00  0.00     0.002 A 
ENDBRANCH   3  14
TORSDOF 3
ENDMDL
