MODEL 1
REMARK VINA RESULT:      -4.4      0.000      0.000
REMARK  5 active torsions:
REMARK  status: ('A' for Active; 'I' for Inactive)
REMARK    1  A    between atoms: C_2  and  S_1 
REMARK    2  A    between atoms: C_3  and  S_1 
REMARK    3  A    between atoms: C_5  and  C_3 
REMARK    4  A    between atoms: O_13  and  C_8 
REMARK    5  A    between atoms: O_14  and  C_10 
ROOT
ATOM      1  C   UNL d   1      56.893  -0.113  31.763  0.00  0.00     0.048 A 
ATOM      2  C   UNL d   1      56.709  -0.792  32.187  0.00  0.00     0.030 A 
ATOM      3  C   UNL d   1      56.243  -0.734  32.869  0.00  0.00     0.116 A 
ATOM      4  C   UNL d   1      55.965   0.000  33.122  0.00  0.00     0.116 A 
ATOM      5  C   UNL d   1      56.619   0.625  32.009  0.00  0.00     0.006 A 
ATOM      6  C   UNL d   1      56.157   0.682  32.686  0.00  0.00     0.026 A 
ENDROOT
BRANCH   1   7
ATOM      7  C   UNL d   1      57.359  -0.171  31.081  0.00  0.00     0.227 C 
ATOM      8  O   UNL d   1      57.491  -0.909  30.738  0.00  0.00    -0.279 OA
BRANCH   7   9
ATOM      9  S   UNL d   1      57.687   0.510  30.750  0.00  0.00    -0.020 SA
BRANCH   9  10
ATOM     10  C   UNL d   1      58.108   0.457  30.044  0.00  0.00     0.143 A 
ATOM     11  N   UNL d   1      57.791   0.557  29.282  0.00  0.00    -0.230 NA
ATOM     12  C   UNL d   1      58.410   0.456  28.743  0.00  0.00     0.107 A 
ATOM     13  C   UNL d   1      59.099   0.296  29.162  0.00  0.00     0.058 A 
ATOM     14  S   UNL d   1      58.909   0.297  29.960  0.00  0.00    -0.059 SA
ENDBRANCH   9  10
ENDBRANCH   7   9
ENDBRANCH   1   7
BRANCH   3  15
ATOM     15  O   UNL d   1      56.073  -1.429  33.276  0.00  0.00    -0.326 OA
ATOM     16  C   UNL d   1      55.484  -1.934  32.993  0.00  0.00     0.181 C 
ENDBRANCH   3  15
BRANCH   4  17
ATOM     17  O   UNL d   1      55.505   0.058  33.796  0.00  0.00    -0.326 OA
ATOM     18  C   UNL d   1      55.617   0.682  34.324  0.00  0.00     0.181 C 
ENDBRANCH   4  17
TORSDOF 5
ENDMDL
MODEL 2
REMARK VINA RESULT:      -4.3      1.734      4.158
REMARK  5 active torsions:
REMARK  status: ('A' for Active; 'I' for Inactive)
REMARK    1  A    between atoms: C_2  and  S_1 
REMARK    2  A    between atoms: C_3  and  S_1 
REMARK    3  A    between atoms: C_5  and  C_3 
REMARK    4  A    between atoms: O_13  and  C_8 
REMARK    5  A    between atoms: O_14  and  C_10 
ROOT
ATOM      1  C   UNL d   1      58.084   0.102  30.580  0.00  0.00     0.048 A 
ATOM      2  C   UNL d   1      58.175  -0.468  29.996  0.00  0.00     0.030 A 
ATOM      3  C   UNL d   1      58.855  -0.464  29.523  0.00  0.00     0.116 A 
ATOM      4  C   UNL d   1      59.438   0.109  29.637  0.00  0.00     0.116 A 
ATOM      5  C   UNL d   1      58.663   0.679  30.701  0.00  0.00     0.006 A 
ATOM      6  C   UNL d   1      59.337   0.682  30.231  0.00  0.00     0.026 A 
ENDROOT
BRANCH   1   7
ATOM      7  C   UNL d   1      57.405   0.098  31.053  0.00  0.00     0.227 C 
ATOM      8  O   UNL d   1      56.680   0.322  30.728  0.00  0.00    -0.279 OA
BRANCH   7   9
ATOM      9  S   UNL d   1      57.457  -0.129  31.844  0.00  0.00    -0.020 SA
BRANCH   9  10
ATOM     10  C   UNL d   1      56.785  -0.400  32.235  0.00  0.00     0.143 A 
ATOM     11  N   UNL d   1      56.510  -1.185  32.239  0.00  0.00    -0.230 NA
ATOM     12  C   UNL d   1      55.822  -1.202  32.699  0.00  0.00     0.107 A 
ATOM     13  C   UNL d   1      55.673  -0.442  32.976  0.00  0.00     0.058 A 
ATOM     14  S   UNL d   1      56.266   0.047  32.689  0.00  0.00    -0.059 SA
ENDBRANCH   9  10
ENDBRANCH   7   9
ENDBRANCH   1   7
BRANCH   3  15
ATOM     15  O   UNL d   1      58.922  -1.045  28.945  0.00  0.00    -0.326 OA
ATOM     16  C   UNL d   1      58.699  -1.822  29.119  0.00  0.00     0.181 C 
ENDBRANCH   3  15
BRANCH   4  17
ATOM     17  O   UNL d   1      60.110   0.114  29.171  0.00  0.00    -0.326 OA
ATOM     18  C   UNL d   1      60.730   0.631  29.339  0.00  0.00     0.181 C 
ENDBRANCH   4  17
TORSDOF 5
ENDMDL
MODEL 3
REMARK VINA RESULT:      -4.3      0.872      1.283
REMARK  5 active torsions:
REMARK  status: ('A' for Active; 'I' for Inactive)
REMARK    1  A    between atoms: C_2  and  S_1 
REMARK    2  A    between atoms: C_3  and  S_1 
REMARK    3  A    between atoms: C_5  and  C_3 
REMARK    4  A    between atoms: O_13  and  C_8 
REMARK    5  A    between atoms: O_14  and  C_10 
ROOT
ATOM      1  C   UNL d   1      56.742  -0.077  32.158  0.00  0.00     0.048 A 
ATOM      2  C   UNL d   1      57.066   0.279  32.823  0.00  0.00     0.030 A 
ATOM      3  C   UNL d   1      56.623   0.320  33.521  0.00  0.00     0.116 A 
ATOM      4  C   UNL d   1      55.860   0.006  33.549  0.00  0.00     0.116 A 
ATOM      5  C   UNL d   1      55.981  -0.394  32.177  0.00  0.00     0.006 A 
ATOM      6  C   UNL d   1      55.541  -0.352  32.870  0.00  0.00     0.026 A 
ENDROOT
BRANCH   1   7
ATOM      7  C   UNL d   1      57.186  -0.119  31.460  0.00  0.00     0.227 C 
ATOM      8  O   UNL d   1      57.410  -0.854  31.162  0.00  0.00    -0.279 OA
BRANCH   7   9
ATOM      9  S   UNL d   1      57.400   0.575  31.068  0.00  0.00    -0.020 SA
BRANCH   9  10
ATOM     10  C   UNL d   1      57.926   0.540  30.435  0.00  0.00     0.143 A 
ATOM     11  N   UNL d   1      57.718   0.422  29.639  0.00  0.00    -0.230 NA
ATOM     12  C   UNL d   1      58.418   0.426  29.199  0.00  0.00     0.107 A 
ATOM     13  C   UNL d   1      59.050   0.545  29.712  0.00  0.00     0.058 A 
ATOM     14  S   UNL d   1      58.742   0.614  30.470  0.00  0.00    -0.059 SA
ENDBRANCH   9  10
ENDBRANCH   7   9
ENDBRANCH   1   7
BRANCH   3  15
ATOM     15  O   UNL d   1      56.970   0.682  34.174  0.00  0.00    -0.326 OA
ATOM     16  C   UNL d   1      57.790   0.656  34.267  0.00  0.00     0.181 C 
ENDBRANCH   3  15
BRANCH   4  17
ATOM     17  O   UNL d   1      55.421   0.046  34.238  0.00  0.00    -0.326 OA
ATOM     18  C   UNL d   1      54.631   0.280  34.215  0.00  0.00     0.181 C 
ENDBRANCH   4  17
TORSDOF 5
ENDMDL
MODEL 4
REMARK VINA RESULT:      -3.7      1.839      4.245
REMARK  5 active torsions:
REMARK  status: ('A' for Active; 'I' for Inactive)
REMARK    1  A    between atoms: C_2  and  S_1 
REMARK    2  A    between atoms: C_3  and  S_1 
REMARK    3  A    between atoms: C_5  and  C_3 
REMARK    4  A    between atoms: O_13  and  C_8 
REMARK    5  A    between atoms: O_14  and  C_10 
ROOT
ATOM      1  C   UNL d   1      57.662  -0.271  30.859  0.00  0.00     0.048 A 
ATOM      2  C   UNL d   1      58.279   0.234  30.664  0.00  0.00     0.030 A 
ATOM      3  C   UNL d   1      58.822   0.010  30.080  0.00  0.00     0.116 A 
ATOM      4  C   UNL d   1      58.745  -0.717  29.697  0.00  0.00     0.116 A 
ATOM      5  C   UNL d   1      57.577  -1.000  30.481  0.00  0.00     0.006 A 
ATOM      6  C   UNL d   1      58.117  -1.222  29.902  0.00  0.00     0.026 A 
ENDROOT
BRANCH   1   7
ATOM      7  C   UNL d   1      57.119  -0.047  31.442  0.00  0.00     0.227 C 
ATOM      8  O   UNL d   1      56.732   0.680  31.382  0.00  0.00    -0.279 OA
BRANCH   7   9
ATOM      9  S   UNL d   1      56.968  -0.551  32.078  0.00  0.00    -0.020 SA
BRANCH   9  10
ATOM     10  C   UNL d   1      56.450  -0.312  32.673  0.00  0.00     0.143 A 
ATOM     11  N   UNL d   1      55.641  -0.501  32.714  0.00  0.00    -0.230 NA
ATOM     12  C   UNL d   1      55.342  -0.147  33.400  0.00  0.00     0.107 A 
ATOM     13  C   UNL d   1      55.953   0.254  33.777  0.00  0.00     0.058 A 
ATOM     14  S   UNL d   1      56.631   0.149  33.327  0.00  0.00    -0.059 SA
ENDBRANCH   9  10
ENDBRANCH   7   9
ENDBRANCH   1   7
BRANCH   3  15
ATOM     15  O   UNL d   1      59.431   0.534  29.903  0.00  0.00    -0.326 OA
ATOM     16  C   UNL d   1      60.021   0.680  30.463  0.00  0.00     0.181 C 
ENDBRANCH   3  15
BRANCH   4  17
ATOM     17  O   UNL d   1      59.281  -0.940  29.121  0.00  0.00    -0.326 OA
ATOM     18  C   UNL d   1      59.233  -1.687  28.775  0.00  0.00     0.181 C 
ENDBRANCH   4  17
TORSDOF 5
ENDMDL
MODEL 5
REMARK VINA RESULT:      -1.6      1.504      2.286
REMARK  5 active torsions:
REMARK  status: ('A' for Active; 'I' for Inactive)
REMARK    1  A    between atoms: C_2  and  S_1 
REMARK    2  A    between atoms: C_3  and  S_1 
REMARK    3  A    between atoms: C_5  and  C_3 
REMARK    4  A    between atoms: O_13  and  C_8 
REMARK    5  A    between atoms: O_14  and  C_10 
ROOT
ATOM      1  C   UNL d   1      58.070  -0.289  30.638  0.00  0.00     0.048 A 
ATOM      2  C   UNL d   1      57.908   0.259  31.227  0.00  0.00     0.030 A 
ATOM      3  C   UNL d   1      57.352   0.077  31.813  0.00  0.00     0.116 A 
ATOM      4  C   UNL d   1      56.963  -0.650  31.806  0.00  0.00     0.116 A 
ATOM      5  C   UNL d   1      57.685  -1.019  30.623  0.00  0.00     0.006 A 
ATOM      6  C   UNL d   1      57.133  -1.199  31.205  0.00  0.00     0.026 A 
ENDROOT
BRANCH   1   7
ATOM      7  C   UNL d   1      58.626  -0.107  30.052  0.00  0.00     0.227 C 
ATOM      8  O   UNL d   1      58.897   0.668  29.973  0.00  0.00    -0.279 OA
BRANCH   7   9
ATOM      9  S   UNL d   1      58.903  -0.702  29.551  0.00  0.00    -0.020 SA
BRANCH   9  10
ATOM     10  C   UNL d   1      59.676  -0.668  29.269  0.00  0.00     0.143 A 
ATOM     11  N   UNL d   1      60.133   0.023  29.188  0.00  0.00    -0.230 NA
ATOM     12  C   UNL d   1      60.869  -0.203  28.887  0.00  0.00     0.107 A 
ATOM     13  C   UNL d   1      60.871  -1.019  28.782  0.00  0.00     0.058 A 
ATOM     14  S   UNL d   1      60.136  -1.300  29.018  0.00  0.00    -0.059 SA
ENDBRANCH   9  10
ENDBRANCH   7   9
ENDBRANCH   1   7
BRANCH   3  15
ATOM     15  O   UNL d   1      57.208   0.643  32.393  0.00  0.00    -0.326 OA
ATOM     16  C   UNL d   1      57.698   0.682  33.057  0.00  0.00     0.181 C 
ENDBRANCH   3  15
BRANCH   4  17
ATOM     17  O   UNL d   1      56.413  -0.831  32.385  0.00  0.00    -0.326 OA
ATOM     18  C   UNL d   1      55.927  -1.492  32.304  0.00  0.00     0.181 C 
ENDBRANCH   4  17
TORSDOF 5
ENDMDL
