MODEL 1
REMARK VINA RESULT:      -8.9      0.000      0.000
REMARK  3 active torsions:
REMARK  status: ('A' for Active; 'I' for Inactive)
REMARK    1  A    between atoms: C_6  and  C_1 
REMARK    2  A    between atoms: C_7  and  C_5 
REMARK    3  A    between atoms: C_15  and  C_14 
ROOT
ATOM      1  C   UNL d   1      52.972  34.832  54.093  0.00  0.00     0.169 A 
ATOM      2  C   UNL d   1      53.279  34.256  54.530  0.00  0.00     0.048 A 
ATOM      3  N   UNL d   1      52.646  33.932  53.141  0.00  0.00    -0.148 NA
ATOM      4  N   UNL d   1      52.651  34.670  53.389  0.00  0.00    -0.142 NA
ATOM      5  C   UNL d   1      52.955  33.350  53.578  0.00  0.00     0.105 A 
ENDROOT
BRANCH   5   6
ATOM      6  C   UNL d   1      53.037  32.543  53.483  0.00  0.00     0.019 A 
ATOM      7  C   UNL d   1      53.660  32.148  53.865  0.00  0.00     0.002 A 
ATOM      8  C   UNL d   1      53.747  31.341  53.773  0.00  0.00     0.000 A 
ATOM      9  C   UNL d   1      53.220  30.915  53.303  0.00  0.00     0.000 A 
ATOM     10  C   UNL d   1      52.596  31.311  52.921  0.00  0.00     0.000 A 
ATOM     11  C   UNL d   1      52.511  32.126  53.015  0.00  0.00     0.002 A 
BRANCH   9  12
ATOM     12  C   UNL d   1      53.310  30.078  53.208  0.00  0.00     0.000 C 
ATOM     13  C   UNL d   1      53.271  29.570  53.880  0.00  0.00     0.000 C 
ENDBRANCH   9  12
ENDBRANCH   5   6
BRANCH   1  14
ATOM     14  C   UNL d   1      52.986  35.566  54.361  0.00  0.00     0.231 C 
ATOM     15  O   UNL d   1      53.673  35.955  54.395  0.00  0.00    -0.643 OA
ATOM     16  O   UNL d   1      52.321  35.918  54.597  0.00  0.00    -0.643 OA
ENDBRANCH   1  14
TORSDOF 3
ENDMDL
MODEL 2
REMARK VINA RESULT:      -8.4      2.741      4.195
REMARK  3 active torsions:
REMARK  status: ('A' for Active; 'I' for Inactive)
REMARK    1  A    between atoms: C_6  and  C_1 
REMARK    2  A    between atoms: C_7  and  C_5 
REMARK    3  A    between atoms: C_15  and  C_14 
ROOT
ATOM      1  C   UNL d   1      52.907  30.269  53.372  0.00  0.00     0.169 A 
ATOM      2  C   UNL d   1      52.985  30.754  53.985  0.00  0.00     0.048 A 
ATOM      3  N   UNL d   1      52.780  31.333  52.550  0.00  0.00    -0.148 NA
ATOM      4  N   UNL d   1      52.803  30.560  52.645  0.00  0.00    -0.142 NA
ATOM      5  C   UNL d   1      52.859  31.823  53.164  0.00  0.00     0.105 A 
ENDROOT
BRANCH   5   6
ATOM      6  C   UNL d   1      52.861  32.635  53.252  0.00  0.00     0.019 A 
ATOM      7  C   UNL d   1      53.545  33.014  53.534  0.00  0.00     0.002 A 
ATOM      8  C   UNL d   1      53.553  33.826  53.624  0.00  0.00     0.000 A 
ATOM      9  C   UNL d   1      52.886  34.273  53.436  0.00  0.00     0.000 A 
ATOM     10  C   UNL d   1      52.201  33.894  53.154  0.00  0.00     0.000 A 
ATOM     11  C   UNL d   1      52.196  33.074  53.064  0.00  0.00     0.002 A 
BRANCH   9  12
ATOM     12  C   UNL d   1      52.894  35.115  53.530  0.00  0.00     0.000 C 
ATOM     13  C   UNL d   1      52.987  35.455  54.296  0.00  0.00     0.000 C 
ENDBRANCH   9  12
ENDBRANCH   5   6
BRANCH   1  14
ATOM     14  C   UNL d   1      52.932  29.497  53.490  0.00  0.00     0.231 C 
ATOM     15  O   UNL d   1      53.403  29.203  54.052  0.00  0.00    -0.643 OA
ATOM     16  O   UNL d   1      52.492  29.011  53.051  0.00  0.00    -0.643 OA
ENDBRANCH   1  14
TORSDOF 3
ENDMDL
MODEL 3
REMARK VINA RESULT:      -8.2      0.852      1.296
REMARK  3 active torsions:
REMARK  status: ('A' for Active; 'I' for Inactive)
REMARK    1  A    between atoms: C_6  and  C_1 
REMARK    2  A    between atoms: C_7  and  C_5 
REMARK    3  A    between atoms: C_15  and  C_14 
ROOT
ATOM      1  C   UNL d   1      52.482  34.016  53.340  0.00  0.00     0.169 A 
ATOM      2  C   UNL d   1      52.712  33.595  53.963  0.00  0.00     0.048 A 
ATOM      3  N   UNL d   1      52.517  32.902  52.578  0.00  0.00    -0.148 NA
ATOM      4  N   UNL d   1      52.383  33.667  52.638  0.00  0.00    -0.142 NA
ATOM      5  C   UNL d   1      52.748  32.476  53.201  0.00  0.00     0.105 A 
ENDROOT
BRANCH   5   6
ATOM      6  C   UNL d   1      52.929  31.689  53.322  0.00  0.00     0.019 A 
ATOM      7  C   UNL d   1      52.452  31.102  52.978  0.00  0.00     0.002 A 
ATOM      8  C   UNL d   1      52.629  30.313  53.095  0.00  0.00     0.000 A 
ATOM      9  C   UNL d   1      53.278  30.094  53.553  0.00  0.00     0.000 A 
ATOM     10  C   UNL d   1      53.756  30.682  53.898  0.00  0.00     0.000 A 
ATOM     11  C   UNL d   1      53.575  31.478  53.778  0.00  0.00     0.002 A 
BRANCH   9  12
ATOM     12  C   UNL d   1      53.462  29.276  53.675  0.00  0.00     0.000 C 
ATOM     13  C   UNL d   1      53.411  28.942  54.447  0.00  0.00     0.000 C 
ENDBRANCH   9  12
ENDBRANCH   5   6
BRANCH   1  14
ATOM     14  C   UNL d   1      52.353  34.782  53.423  0.00  0.00     0.231 C 
ATOM     15  O   UNL d   1      52.961  35.268  53.559  0.00  0.00    -0.643 OA
ATOM     16  O   UNL d   1      51.621  35.071  53.371  0.00  0.00    -0.643 OA
ENDBRANCH   1  14
TORSDOF 3
ENDMDL
MODEL 4
REMARK VINA RESULT:      -8.2      2.237      3.271
REMARK  3 active torsions:
REMARK  status: ('A' for Active; 'I' for Inactive)
REMARK    1  A    between atoms: C_6  and  C_1 
REMARK    2  A    between atoms: C_7  and  C_5 
REMARK    3  A    between atoms: C_15  and  C_14 
ROOT
ATOM      1  C   UNL d   1      54.112  33.794  54.849  0.00  0.00     0.169 A 
ATOM      2  C   UNL d   1      53.782  33.247  54.390  0.00  0.00     0.048 A 
ATOM      3  N   UNL d   1      53.187  34.690  54.442  0.00  0.00    -0.148 NA
ATOM      4  N   UNL d   1      53.812  34.524  54.877  0.00  0.00    -0.142 NA
ATOM      5  C   UNL d   1      52.853  34.143  53.980  0.00  0.00     0.105 A 
ENDROOT
BRANCH   5   6
ATOM      6  C   UNL d   1      52.213  34.135  53.472  0.00  0.00     0.019 A 
ATOM      7  C   UNL d   1      51.503  33.780  53.716  0.00  0.00     0.002 A 
ATOM      8  C   UNL d   1      50.859  33.769  53.212  0.00  0.00     0.000 A 
ATOM      9  C   UNL d   1      50.911  34.108  52.462  0.00  0.00     0.000 A 
ATOM     10  C   UNL d   1      51.622  34.463  52.218  0.00  0.00     0.000 A 
ATOM     11  C   UNL d   1      52.270  34.473  52.730  0.00  0.00     0.002 A 
BRANCH   9  12
ATOM     12  C   UNL d   1      50.244  34.097  51.940  0.00  0.00     0.000 C 
ATOM     13  C   UNL d   1      49.549  34.535  52.132  0.00  0.00     0.000 C 
ENDBRANCH   9  12
ENDBRANCH   5   6
BRANCH   1  14
ATOM     14  C   UNL d   1      54.739  33.607  55.277  0.00  0.00     0.231 C 
ATOM     15  O   UNL d   1      54.726  32.956  55.724  0.00  0.00    -0.643 OA
ATOM     16  O   UNL d   1      55.382  34.064  55.263  0.00  0.00    -0.643 OA
ENDBRANCH   1  14
TORSDOF 3
ENDMDL
MODEL 5
REMARK VINA RESULT:      -8.0      2.138      3.015
REMARK  3 active torsions:
REMARK  status: ('A' for Active; 'I' for Inactive)
REMARK    1  A    between atoms: C_6  and  C_1 
REMARK    2  A    between atoms: C_7  and  C_5 
REMARK    3  A    between atoms: C_15  and  C_14 
ROOT
ATOM      1  C   UNL d   1      50.660  34.300  52.672  0.00  0.00     0.169 A 
ATOM      2  C   UNL d   1      50.733  34.034  53.408  0.00  0.00     0.048 A 
ATOM      3  N   UNL d   1      52.003  34.283  52.536  0.00  0.00    -0.148 NA
ATOM      4  N   UNL d   1      51.302  34.427  52.229  0.00  0.00    -0.142 NA
ATOM      5  C   UNL d   1      52.080  34.016  53.275  0.00  0.00     0.105 A 
ENDROOT
BRANCH   5   6
ATOM      6  C   UNL d   1      52.715  33.816  53.749  0.00  0.00     0.019 A 
ATOM      7  C   UNL d   1      52.996  34.365  54.306  0.00  0.00     0.002 A 
ATOM      8  C   UNL d   1      53.631  34.171  54.783  0.00  0.00     0.000 A 
ATOM      9  C   UNL d   1      53.994  33.433  54.715  0.00  0.00     0.000 A 
ATOM     10  C   UNL d   1      53.712  32.884  54.158  0.00  0.00     0.000 A 
ATOM     11  C   UNL d   1      53.071  33.084  53.677  0.00  0.00     0.002 A 
BRANCH   9  12
ATOM     12  C   UNL d   1      54.652  33.232  55.210  0.00  0.00     0.000 C 
ATOM     13  C   UNL d   1      55.328  33.734  55.238  0.00  0.00     0.000 C 
ENDBRANCH   9  12
ENDBRANCH   5   6
BRANCH   1  14
ATOM     14  C   UNL d   1      49.946  34.437  52.383  0.00  0.00     0.231 C 
ATOM     15  O   UNL d   1      49.766  34.189  51.655  0.00  0.00    -0.643 OA
ATOM     16  O   UNL d   1      49.409  34.820  52.815  0.00  0.00    -0.643 OA
ENDBRANCH   1  14
TORSDOF 3
ENDMDL
MODEL 6
REMARK VINA RESULT:      -7.9      1.585      1.842
REMARK  3 active torsions:
REMARK  status: ('A' for Active; 'I' for Inactive)
REMARK    1  A    between atoms: C_6  and  C_1 
REMARK    2  A    between atoms: C_7  and  C_5 
REMARK    3  A    between atoms: C_15  and  C_14 
ROOT
ATOM      1  C   UNL d   1      54.576  33.482  54.739  0.00  0.00     0.169 A 
ATOM      2  C   UNL d   1      54.026  33.007  55.038  0.00  0.00     0.048 A 
ATOM      3  N   UNL d   1      54.604  32.737  53.614  0.00  0.00    -0.148 NA
ATOM      4  N   UNL d   1      54.870  33.347  54.018  0.00  0.00    -0.142 NA
ATOM      5  C   UNL d   1      54.050  32.258  53.911  0.00  0.00     0.105 A 
ENDROOT
BRANCH   5   6
ATOM      6  C   UNL d   1      53.664  31.591  53.640  0.00  0.00     0.019 A 
ATOM      7  C   UNL d   1      53.931  30.841  53.875  0.00  0.00     0.002 A 
ATOM      8  C   UNL d   1      53.548  30.170  53.608  0.00  0.00     0.000 A 
ATOM      9  C   UNL d   1      52.898  30.233  53.105  0.00  0.00     0.000 A 
ATOM     10  C   UNL d   1      52.631  30.985  52.869  0.00  0.00     0.000 A 
ATOM     11  C   UNL d   1      53.019  31.660  53.141  0.00  0.00     0.002 A 
BRANCH   9  12
ATOM     12  C   UNL d   1      52.501  29.538  52.827  0.00  0.00     0.000 C 
ATOM     13  C   UNL d   1      52.289  28.928  53.369  0.00  0.00     0.000 C 
ENDBRANCH   9  12
ENDBRANCH   5   6
BRANCH   1  14
ATOM     14  C   UNL d   1      54.829  34.089  55.162  0.00  0.00     0.231 C 
ATOM     15  O   UNL d   1      54.370  34.727  55.243  0.00  0.00    -0.643 OA
ATOM     16  O   UNL d   1      55.538  34.066  55.508  0.00  0.00    -0.643 OA
ENDBRANCH   1  14
TORSDOF 3
ENDMDL
