MODEL 1
REMARK VINA RESULT:     -11.3      0.000      0.000
REMARK  4 active torsions:
REMARK  status: ('A' for Active; 'I' for Inactive)
REMARK    1  A    between atoms: C_9  and  N_1 
REMARK    2  A    between atoms: C_6  and  C_2 
REMARK       I    between atoms: N_8  and  C_6 
REMARK    3  A    between atoms: C_15  and  N_8 
REMARK    4  A    between atoms: C_13  and  C_9 
ROOT
ATOM      1  N   UNL d   1      53.565  32.768  53.567  0.00  0.00    -0.258 N 
ATOM      2  C   UNL d   1      52.551  33.664  53.507  0.00  0.00     0.114 A 
ATOM      3  C   UNL d   1      52.897  33.015  53.237  0.00  0.00     0.270 A 
ATOM      4  C   UNL d   1      53.885  33.164  54.159  0.00  0.00     0.150 A 
ATOM      5  C   UNL d   1      52.869  34.064  54.100  0.00  0.00     0.013 A 
ATOM      6  C   UNL d   1      53.534  33.812  54.423  0.00  0.00     0.035 A 
ATOM      7  N   UNL d   1      54.541  32.917  54.479  0.00  0.00    -0.227 NA
ATOM      8  O   UNL d   1      52.434  32.863  52.736  0.00  0.00    -0.266 OA
ATOM      9  C   UNL d   1      53.850  34.215  55.018  0.00  0.00     0.005 A 
ATOM     10  C   UNL d   1      54.861  33.307  55.066  0.00  0.00     0.101 A 
ATOM     11  C   UNL d   1      54.516  33.956  55.336  0.00  0.00     0.021 A 
ENDROOT
BRANCH   2  12
ATOM     12  C   UNL d   1      51.883  33.916  53.181  0.00  0.00     0.284 C 
ATOM     13  N   UNL d   1      51.088  33.687  53.275  0.00  0.00    -0.208 NA
ATOM     14  O   UNL d   1      52.167  34.347  52.828  0.00  0.00    -0.265 OA
BRANCH  13  15
ATOM     15  C   UNL d   1      50.479  34.077  52.831  0.00  0.00     0.085 A 
ATOM     16  C   UNL d   1      50.367  33.904  52.027  0.00  0.00     0.019 A 
ATOM     17  C   UNL d   1      49.770  34.292  51.607  0.00  0.00     0.002 A 
ATOM     18  C   UNL d   1      49.289  34.845  51.984  0.00  0.00     0.000 A 
ATOM     19  C   UNL d   1      49.388  35.028  52.785  0.00  0.00     0.002 A 
ATOM     20  C   UNL d   1      49.992  34.636  53.210  0.00  0.00     0.019 A 
ENDBRANCH  13  15
ENDBRANCH   2  12
BRANCH   1  21
ATOM     21  C   UNL d   1      53.937  32.076  53.283  0.00  0.00     0.084 C 
BRANCH  21  22
ATOM     22  C   UNL d   1      53.645  31.507  53.353  0.00  0.00     0.018 A 
ATOM     23  C   UNL d   1      53.336  31.134  52.636  0.00  0.00     0.004 A 
ATOM     24  C   UNL d   1      52.935  30.367  52.683  0.00  0.00     0.030 A 
ATOM     25  C   UNL d   1      52.845  29.978  53.444  0.00  0.00     0.140 A 
ATOM     26  C   UNL d   1      53.148  30.340  54.163  0.00  0.00     0.030 A 
ATOM     27  F   UNL d   1      52.455  29.231  53.491  0.00  0.00    -0.204 F 
ATOM     28  C   UNL d   1      53.553  31.112  54.120  0.00  0.00     0.004 A 
ENDBRANCH  21  22
ENDBRANCH   1  21
TORSDOF 4
ENDMDL
MODEL 2
REMARK VINA RESULT:     -10.9      1.439      2.728
REMARK  4 active torsions:
REMARK  status: ('A' for Active; 'I' for Inactive)
REMARK    1  A    between atoms: C_9  and  N_1 
REMARK    2  A    between atoms: C_6  and  C_2 
REMARK       I    between atoms: N_8  and  C_6 
REMARK    3  A    between atoms: C_15  and  N_8 
REMARK    4  A    between atoms: C_13  and  C_9 
ROOT
ATOM      1  N   UNL d   1      53.499  32.064  53.317  0.00  0.00    -0.258 N 
ATOM      2  C   UNL d   1      52.199  32.363  53.077  0.00  0.00     0.114 A 
ATOM      3  C   UNL d   1      52.933  32.599  53.210  0.00  0.00     0.270 A 
ATOM      4  C   UNL d   1      53.332  31.302  53.291  0.00  0.00     0.150 A 
ATOM      5  C   UNL d   1      52.028  31.599  53.050  0.00  0.00     0.013 A 
ATOM      6  C   UNL d   1      52.595  31.073  53.157  0.00  0.00     0.035 A 
ATOM      7  N   UNL d   1      53.890  30.781  53.397  0.00  0.00    -0.227 NA
ATOM      8  O   UNL d   1      52.817  33.288  53.185  0.00  0.00    -0.266 OA
ATOM      9  C   UNL d   1      52.421  30.308  53.130  0.00  0.00     0.005 A 
ATOM     10  C   UNL d   1      53.729  30.024  53.371  0.00  0.00     0.101 A 
ATOM     11  C   UNL d   1      52.994  29.788  53.238  0.00  0.00     0.021 A 
ENDROOT
BRANCH   2  12
ATOM     12  C   UNL d   1      51.631  32.893  52.969  0.00  0.00     0.284 C 
ATOM     13  N   UNL d   1      51.574  33.571  52.489  0.00  0.00    -0.208 NA
ATOM     14  O   UNL d   1      51.240  32.620  53.374  0.00  0.00    -0.265 OA
BRANCH  13  15
ATOM     15  C   UNL d   1      50.868  34.041  52.499  0.00  0.00     0.085 A 
ATOM     16  C   UNL d   1      50.670  34.492  53.167  0.00  0.00     0.019 A 
ATOM     17  C   UNL d   1      49.979  34.945  53.161  0.00  0.00     0.002 A 
ATOM     18  C   UNL d   1      49.489  34.947  52.498  0.00  0.00     0.000 A 
ATOM     19  C   UNL d   1      49.672  34.502  51.825  0.00  0.00     0.002 A 
ATOM     20  C   UNL d   1      50.372  34.045  51.830  0.00  0.00     0.019 A 
ENDBRANCH  13  15
ENDBRANCH   2  12
BRANCH   1  21
ATOM     21  C   UNL d   1      54.283  32.312  53.460  0.00  0.00     0.084 C 
BRANCH  21  22
ATOM     22  C   UNL d   1      54.418  32.648  53.992  0.00  0.00     0.018 A 
ATOM     23  C   UNL d   1      54.909  33.354  53.895  0.00  0.00     0.004 A 
ATOM     24  C   UNL d   1      55.116  33.837  54.584  0.00  0.00     0.030 A 
ATOM     25  C   UNL d   1      54.833  33.613  55.363  0.00  0.00     0.140 A 
ATOM     26  C   UNL d   1      54.345  32.913  55.471  0.00  0.00     0.030 A 
ATOM     27  F   UNL d   1      55.035  34.083  56.036  0.00  0.00    -0.204 F 
ATOM     28  C   UNL d   1      54.133  32.423  54.780  0.00  0.00     0.004 A 
ENDBRANCH  21  22
ENDBRANCH   1  21
TORSDOF 4
ENDMDL
MODEL 3
REMARK VINA RESULT:     -10.4      1.505      3.851
REMARK  4 active torsions:
REMARK  status: ('A' for Active; 'I' for Inactive)
REMARK    1  A    between atoms: C_9  and  N_1 
REMARK    2  A    between atoms: C_6  and  C_2 
REMARK       I    between atoms: N_8  and  C_6 
REMARK    3  A    between atoms: C_15  and  N_8 
REMARK    4  A    between atoms: C_13  and  C_9 
ROOT
ATOM      1  N   UNL d   1      52.701  34.098  53.258  0.00  0.00    -0.258 N 
ATOM      2  C   UNL d   1      53.105  32.889  53.717  0.00  0.00     0.114 A 
ATOM      3  C   UNL d   1      52.755  33.320  53.165  0.00  0.00     0.270 A 
ATOM      4  C   UNL d   1      52.993  34.442  53.895  0.00  0.00     0.150 A 
ATOM      5  C   UNL d   1      53.399  33.231  54.357  0.00  0.00     0.013 A 
ATOM      6  C   UNL d   1      53.342  34.005  54.443  0.00  0.00     0.035 A 
ATOM      7  N   UNL d   1      52.938  35.206  53.982  0.00  0.00    -0.227 NA
ATOM      8  O   UNL d   1      52.592  32.800  52.728  0.00  0.00    -0.266 OA
ATOM      9  C   UNL d   1      53.638  34.344  55.086  0.00  0.00     0.005 A 
ATOM     10  C   UNL d   1      53.226  35.550  54.612  0.00  0.00     0.101 A 
ATOM     11  C   UNL d   1      53.576  35.119  55.164  0.00  0.00     0.021 A 
ENDROOT
BRANCH   2  12
ATOM     12  C   UNL d   1      53.162  32.112  53.629  0.00  0.00     0.284 C 
ATOM     13  N   UNL d   1      52.643  31.484  53.803  0.00  0.00    -0.208 NA
ATOM     14  O   UNL d   1      53.735  32.138  53.382  0.00  0.00    -0.265 OA
BRANCH  13  15
ATOM     15  C   UNL d   1      52.873  30.684  53.638  0.00  0.00     0.085 A 
ATOM     16  C   UNL d   1      52.729  30.350  52.892  0.00  0.00     0.019 A 
ATOM     17  C   UNL d   1      52.958  29.570  52.745  0.00  0.00     0.002 A 
ATOM     18  C   UNL d   1      53.327  29.127  53.335  0.00  0.00     0.000 A 
ATOM     19  C   UNL d   1      53.477  29.446  54.084  0.00  0.00     0.002 A 
ATOM     20  C   UNL d   1      53.245  30.235  54.232  0.00  0.00     0.019 A 
ENDBRANCH  13  15
ENDBRANCH   2  12
BRANCH   1  21
ATOM     21  C   UNL d   1      52.328  34.561  52.671  0.00  0.00     0.084 C 
BRANCH  21  22
ATOM     22  C   UNL d   1      51.701  34.479  52.553  0.00  0.00     0.018 A 
ATOM     23  C   UNL d   1      51.480  34.268  51.744  0.00  0.00     0.004 A 
ATOM     24  C   UNL d   1      50.647  34.147  51.538  0.00  0.00     0.030 A 
ATOM     25  C   UNL d   1      50.041  34.238  52.141  0.00  0.00     0.140 A 
ATOM     26  C   UNL d   1      50.249  34.447  52.948  0.00  0.00     0.030 A 
ATOM     27  F   UNL d   1      49.228  34.120  51.941  0.00  0.00    -0.204 F 
ATOM     28  C   UNL d   1      51.087  34.570  53.160  0.00  0.00     0.004 A 
ENDBRANCH  21  22
ENDBRANCH   1  21
TORSDOF 4
ENDMDL
MODEL 4
REMARK VINA RESULT:      -8.8      1.644      4.126
REMARK  4 active torsions:
REMARK  status: ('A' for Active; 'I' for Inactive)
REMARK    1  A    between atoms: C_9  and  N_1 
REMARK    2  A    between atoms: C_6  and  C_2 
REMARK       I    between atoms: N_8  and  C_6 
REMARK    3  A    between atoms: C_15  and  N_8 
REMARK    4  A    between atoms: C_13  and  C_9 
ROOT
ATOM      1  N   UNL d   1      53.130  33.445  53.282  0.00  0.00    -0.258 N 
ATOM      2  C   UNL d   1      52.646  32.180  53.232  0.00  0.00     0.114 A 
ATOM      3  C   UNL d   1      53.243  32.671  53.357  0.00  0.00     0.270 A 
ATOM      4  C   UNL d   1      52.428  33.725  53.086  0.00  0.00     0.150 A 
ATOM      5  C   UNL d   1      51.941  32.458  53.035  0.00  0.00     0.013 A 
ATOM      6  C   UNL d   1      51.835  33.228  52.963  0.00  0.00     0.035 A 
ATOM      7  N   UNL d   1      52.321  34.485  53.014  0.00  0.00    -0.227 NA
ATOM      8  O   UNL d   1      53.729  32.193  53.509  0.00  0.00    -0.266 OA
ATOM      9  C   UNL d   1      51.127  33.503  52.765  0.00  0.00     0.005 A 
ATOM     10  C   UNL d   1      51.627  34.766  52.820  0.00  0.00     0.101 A 
ATOM     11  C   UNL d   1      51.030  34.275  52.695  0.00  0.00     0.021 A 
ENDROOT
BRANCH   2  12
ATOM     12  C   UNL d   1      52.754  31.406  53.305  0.00  0.00     0.284 C 
ATOM     13  N   UNL d   1      52.682  30.884  53.950  0.00  0.00    -0.208 NA
ATOM     14  O   UNL d   1      52.912  31.328  52.705  0.00  0.00    -0.265 OA
BRANCH  13  15
ATOM     15  C   UNL d   1      52.842  30.057  53.846  0.00  0.00     0.085 A 
ATOM     16  C   UNL d   1      52.482  29.633  53.230  0.00  0.00     0.019 A 
ATOM     17  C   UNL d   1      52.647  28.828  53.141  0.00  0.00     0.002 A 
ATOM     18  C   UNL d   1      53.163  28.450  53.661  0.00  0.00     0.000 A 
ATOM     19  C   UNL d   1      53.529  28.859  54.280  0.00  0.00     0.002 A 
ATOM     20  C   UNL d   1      53.362  29.673  54.370  0.00  0.00     0.019 A 
ENDBRANCH  13  15
ENDBRANCH   2  12
BRANCH   1  21
ATOM     21  C   UNL d   1      53.764  33.971  53.414  0.00  0.00     0.084 C 
BRANCH  21  22
ATOM     22  C   UNL d   1      54.083  33.950  53.973  0.00  0.00     0.018 A 
ATOM     23  C   UNL d   1      54.907  33.689  53.942  0.00  0.00     0.004 A 
ATOM     24  C   UNL d   1      55.377  33.645  54.669  0.00  0.00     0.030 A 
ATOM     25  C   UNL d   1      55.021  33.860  55.421  0.00  0.00     0.140 A 
ATOM     26  C   UNL d   1      54.202  34.121  55.463  0.00  0.00     0.030 A 
ATOM     27  F   UNL d   1      55.478  33.817  56.130  0.00  0.00    -0.204 F 
ATOM     28  C   UNL d   1      53.726  34.167  54.733  0.00  0.00     0.004 A 
ENDBRANCH  21  22
ENDBRANCH   1  21
TORSDOF 4
ENDMDL
