MODEL 1
REMARK VINA RESULT:      22.3      0.000      0.000
REMARK  3 active torsions:
REMARK  status: ('A' for Active; 'I' for Inactive)
REMARK    1  A    between atoms: C_4  and  C_1 
REMARK    2  A    between atoms: C_7  and  C_4 
REMARK    3  A    between atoms: C_10  and  C_7 
ROOT
ATOM      1  C   UNL d   1      14.180  13.137  -1.053  0.00  0.00     0.062 A 
ATOM      2  C   UNL d   1      14.495  12.578  -0.536  0.00  0.00     0.279 A 
ATOM      3  N   UNL d   1      15.052  12.955  -0.062  0.00  0.00    -0.208 NA
ATOM      4  C   UNL d   1      14.543  13.857  -0.897  0.00  0.00     0.022 A 
ATOM      5  C   UNL d   1      15.080  13.748  -0.288  0.00  0.00     0.085 A 
ATOM      6  O   UNL d   1      14.291  11.780  -0.497  0.00  0.00    -0.265 OA
ATOM      7  C   UNL d   1      14.447  14.603  -1.241  0.00  0.00     0.002 A 
ATOM      8  C   UNL d   1      15.529  14.391  -0.015  0.00  0.00     0.019 A 
ATOM      9  C   UNL d   1      14.895  15.244  -0.968  0.00  0.00     0.000 A 
ATOM     10  C   UNL d   1      15.435  15.130  -0.355  0.00  0.00     0.002 A 
ENDROOT
BRANCH   1  11
ATOM     11  C   UNL d   1      13.604  12.997  -1.624  0.00  0.00     0.047 C 
BRANCH  11  12
ATOM     12  C   UNL d   1      13.951  12.547  -2.226  0.00  0.00     0.196 C 
ATOM     13  O   UNL d   1      14.653  12.146  -2.086  0.00  0.00    -0.287 OA
BRANCH  12  14
ATOM     14  C   UNL d   1      13.587  12.506  -2.965  0.00  0.00     0.039 A 
ATOM     15  C   UNL d   1      13.610  13.154  -3.475  0.00  0.00     0.003 A 
ATOM     16  C   UNL d   1      13.250  13.119  -4.210  0.00  0.00     0.000 A 
ATOM     17  C   UNL d   1      12.858  12.428  -4.447  0.00  0.00     0.000 A 
ATOM     18  C   UNL d   1      12.835  11.780  -3.938  0.00  0.00     0.000 A 
ATOM     19  C   UNL d   1      13.196  11.814  -3.199  0.00  0.00     0.003 A 
ENDBRANCH  12  14
ENDBRANCH  11  12
ENDBRANCH   1  11
TORSDOF 3
ENDMDL
MODEL 2
REMARK VINA RESULT:      23.8      2.001      3.393
REMARK  3 active torsions:
REMARK  status: ('A' for Active; 'I' for Inactive)
REMARK    1  A    between atoms: C_4  and  C_1 
REMARK    2  A    between atoms: C_7  and  C_4 
REMARK    3  A    between atoms: C_10  and  C_7 
ROOT
ATOM      1  C   UNL d   1      13.768  13.008  -3.461  0.00  0.00     0.062 A 
ATOM      2  C   UNL d   1      13.225  12.595  -3.926  0.00  0.00     0.279 A 
ATOM      3  N   UNL d   1      12.817  13.142  -4.386  0.00  0.00    -0.208 NA
ATOM      4  C   UNL d   1      13.692  13.807  -3.636  0.00  0.00     0.022 A 
ATOM      5  C   UNL d   1      13.108  13.893  -4.204  0.00  0.00     0.085 A 
ATOM      6  O   UNL d   1      13.110  11.779  -3.932  0.00  0.00    -0.265 OA
ATOM      7  C   UNL d   1      14.089  14.470  -3.341  0.00  0.00     0.002 A 
ATOM      8  C   UNL d   1      12.915  14.650  -4.485  0.00  0.00     0.019 A 
ATOM      9  C   UNL d   1      13.896  15.225  -3.622  0.00  0.00     0.000 A 
ATOM     10  C   UNL d   1      13.308  15.307  -4.194  0.00  0.00     0.002 A 
ENDROOT
BRANCH   1  11
ATOM     11  C   UNL d   1      14.291  12.676  -2.920  0.00  0.00     0.047 C 
BRANCH  11  12
ATOM     12  C   UNL d   1      13.857  12.169  -2.430  0.00  0.00     0.196 C 
ATOM     13  O   UNL d   1      13.182  11.799  -2.715  0.00  0.00    -0.287 OA
BRANCH  12  14
ATOM     14  C   UNL d   1      14.107  12.040  -1.655  0.00  0.00     0.039 A 
ATOM     15  C   UNL d   1      13.553  11.930  -1.053  0.00  0.00     0.003 A 
ATOM     16  C   UNL d   1      13.795  11.801  -0.281  0.00  0.00     0.000 A 
ATOM     17  C   UNL d   1      14.603  11.779  -0.099  0.00  0.00     0.000 A 
ATOM     18  C   UNL d   1      15.158  11.889  -0.699  0.00  0.00     0.000 A 
ATOM     19  C   UNL d   1      14.915  12.019  -1.475  0.00  0.00     0.003 A 
ENDBRANCH  12  14
ENDBRANCH  11  12
ENDBRANCH   1  11
TORSDOF 3
ENDMDL
