MODEL 1
REMARK VINA RESULT:       3.1      0.000      0.000
REMARK  8 active torsions:
REMARK  status: ('A' for Active; 'I' for Inactive)
REMARK    1  A    between atoms: N_6  and  S_1 
REMARK    2  A    between atoms: C_18  and  S_1 
REMARK    3  A    between atoms: N_2  and  C_4 
REMARK    4  A    between atoms: C_7  and  N_3 
REMARK    5  A    between atoms: C_4  and  C_5 
REMARK    6  A    between atoms: C_10  and  C_4 
REMARK    7  A    between atoms: C_5  and  N_6 
REMARK    8  A    between atoms: O_23  and  C_19 
ROOT
ATOM      1  N   UNL d   1     -42.189-122.922 -51.069  0.00  0.00    -0.300 N 
ATOM      2  N   UNL d   1     -41.834-122.656 -52.654  0.00  0.00    -0.301 N 
ATOM      3  C   UNL d   1     -42.213-122.160 -51.372  0.00  0.00     0.100 A 
ATOM      4  C   UNL d   1     -41.988-123.554 -51.557  0.00  0.00     0.100 A 
ATOM      5  C   UNL d   1     -41.810-123.422 -52.349  0.00  0.00     0.100 A 
ATOM      6  C   UNL d   1     -42.035-122.025 -52.166  0.00  0.00     0.100 A 
ENDROOT
BRANCH   1   7
ATOM      7  C   UNL d   1     -42.369-123.053 -50.266  0.00  0.00     0.086 C 
BRANCH   7   8
ATOM      8  C   UNL d   1     -41.758-123.155 -49.721  0.00  0.00     0.130 C 
BRANCH   8   9
ATOM      9  N   UNL d   1     -41.733-122.688 -49.034  0.00  0.00    -0.155 NA
BRANCH   9  10
ATOM     10  S   UNL d   1     -41.464-123.010 -48.327  0.00  0.00     0.286 S 
ATOM     11  O   UNL d   1     -41.776-122.360 -47.918  0.00  0.00    -0.198 OA
ATOM     12  O   UNL d   1     -41.156-123.656 -48.740  0.00  0.00    -0.198 OA
BRANCH  10  13
ATOM     13  C   UNL d   1     -41.194-123.335 -47.620  0.00  0.00     0.117 C 
ATOM     14  C   UNL d   1     -41.215-122.885 -46.920  0.00  0.00     0.014 C 
ENDBRANCH  10  13
ENDBRANCH   9  10
ENDBRANCH   8   9
ENDBRANCH   7   8
BRANCH   7  15
ATOM     15  C   UNL d   1     -43.152-123.081 -50.016  0.00  0.00     0.037 A 
ATOM     16  C   UNL d   1     -43.462-123.782 -49.713  0.00  0.00     0.100 A 
ATOM     17  N   UNL d   1     -44.251-123.810 -49.461  0.00  0.00    -0.242 NA
ATOM     18  C   UNL d   1     -44.723-123.136 -49.514  0.00  0.00     0.099 A 
ATOM     19  C   UNL d   1     -44.412-122.438 -49.815  0.00  0.00     0.021 A 
ATOM     20  C   UNL d   1     -43.624-122.410 -50.067  0.00  0.00     0.005 A 
ENDBRANCH   7  15
ENDBRANCH   1   7
BRANCH   2  21
ATOM     21  C   UNL d   1     -41.657-122.525 -53.445  0.00  0.00     0.064 A 
ATOM     22  C   UNL d   1     -41.348-123.136 -53.908  0.00  0.00     0.020 A 
ATOM     23  C   UNL d   1     -41.171-123.004 -54.700  0.00  0.00     0.026 A 
ATOM     24  C   UNL d   1     -41.302-122.259 -55.036  0.00  0.00     0.094 A 
ATOM     25  C   UNL d   1     -41.611-121.647 -54.573  0.00  0.00     0.026 A 
ATOM     26  C   UNL d   1     -41.788-121.778 -53.783  0.00  0.00     0.020 A 
BRANCH  24  27
ATOM     27  O   UNL d   1     -41.124-122.119 -55.838  0.00  0.00    -0.328 OA
ATOM     28  C   UNL d   1     -41.531-121.534 -56.268  0.00  0.00     0.181 C 
ENDBRANCH  24  27
ENDBRANCH   2  21
TORSDOF 8
ENDMDL
