MODEL 1
REMARK VINA RESULT:      26.2      0.000      0.000
REMARK  3 active torsions:
REMARK  status: ('A' for Active; 'I' for Inactive)
REMARK    1  A    between atoms: C_12  and  C_4 
REMARK    2  A    between atoms: S_8  and  C_12 
REMARK    3  A    between atoms: C_11  and  S_8 
ROOT
ATOM      1  N   UNL d   1     -58.409 -98.766 -44.370  0.00  0.00    -0.289 N 
ATOM      2  C   UNL d   1     -58.436 -98.759 -45.215  0.00  0.00     0.148 A 
ATOM      3  N   UNL d   1     -57.643 -98.756 -45.499  0.00  0.00    -0.226 NA
ATOM      4  C   UNL d   1     -57.166 -98.761 -44.829  0.00  0.00     0.107 A 
ATOM      5  C   UNL d   1     -57.599 -98.766 -44.166  0.00  0.00     0.101 A 
ATOM      6  C   UNL d   1     -59.106 -98.769 -43.954  0.00  0.00     0.066 A 
ATOM      7  C   UNL d   1     -59.161 -98.757 -45.610  0.00  0.00     0.037 A 
ATOM      8  C   UNL d   1     -59.863 -98.761 -45.168  0.00  0.00     0.005 A 
ATOM      9  C   UNL d   1     -59.836 -98.767 -44.357  0.00  0.00     0.018 A 
ATOM     10  C   UNL d   1     -59.078 -98.776 -43.113  0.00  0.00     0.019 C 
ENDROOT
BRANCH   4  11
ATOM     11  C   UNL d   1     -56.326 -98.760 -44.893  0.00  0.00     0.056 C 
BRANCH  11  12
ATOM     12  S   UNL d   1     -55.901 -99.041 -44.247  0.00  0.00    -0.083 SA
BRANCH  12  13
ATOM     13  C   UNL d   1     -55.496 -99.782 -44.305  0.00  0.00     0.049 A 
ATOM     14  C   UNL d   1     -55.106-100.089 -43.651  0.00  0.00     0.109 A 
ATOM     15  N   UNL d   1     -55.108 -99.654 -42.904  0.00  0.00    -0.148 N 
ATOM     16  C   UNL d   1     -54.711-100.810 -43.707  0.00  0.00     0.021 A 
ATOM     17  C   UNL d   1     -54.712-101.217 -44.417  0.00  0.00     0.002 A 
ATOM     18  C   UNL d   1     -55.081-100.933 -45.043  0.00  0.00     0.001 A 
ATOM     19  C   UNL d   1     -55.495-100.195 -45.020  0.00  0.00     0.008 A 
ENDBRANCH  12  13
ENDBRANCH  11  12
ENDBRANCH   4  11
TORSDOF 3
ENDMDL
MODEL 2
REMARK VINA RESULT:      27.6      0.471      1.096
REMARK  3 active torsions:
REMARK  status: ('A' for Active; 'I' for Inactive)
REMARK    1  A    between atoms: C_12  and  C_4 
REMARK    2  A    between atoms: S_8  and  C_12 
REMARK    3  A    between atoms: C_11  and  S_8 
ROOT
ATOM      1  N   UNL d   1     -58.234 -98.783 -44.738  0.00  0.00    -0.289 N 
ATOM      2  C   UNL d   1     -57.963 -98.802 -43.937  0.00  0.00     0.148 A 
ATOM      3  N   UNL d   1     -57.121 -98.804 -43.950  0.00  0.00    -0.226 NA
ATOM      4  C   UNL d   1     -56.910 -98.787 -44.745  0.00  0.00     0.107 A 
ATOM      5  C   UNL d   1     -57.548 -98.775 -45.213  0.00  0.00     0.101 A 
ATOM      6  C   UNL d   1     -59.033 -98.778 -44.881  0.00  0.00     0.066 A 
ATOM      7  C   UNL d   1     -58.502 -98.814 -43.312  0.00  0.00     0.037 A 
ATOM      8  C   UNL d   1     -59.315 -98.808 -43.479  0.00  0.00     0.005 A 
ATOM      9  C   UNL d   1     -59.575 -98.790 -44.247  0.00  0.00     0.018 A 
ATOM     10  C   UNL d   1     -59.303 -98.759 -45.678  0.00  0.00     0.019 C 
ENDROOT
BRANCH   4  11
ATOM     11  C   UNL d   1     -56.101 -98.784 -44.981  0.00  0.00     0.056 C 
BRANCH  11  12
ATOM     12  S   UNL d   1     -55.542 -98.968 -44.405  0.00  0.00    -0.083 SA
BRANCH  12  13
ATOM     13  C   UNL d   1     -55.263 -99.764 -44.333  0.00  0.00     0.049 A 
ATOM     14  C   UNL d   1     -54.985-100.037 -43.611  0.00  0.00     0.109 A 
ATOM     15  N   UNL d   1     -54.976 -99.512 -42.925  0.00  0.00    -0.148 N 
ATOM     16  C   UNL d   1     -54.713-100.812 -43.541  0.00  0.00     0.021 A 
ATOM     17  C   UNL d   1     -54.724-101.305 -44.194  0.00  0.00     0.002 A 
ATOM     18  C   UNL d   1     -54.987-101.053 -44.884  0.00  0.00     0.001 A 
ATOM     19  C   UNL d   1     -55.273-100.263 -44.990  0.00  0.00     0.008 A 
ENDBRANCH  12  13
ENDBRANCH  11  12
ENDBRANCH   4  11
TORSDOF 3
ENDMDL
