MODEL 1
REMARK VINA RESULT:      17.3      0.000      0.000
REMARK  5 active torsions:
REMARK  status: ('A' for Active; 'I' for Inactive)
REMARK    1  A    between atoms: N_2  and  S_1 
REMARK    2  A    between atoms: C_5  and  S_1 
REMARK    3  A    between atoms: C_4  and  C_3 
REMARK       I    between atoms: N_6  and  C_4 
REMARK    4  A    between atoms: C_12  and  N_6 
REMARK    5  A    between atoms: O_23  and  C_15 
ROOT
ATOM      1  N   UNL d   1     -42.085-122.492 -54.349  0.00  0.00    -0.226 N 
ATOM      2  C   UNL d   1     -42.014-123.082 -53.773  0.00  0.00     0.133 A 
ATOM      3  C   UNL d   1     -42.303-122.848 -55.058  0.00  0.00     0.092 A 
ATOM      4  C   UNL d   1     -42.191-123.804 -54.138  0.00  0.00     0.025 A 
ATOM      5  C   UNL d   1     -42.368-123.655 -54.929  0.00  0.00     0.021 A 
ENDROOT
BRANCH   2   6
ATOM      6  C   UNL d   1     -41.806-122.966 -52.986  0.00  0.00     0.296 C 
ATOM      7  N   UNL d   1     -42.293-123.275 -52.391  0.00  0.00    -0.207 NA
ATOM      8  O   UNL d   1     -41.123-122.551 -52.790  0.00  0.00    -0.264 OA
BRANCH   7   9
ATOM      9  C   UNL d   1     -42.085-123.159 -51.596  0.00  0.00     0.085 A 
ATOM     10  C   UNL d   1     -42.085-123.801 -51.072  0.00  0.00     0.021 A 
ATOM     11  C   UNL d   1     -41.875-123.681 -50.280  0.00  0.00     0.026 A 
ATOM     12  C   UNL d   1     -41.670-122.929 -50.018  0.00  0.00     0.094 A 
ATOM     13  C   UNL d   1     -41.671-122.288 -50.545  0.00  0.00     0.026 A 
ATOM     14  C   UNL d   1     -41.879-122.406 -51.334  0.00  0.00     0.021 A 
BRANCH  12  15
ATOM     15  O   UNL d   1     -41.461-122.805 -49.228  0.00  0.00    -0.328 OA
ATOM     16  C   UNL d   1     -42.041-122.869 -48.641  0.00  0.00     0.181 C 
ENDBRANCH  12  15
ENDBRANCH   7   9
ENDBRANCH   2   6
BRANCH   1  17
ATOM     17  S   UNL d   1     -41.947-121.696 -54.174  0.00  0.00     0.271 S 
ATOM     18  O   UNL d   1     -42.754-121.633 -54.073  0.00  0.00    -0.200 OA
ATOM     19  O   UNL d   1     -41.123-121.772 -54.280  0.00  0.00    -0.200 OA
BRANCH  17  20
ATOM     20  C   UNL d   1     -41.849-120.901 -53.995  0.00  0.00     0.104 A 
ATOM     21  C   UNL d   1     -42.228-120.323 -54.447  0.00  0.00     0.013 A 
ATOM     22  C   UNL d   1     -42.125-119.526 -54.261  0.00  0.00     0.001 A 
ATOM     23  C   UNL d   1     -41.644-119.306 -53.624  0.00  0.00     0.000 A 
ATOM     24  C   UNL d   1     -41.262-119.888 -53.169  0.00  0.00     0.001 A 
ATOM     25  C   UNL d   1     -41.538-118.510 -53.434  0.00  0.00     0.000 C 
ATOM     26  C   UNL d   1     -41.368-120.684 -53.359  0.00  0.00     0.013 A 
ENDBRANCH  17  20
ENDBRANCH   1  17
TORSDOF 5
ENDMDL
