MODEL 1
REMARK VINA RESULT:      54.6      0.000      0.000
REMARK  5 active torsions:
REMARK  status: ('A' for Active; 'I' for Inactive)
REMARK    1  A    between atoms: C_2  and  S_1 
REMARK    2  A    between atoms: N_3  and  S_1 
REMARK    3  A    between atoms: C_5  and  C_6 
REMARK       I    between atoms: N_10  and  C_5 
REMARK    4  A    between atoms: C_22  and  N_10 
REMARK    5  A    between atoms: C_21  and  C_22 
ROOT
ATOM      1  C   UNL d   1      15.058  14.479  -1.177  0.00  0.00     0.104 A 
ATOM      2  C   UNL d   1      14.657  13.934  -1.649  0.00  0.00     0.018 A 
ATOM      3  C   UNL d   1      14.644  13.136  -1.436  0.00  0.00     0.059 A 
ATOM      4  C   UNL d   1      15.446  14.227  -0.492  0.00  0.00     0.012 A 
ATOM      5  C   UNL d   1      15.030  12.885  -0.753  0.00  0.00     0.005 A 
ATOM      6  C   UNL d   1      15.435  13.435  -0.277  0.00  0.00     0.001 A 
ATOM      7  C   UNL d   1      15.849  14.765  -0.015  0.00  0.00     0.001 C 
ENDROOT
BRANCH   3   8
ATOM      8  C   UNL d   1      14.241  12.588  -1.910  0.00  0.00     0.279 C 
ATOM      9  N   UNL d   1      13.547  12.806  -2.295  0.00  0.00    -0.206 NA
ATOM     10  O   UNL d   1      14.540  11.817  -1.995  0.00  0.00    -0.265 OA
BRANCH   9  11
ATOM     11  C   UNL d   1      13.148  12.250  -2.769  0.00  0.00     0.102 C 
BRANCH  11  12
ATOM     12  C   UNL d   1      13.072  12.391  -3.590  0.00  0.00     0.021 A 
ATOM     13  C   UNL d   1      13.225  13.150  -3.897  0.00  0.00     0.028 A 
ATOM     14  C   UNL d   1      13.151  13.291  -4.705  0.00  0.00     0.119 A 
ATOM     15  O   UNL d   1      13.262  13.966  -5.162  0.00  0.00    -0.300 OA
ATOM     16  C   UNL d   1      12.927  12.679  -5.209  0.00  0.00     0.119 A 
ATOM     17  C   UNL d   1      13.105  13.771  -5.948  0.00  0.00     0.304 A 
ATOM     18  O   UNL d   1      12.898  12.980  -5.984  0.00  0.00    -0.300 OA
ATOM     19  C   UNL d   1      12.775  11.920  -4.902  0.00  0.00     0.026 A 
ATOM     20  C   UNL d   1      12.848  11.780  -4.094  0.00  0.00     0.004 A 
ENDBRANCH  11  12
ENDBRANCH   9  11
ENDBRANCH   3   8
BRANCH   1  21
ATOM     21  S   UNL d   1      15.076  15.290  -1.386  0.00  0.00     0.271 S 
ATOM     22  O   UNL d   1      15.040  15.490  -0.575  0.00  0.00    -0.200 OA
ATOM     23  O   UNL d   1      15.112  15.082  -2.187  0.00  0.00    -0.200 OA
BRANCH  21  24
ATOM     24  N   UNL d   1      15.094  16.095  -1.592  0.00  0.00    -0.229 N 
ATOM     25  C   UNL d   1      14.942  16.326  -2.379  0.00  0.00     0.092 A 
ATOM     26  C   UNL d   1      14.959  17.125  -2.584  0.00  0.00     0.020 A 
ATOM     27  C   UNL d   1      15.128  17.696  -2.013  0.00  0.00     0.003 A 
ATOM     28  C   UNL d   1      15.280  17.464  -1.231  0.00  0.00     0.020 A 
ATOM     29  C   UNL d   1      15.263  16.668  -1.023  0.00  0.00     0.092 A 
ENDBRANCH  21  24
ENDBRANCH   1  21
TORSDOF 5
ENDMDL
MODEL 2
REMARK VINA RESULT:      57.6      3.424      5.947
REMARK  5 active torsions:
REMARK  status: ('A' for Active; 'I' for Inactive)
REMARK    1  A    between atoms: C_2  and  S_1 
REMARK    2  A    between atoms: N_3  and  S_1 
REMARK    3  A    between atoms: C_5  and  C_6 
REMARK       I    between atoms: N_10  and  C_5 
REMARK    4  A    between atoms: C_22  and  N_10 
REMARK    5  A    between atoms: C_21  and  C_22 
ROOT
ATOM      1  C   UNL d   1      13.817  14.950  -4.394  0.00  0.00     0.104 A 
ATOM      2  C   UNL d   1      13.711  15.451  -5.041  0.00  0.00     0.018 A 
ATOM      3  C   UNL d   1      13.970  16.235  -5.002  0.00  0.00     0.059 A 
ATOM      4  C   UNL d   1      14.183  15.232  -3.709  0.00  0.00     0.012 A 
ATOM      5  C   UNL d   1      14.335  16.515  -4.319  0.00  0.00     0.005 A 
ATOM      6  C   UNL d   1      14.442  16.009  -3.666  0.00  0.00     0.001 A 
ATOM      7  C   UNL d   1      14.294  14.738  -3.057  0.00  0.00     0.001 C 
ENDROOT
BRANCH   3   8
ATOM      8  C   UNL d   1      13.863  16.738  -5.652  0.00  0.00     0.279 C 
ATOM      9  N   UNL d   1      14.149  17.510  -5.628  0.00  0.00    -0.206 NA
ATOM     10  O   UNL d   1      13.466  16.462  -6.327  0.00  0.00    -0.265 OA
BRANCH   9  11
ATOM     11  C   UNL d   1      14.037  18.010  -6.285  0.00  0.00     0.102 C 
BRANCH  11  12
ATOM     12  C   UNL d   1      14.078  18.839  -6.180  0.00  0.00     0.021 A 
ATOM     13  C   UNL d   1      14.803  19.197  -5.979  0.00  0.00     0.028 A 
ATOM     14  C   UNL d   1      14.846  20.012  -5.876  0.00  0.00     0.119 A 
ATOM     15  O   UNL d   1      15.468  20.515  -5.681  0.00  0.00    -0.300 OA
ATOM     16  C   UNL d   1      14.170  20.474  -5.972  0.00  0.00     0.119 A 
ATOM     17  C   UNL d   1      15.176  21.286  -5.657  0.00  0.00     0.304 A 
ATOM     18  O   UNL d   1      14.377  21.267  -5.836  0.00  0.00    -0.300 OA
ATOM     19  C   UNL d   1      13.446  20.116  -6.174  0.00  0.00     0.026 A 
ATOM     20  C   UNL d   1      13.404  19.300  -6.277  0.00  0.00     0.004 A 
ENDBRANCH  11  12
ENDBRANCH   9  11
ENDBRANCH   3   8
BRANCH   1  21
ATOM     21  S   UNL d   1      13.557  14.155  -4.425  0.00  0.00     0.271 S 
ATOM     22  O   UNL d   1      14.354  13.903  -4.394  0.00  0.00    -0.200 OA
ATOM     23  O   UNL d   1      12.771  14.414  -4.456  0.00  0.00    -0.200 OA
BRANCH  21  24
ATOM     24  N   UNL d   1      13.300  13.365  -4.456  0.00  0.00    -0.229 N 
ATOM     25  C   UNL d   1      13.027  12.989  -3.763  0.00  0.00     0.092 A 
ATOM     26  C   UNL d   1      12.771  12.205  -3.792  0.00  0.00     0.020 A 
ATOM     27  C   UNL d   1      12.787  11.792  -4.506  0.00  0.00     0.003 A 
ATOM     28  C   UNL d   1      13.059  12.167  -5.194  0.00  0.00     0.020 A 
ATOM     29  C   UNL d   1      13.314  12.949  -5.168  0.00  0.00     0.092 A 
ENDBRANCH  21  24
ENDBRANCH   1  21
TORSDOF 5
ENDMDL
