MODEL 1
REMARK VINA RESULT:      52.9      0.000      0.000
REMARK  5 active torsions:
REMARK  status: ('A' for Active; 'I' for Inactive)
REMARK    1  A    between atoms: C_3  and  C_1 
REMARK    2  A    between atoms: N_2  and  C_7 
REMARK       I    between atoms: N_4  and  C_3 
REMARK    3  A    between atoms: C_9  and  N_4 
REMARK    4  A    between atoms: O_19  and  C_6 
REMARK    5  A    between atoms: O_20  and  C_10 
ROOT
ATOM      1  C   UNL d   1      13.942  13.976  -3.289  0.00  0.00     0.281 C 
ATOM      2  N   UNL d   1      14.385  14.672  -3.278  0.00  0.00    -0.206 NA
ATOM      3  O   UNL d   1      13.436  13.832  -3.893  0.00  0.00    -0.265 OA
ENDROOT
BRANCH   1   4
ATOM      4  C   UNL d   1      14.027  13.430  -2.668  0.00  0.00     0.080 A 
ATOM      5  C   UNL d   1      14.447  13.626  -1.995  0.00  0.00     0.007 A 
ATOM      6  C   UNL d   1      14.522  13.062  -1.378  0.00  0.00     0.000 A 
ATOM      7  C   UNL d   1      14.946  13.268  -0.704  0.00  0.00     0.000 A 
ATOM      8  C   UNL d   1      14.168  12.322  -1.471  0.00  0.00     0.002 A 
ATOM      9  C   UNL d   1      15.018  12.697  -0.090  0.00  0.00     0.000 A 
ATOM     10  C   UNL d   1      14.677  11.985  -0.180  0.00  0.00     0.000 A 
ATOM     11  C   UNL d   1      14.252  11.780  -0.857  0.00  0.00     0.000 A 
ATOM     12  C   UNL d   1      13.752  12.146  -2.155  0.00  0.00     0.024 A 
ATOM     13  C   UNL d   1      13.686  12.714  -2.756  0.00  0.00     0.099 A 
BRANCH  13  14
ATOM     14  O   UNL d   1      13.265  12.554  -3.461  0.00  0.00    -0.328 OA
ATOM     15  C   UNL d   1      12.986  11.780  -3.603  0.00  0.00     0.181 C 
ENDBRANCH  13  14
ENDBRANCH   1   4
BRANCH   2  16
ATOM     16  C   UNL d   1      14.321  15.213  -3.864  0.00  0.00     0.107 A 
ATOM     17  C   UNL d   1      14.602  15.972  -3.735  0.00  0.00     0.113 A 
ATOM     18  C   UNL d   1      14.543  16.542  -4.331  0.00  0.00     0.049 A 
ATOM     19  C   UNL d   1      14.201  16.357  -5.063  0.00  0.00     0.129 A 
ATOM     20  C   UNL d   1      13.920  15.595  -5.190  0.00  0.00     0.025 A 
ATOM     21  C   UNL d   1      13.977  15.024  -4.601  0.00  0.00     0.023 A 
BRANCH  17  22
ATOM     22  O   UNL d   1      14.951  16.173  -2.998  0.00  0.00    -0.327 OA
ATOM     23  C   UNL d   1      15.081  16.982  -2.820  0.00  0.00     0.181 C 
ENDBRANCH  17  22
BRANCH  19  24
ATOM     24  N   UNL d   1      14.152  16.946  -5.648  0.00  0.00    -0.114 N 
ATOM     25  O   UNL d   1      13.755  16.760  -6.348  0.00  0.00    -0.532 OA
ATOM     26  O   UNL d   1      14.491  17.683  -5.522  0.00  0.00    -0.532 OA
ENDBRANCH  19  24
ENDBRANCH   2  16
TORSDOF 5
ENDMDL
