MODEL 1
REMARK VINA RESULT:      10.4      0.000      0.000
REMARK  5 active torsions:
REMARK  status: ('A' for Active; 'I' for Inactive)
REMARK    1  A    between atoms: S_6  and  C_2 
REMARK    2  A    between atoms: C_11  and  S_6 
REMARK    3  A    between atoms: C_7  and  C_11 
REMARK       I    between atoms: N_8  and  C_7 
REMARK    4  A    between atoms: C_13  and  N_8 
REMARK    5  A    between atoms: C_14  and  C_13 
ROOT
ATOM      1  S   UNL d   1      45.387 -14.911  44.428  0.00  0.00    -0.080 SA
ENDROOT
BRANCH   1   2
ATOM      2  C   UNL d   1      45.577 -14.109  44.402  0.00  0.00     0.049 A 
ATOM      3  C   UNL d   1      46.154 -13.732  44.848  0.00  0.00     0.087 A 
ATOM      4  N   UNL d   1      46.154 -12.922  44.641  0.00  0.00    -0.302 N 
ATOM      5  C   UNL d   1      45.568 -12.812  44.061  0.00  0.00     0.065 A 
ATOM      6  C   UNL d   1      46.646 -12.340  44.955  0.00  0.00     0.100 C 
ATOM      7  C   UNL d   1      45.212 -13.542  43.913  0.00  0.00     0.024 A 
ATOM      8  C   UNL d   1      45.324 -12.135  43.659  0.00  0.00     0.018 A 
ATOM      9  C   UNL d   1      44.605 -13.592  43.356  0.00  0.00     0.002 A 
ATOM     10  C   UNL d   1      44.358 -12.924  42.953  0.00  0.00     0.000 A 
ATOM     11  C   UNL d   1      44.714 -12.193  43.101  0.00  0.00     0.002 A 
ENDBRANCH   1   2
BRANCH   1  12
ATOM     12  C   UNL d   1      45.982 -15.477  44.318  0.00  0.00     0.098 C 
BRANCH  12  13
ATOM     13  C   UNL d   1      45.818 -16.277  44.448  0.00  0.00     0.286 C 
ATOM     14  N   UNL d   1      46.302 -16.851  44.109  0.00  0.00    -0.204 NA
ATOM     15  O   UNL d   1      45.176 -16.497  44.913  0.00  0.00    -0.265 OA
BRANCH  14  16
ATOM     16  C   UNL d   1      46.140 -17.651  44.238  0.00  0.00     0.127 C 
BRANCH  16  17
ATOM     17  C   UNL d   1      46.319 -18.197  43.665  0.00  0.00     0.119 A 
ATOM     18  O   UNL d   1      46.460 -18.043  42.867  0.00  0.00    -0.304 OA
ATOM     19  C   UNL d   1      46.622 -18.767  42.486  0.00  0.00     0.123 A 
ATOM     20  C   UNL d   1      46.580 -19.364  43.052  0.00  0.00     0.029 A 
ATOM     21  C   UNL d   1      46.395 -19.016  43.772  0.00  0.00     0.028 A 
ENDBRANCH  16  17
ENDBRANCH  14  16
ENDBRANCH  12  13
ENDBRANCH   1  12
TORSDOF 5
ENDMDL
