MODEL 1
REMARK VINA RESULT:      -6.1      0.000      0.000
REMARK  1 active torsions:
REMARK  status: ('A' for Active; 'I' for Inactive)
REMARK    1  A    between atoms: C_7  and  N_1 
ROOT
ATOM      1  N   UNL d   1     -41.651-122.486 -53.398  0.00  0.00    -0.259 N 
ATOM      2  C   UNL d   1     -41.645-121.947 -52.757  0.00  0.00     0.267 A 
ATOM      3  C   UNL d   1     -41.487-123.288 -53.277  0.00  0.00     0.150 A 
ATOM      4  N   UNL d   1     -41.313-123.563 -52.510  0.00  0.00    -0.228 NA
ATOM      5  C   UNL d   1     -41.471-122.228 -51.998  0.00  0.00     0.074 A 
ATOM      6  C   UNL d   1     -41.305-123.038 -51.876  0.00  0.00     0.088 A 
ATOM      7  O   UNL d   1     -41.809-121.150 -52.885  0.00  0.00    -0.267 OA
ATOM      8  C   UNL d   1     -41.495-123.817 -53.910  0.00  0.00     0.041 C 
ATOM      9  C   UNL d   1     -41.464-121.700 -51.367  0.00  0.00     0.006 A 
ATOM     10  C   UNL d   1     -41.134-123.301 -51.110  0.00  0.00     0.019 A 
ATOM     11  C   UNL d   1     -41.291-121.976 -50.609  0.00  0.00     0.000 A 
ATOM     12  C   UNL d   1     -41.127-122.774 -50.481  0.00  0.00     0.002 A 
ENDROOT
BRANCH   1  13
ATOM     13  C   UNL d   1     -41.823-122.217 -54.155  0.00  0.00     0.068 A 
ATOM     14  C   UNL d   1     -41.218-122.148 -54.719  0.00  0.00     0.020 A 
ATOM     15  C   UNL d   1     -41.398-121.877 -55.479  0.00  0.00     0.031 A 
ATOM     16  C   UNL d   1     -42.170-121.675 -55.680  0.00  0.00     0.140 A 
ATOM     17  C   UNL d   1     -42.767-121.746 -55.114  0.00  0.00     0.031 A 
ATOM     18  F   UNL d   1     -42.341-121.406 -56.438  0.00  0.00    -0.204 F 
ATOM     19  C   UNL d   1     -42.592-122.016 -54.356  0.00  0.00     0.020 A 
ENDBRANCH   1  13
TORSDOF 1
ENDMDL
MODEL 2
REMARK VINA RESULT:      -5.2      2.300      4.194
REMARK  1 active torsions:
REMARK  status: ('A' for Active; 'I' for Inactive)
REMARK    1  A    between atoms: C_7  and  N_1 
ROOT
ATOM      1  N   UNL d   1     -41.608-122.452 -51.378  0.00  0.00    -0.259 N 
ATOM      2  C   UNL d   1     -41.724-123.092 -51.905  0.00  0.00     0.267 A 
ATOM      3  C   UNL d   1     -41.333-121.723 -51.653  0.00  0.00     0.150 A 
ATOM      4  N   UNL d   1     -41.169-121.622 -52.464  0.00  0.00    -0.228 NA
ATOM      5  C   UNL d   1     -41.560-122.984 -52.710  0.00  0.00     0.074 A 
ATOM      6  C   UNL d   1     -41.282-122.247 -52.988  0.00  0.00     0.088 A 
ATOM      7  O   UNL d   1     -41.998-123.816 -51.624  0.00  0.00    -0.267 OA
ATOM      8  C   UNL d   1     -41.219-121.094 -51.131  0.00  0.00     0.041 C 
ATOM      9  C   UNL d   1     -41.674-123.612 -53.229  0.00  0.00     0.006 A 
ATOM     10  C   UNL d   1     -41.123-122.157 -53.795  0.00  0.00     0.019 A 
ATOM     11  C   UNL d   1     -41.511-123.508 -54.032  0.00  0.00     0.000 A 
ATOM     12  C   UNL d   1     -41.236-122.784 -54.314  0.00  0.00     0.002 A 
ENDROOT
BRANCH   1  13
ATOM     13  C   UNL d   1     -41.768-122.549 -50.578  0.00  0.00     0.068 A 
ATOM     14  C   UNL d   1     -42.533-122.415 -50.287  0.00  0.00     0.020 A 
ATOM     15  C   UNL d   1     -42.687-122.514 -49.481  0.00  0.00     0.031 A 
ATOM     16  C   UNL d   1     -42.089-122.745 -48.965  0.00  0.00     0.140 A 
ATOM     17  C   UNL d   1     -41.329-122.877 -49.261  0.00  0.00     0.031 A 
ATOM     18  F   UNL d   1     -42.249-122.842 -48.165  0.00  0.00    -0.204 F 
ATOM     19  C   UNL d   1     -41.172-122.779 -50.064  0.00  0.00     0.020 A 
ENDBRANCH   1  13
TORSDOF 1
ENDMDL
MODEL 3
REMARK VINA RESULT:      -4.8      0.983      1.470
REMARK  1 active torsions:
REMARK  status: ('A' for Active; 'I' for Inactive)
REMARK    1  A    between atoms: C_7  and  N_1 
ROOT
ATOM      1  N   UNL d   1     -41.534-122.350 -52.846  0.00  0.00    -0.259 N 
ATOM      2  C   UNL d   1     -41.552-123.080 -52.436  0.00  0.00     0.267 A 
ATOM      3  C   UNL d   1     -41.381-121.644 -52.444  0.00  0.00     0.150 A 
ATOM      4  N   UNL d   1     -41.243-121.657 -51.622  0.00  0.00    -0.228 NA
ATOM      5  C   UNL d   1     -41.415-123.085 -51.619  0.00  0.00     0.074 A 
ATOM      6  C   UNL d   1     -41.260-122.371 -51.213  0.00  0.00     0.088 A 
ATOM      7  O   UNL d   1     -41.705-123.779 -52.843  0.00  0.00    -0.267 OA
ATOM      8  C   UNL d   1     -41.363-120.926 -52.851  0.00  0.00     0.041 C 
ATOM      9  C   UNL d   1     -41.432-123.801 -51.215  0.00  0.00     0.006 A 
ATOM     10  C   UNL d   1     -41.125-122.396 -50.398  0.00  0.00     0.019 A 
ATOM     11  C   UNL d   1     -41.296-123.811 -50.401  0.00  0.00     0.000 A 
ATOM     12  C   UNL d   1     -41.142-123.111 -49.994  0.00  0.00     0.002 A 
ENDROOT
BRANCH   1  13
ATOM     13  C   UNL d   1     -41.669-122.334 -53.656  0.00  0.00     0.068 A 
ATOM     14  C   UNL d   1     -41.126-122.685 -54.176  0.00  0.00     0.020 A 
ATOM     15  C   UNL d   1     -41.269-122.665 -54.990  0.00  0.00     0.031 A 
ATOM     16  C   UNL d   1     -41.944-122.301 -55.288  0.00  0.00     0.140 A 
ATOM     17  C   UNL d   1     -42.481-121.954 -54.766  0.00  0.00     0.031 A 
ATOM     18  F   UNL d   1     -42.079-122.285 -56.099  0.00  0.00    -0.204 F 
ATOM     19  C   UNL d   1     -42.342-121.971 -53.954  0.00  0.00     0.020 A 
ENDBRANCH   1  13
TORSDOF 1
ENDMDL
MODEL 4
REMARK VINA RESULT:      -4.3      1.755      3.571
REMARK  1 active torsions:
REMARK  status: ('A' for Active; 'I' for Inactive)
REMARK    1  A    between atoms: C_7  and  N_1 
ROOT
ATOM      1  N   UNL d   1     -41.708-122.524 -52.736  0.00  0.00    -0.259 N 
ATOM      2  C   UNL d   1     -41.998-121.928 -53.247  0.00  0.00     0.267 A 
ATOM      3  C   UNL d   1     -41.408-123.232 -53.039  0.00  0.00     0.150 A 
ATOM      4  N   UNL d   1     -41.395-123.355 -53.863  0.00  0.00    -0.228 NA
ATOM      5  C   UNL d   1     -41.981-122.058 -54.065  0.00  0.00     0.074 A 
ATOM      6  C   UNL d   1     -41.678-122.774 -54.372  0.00  0.00     0.088 A 
ATOM      7  O   UNL d   1     -42.295-121.225 -52.938  0.00  0.00    -0.267 OA
ATOM      8  C   UNL d   1     -41.123-123.817 -52.532  0.00  0.00     0.041 C 
ATOM      9  C   UNL d   1     -42.266-121.474 -54.569  0.00  0.00     0.006 A 
ATOM     10  C   UNL d   1     -41.670-122.886 -55.191  0.00  0.00     0.019 A 
ATOM     11  C   UNL d   1     -42.251-121.600 -55.385  0.00  0.00     0.000 A 
ATOM     12  C   UNL d   1     -41.954-122.303 -55.695  0.00  0.00     0.002 A 
ENDROOT
BRANCH   1  13
ATOM     13  C   UNL d   1     -41.720-122.404 -51.923  0.00  0.00     0.068 A 
ATOM     14  C   UNL d   1     -41.130-121.947 -51.560  0.00  0.00     0.020 A 
ATOM     15  C   UNL d   1     -41.149-121.832 -50.742  0.00  0.00     0.031 A 
ATOM     16  C   UNL d   1     -41.747-122.165 -50.285  0.00  0.00     0.140 A 
ATOM     17  C   UNL d   1     -42.331-122.619 -50.652  0.00  0.00     0.031 A 
ATOM     18  F   UNL d   1     -41.759-122.046 -49.472  0.00  0.00    -0.204 F 
ATOM     19  C   UNL d   1     -42.315-122.737 -51.467  0.00  0.00     0.020 A 
ENDBRANCH   1  13
TORSDOF 1
ENDMDL
MODEL 5
REMARK VINA RESULT:      -3.3      2.476      3.662
REMARK  1 active torsions:
REMARK  status: ('A' for Active; 'I' for Inactive)
REMARK    1  A    between atoms: C_7  and  N_1 
ROOT
ATOM      1  N   UNL d   1     -42.169-122.863 -50.124  0.00  0.00    -0.259 N 
ATOM      2  C   UNL d   1     -41.771-123.338 -49.560  0.00  0.00     0.267 A 
ATOM      3  C   UNL d   1     -42.821-122.404 -49.905  0.00  0.00     0.150 A 
ATOM      4  N   UNL d   1     -43.086-122.414 -49.115  0.00  0.00    -0.228 NA
ATOM      5  C   UNL d   1     -42.042-123.343 -48.777  0.00  0.00     0.074 A 
ATOM      6  C   UNL d   1     -42.701-122.879 -48.556  0.00  0.00     0.088 A 
ATOM      7  O   UNL d   1     -41.123-123.793 -49.786  0.00  0.00    -0.267 OA
ATOM      8  C   UNL d   1     -43.210-121.936 -50.462  0.00  0.00     0.041 C 
ATOM      9  C   UNL d   1     -41.653-123.809 -48.223  0.00  0.00     0.006 A 
ATOM     10  C   UNL d   1     -42.956-122.896 -47.769  0.00  0.00     0.019 A 
ATOM     11  C   UNL d   1     -41.919-123.816 -47.441  0.00  0.00     0.000 A 
ATOM     12  C   UNL d   1     -42.568-123.361 -47.215  0.00  0.00     0.002 A 
ENDROOT
BRANCH   1  13
ATOM     13  C   UNL d   1     -41.909-122.851 -50.903  0.00  0.00     0.068 A 
ATOM     14  C   UNL d   1     -41.469-122.207 -51.186  0.00  0.00     0.020 A 
ATOM     15  C   UNL d   1     -41.211-122.203 -51.971  0.00  0.00     0.031 A 
ATOM     16  C   UNL d   1     -41.386-122.831 -52.474  0.00  0.00     0.140 A 
ATOM     17  C   UNL d   1     -41.824-123.469 -52.186  0.00  0.00     0.031 A 
ATOM     18  F   UNL d   1     -41.126-122.819 -53.253  0.00  0.00    -0.204 F 
ATOM     19  C   UNL d   1     -42.083-123.477 -51.404  0.00  0.00     0.020 A 
ENDBRANCH   1  13
TORSDOF 1
ENDMDL
