MODEL 1
REMARK VINA RESULT:      -8.2      0.000      0.000
REMARK  2 active torsions:
REMARK  status: ('A' for Active; 'I' for Inactive)
REMARK    1  A    between atoms: C_2  and  N_1 
REMARK    2  A    between atoms: N_8  and  C_3 
REMARK       I    between atoms: C_12  and  N_8 
ROOT
ATOM      1  N   UNL d   1     -47.819  13.569  22.739  0.00  0.00    -0.189 N 
ATOM      2  C   UNL d   1     -47.605  12.792  22.929  0.00  0.00     0.171 A 
ATOM      3  N   UNL d   1     -47.129  14.000  22.582  0.00  0.00    -0.162 NA
ATOM      4  C   UNL d   1     -46.780  12.745  22.888  0.00  0.00     0.060 A 
ATOM      5  C   UNL d   1     -46.487  13.485  22.676  0.00  0.00     0.105 A 
ATOM      6  C   UNL d   1     -45.689  13.679  22.573  0.00  0.00     0.023 C 
ENDROOT
BRANCH   1   7
ATOM      7  C   UNL d   1     -48.563  13.892  22.702  0.00  0.00     0.197 A 
ATOM      8  N   UNL d   1     -48.838  14.361  23.323  0.00  0.00    -0.221 NA
ATOM      9  C   UNL d   1     -49.612  14.610  23.126  0.00  0.00     0.090 A 
ATOM     10  C   UNL d   1     -50.159  15.073  23.507  0.00  0.00     0.020 A 
ATOM     11  C   UNL d   1     -49.784  14.282  22.385  0.00  0.00     0.050 A 
ATOM     12  C   UNL d   1     -50.897  15.225  23.165  0.00  0.00     0.002 A 
ATOM     13  C   UNL d   1     -51.064  14.901  22.437  0.00  0.00     0.001 A 
ATOM     14  C   UNL d   1     -50.514  14.429  22.041  0.00  0.00     0.008 A 
ATOM     15  S   UNL d   1     -49.135  13.845  22.136  0.00  0.00    -0.047 SA
ENDBRANCH   1   7
BRANCH   2  16
ATOM     16  N   UNL d   1     -48.118  12.172  23.124  0.00  0.00    -0.189 NA
ATOM     17  C   UNL d   1     -47.818  11.518  23.497  0.00  0.00     0.281 C 
ATOM     18  O   UNL d   1     -48.328  10.896  23.694  0.00  0.00    -0.265 OA
ATOM     19  C   UNL d   1     -47.024  11.452  23.686  0.00  0.00     0.068 C 
ENDBRANCH   2  16
TORSDOF 2
ENDMDL
MODEL 2
REMARK VINA RESULT:      -7.8      1.682      2.225
REMARK  2 active torsions:
REMARK  status: ('A' for Active; 'I' for Inactive)
REMARK    1  A    between atoms: C_2  and  N_1 
REMARK    2  A    between atoms: N_8  and  C_3 
REMARK       I    between atoms: C_12  and  N_8 
ROOT
ATOM      1  N   UNL d   1     -47.656  12.185  23.209  0.00  0.00    -0.189 N 
ATOM      2  C   UNL d   1     -47.017  12.711  23.196  0.00  0.00     0.171 A 
ATOM      3  N   UNL d   1     -47.371  11.430  23.396  0.00  0.00    -0.162 NA
ATOM      4  C   UNL d   1     -46.336  12.276  23.375  0.00  0.00     0.060 A 
ATOM      5  C   UNL d   1     -46.552  11.492  23.498  0.00  0.00     0.105 A 
ATOM      6  C   UNL d   1     -46.038  10.872  23.691  0.00  0.00     0.023 C 
ENDROOT
BRANCH   1   7
ATOM      7  C   UNL d   1     -48.441  12.342  23.069  0.00  0.00     0.197 A 
ATOM      8  N   UNL d   1     -48.910  12.660  23.669  0.00  0.00    -0.221 NA
ATOM      9  C   UNL d   1     -49.681  12.759  23.361  0.00  0.00     0.090 A 
ATOM     10  C   UNL d   1     -50.372  13.041  23.677  0.00  0.00     0.020 A 
ATOM     11  C   UNL d   1     -49.656  12.495  22.576  0.00  0.00     0.050 A 
ATOM     12  C   UNL d   1     -51.064  13.072  23.225  0.00  0.00     0.002 A 
ATOM     13  C   UNL d   1     -51.038  12.812  22.454  0.00  0.00     0.001 A 
ATOM     14  C   UNL d   1     -50.339  12.523  22.122  0.00  0.00     0.008 A 
ATOM     15  S   UNL d   1     -48.893  12.242  22.408  0.00  0.00    -0.047 SA
ENDBRANCH   1   7
BRANCH   2  16
ATOM     16  N   UNL d   1     -47.048  13.522  23.033  0.00  0.00    -0.189 NA
ATOM     17  C   UNL d   1     -46.386  13.888  22.742  0.00  0.00     0.281 C 
ATOM     18  O   UNL d   1     -46.413  14.700  22.578  0.00  0.00    -0.265 OA
ATOM     19  C   UNL d   1     -45.689  13.481  22.605  0.00  0.00     0.068 C 
ENDBRANCH   2  16
TORSDOF 2
ENDMDL
MODEL 3
REMARK VINA RESULT:      -7.3      1.703      3.834
REMARK  2 active torsions:
REMARK  status: ('A' for Active; 'I' for Inactive)
REMARK    1  A    between atoms: C_2  and  N_1 
REMARK    2  A    between atoms: N_8  and  C_3 
REMARK       I    between atoms: C_12  and  N_8 
ROOT
ATOM      1  N   UNL d   1     -49.272  13.149  23.072  0.00  0.00    -0.189 N 
ATOM      2  C   UNL d   1     -49.813  13.774  23.121  0.00  0.00     0.171 A 
ATOM      3  N   UNL d   1     -49.672  12.443  23.240  0.00  0.00    -0.162 NA
ATOM      4  C   UNL d   1     -50.548  13.450  23.320  0.00  0.00     0.060 A 
ATOM      5  C   UNL d   1     -50.463  12.635  23.393  0.00  0.00     0.105 A 
ATOM      6  C   UNL d   1     -51.064  12.100  23.586  0.00  0.00     0.023 C 
ENDROOT
BRANCH   1   7
ATOM      7  C   UNL d   1     -48.480  13.180  22.893  0.00  0.00     0.197 A 
ATOM      8  N   UNL d   1     -47.922  13.158  23.501  0.00  0.00    -0.221 NA
ATOM      9  C   UNL d   1     -47.164  13.199  23.147  0.00  0.00     0.090 A 
ATOM     10  C   UNL d   1     -46.411  13.200  23.448  0.00  0.00     0.020 A 
ATOM     11  C   UNL d   1     -47.288  13.244  22.330  0.00  0.00     0.050 A 
ATOM     12  C   UNL d   1     -45.754  13.247  22.948  0.00  0.00     0.002 A 
ATOM     13  C   UNL d   1     -45.879  13.292  22.145  0.00  0.00     0.001 A 
ATOM     14  C   UNL d   1     -46.641  13.291  21.828  0.00  0.00     0.008 A 
ATOM     15  S   UNL d   1     -48.097  13.232  22.186  0.00  0.00    -0.047 SA
ENDBRANCH   1   7
BRANCH   2  16
ATOM     16  N   UNL d   1     -49.652  14.577  22.995  0.00  0.00    -0.189 NA
ATOM     17  C   UNL d   1     -50.251  15.115  23.089  0.00  0.00     0.281 C 
ATOM     18  O   UNL d   1     -50.095  15.918  22.964  0.00  0.00    -0.265 OA
ATOM     19  C   UNL d   1     -51.008  14.889  23.303  0.00  0.00     0.068 C 
ENDBRANCH   2  16
TORSDOF 2
ENDMDL
MODEL 4
REMARK VINA RESULT:      -6.0      8.657      9.893
REMARK  2 active torsions:
REMARK  status: ('A' for Active; 'I' for Inactive)
REMARK    1  A    between atoms: C_2  and  N_1 
REMARK    2  A    between atoms: N_8  and  C_3 
REMARK       I    between atoms: C_12  and  N_8 
ROOT
ATOM      1  N   UNL d   1     -39.838  14.902  17.896  0.00  0.00    -0.189 N 
ATOM      2  C   UNL d   1     -40.294  15.039  17.219  0.00  0.00     0.171 A 
ATOM      3  N   UNL d   1     -39.064  14.724  17.660  0.00  0.00    -0.162 NA
ATOM      4  C   UNL d   1     -39.798  14.944  16.563  0.00  0.00     0.060 A 
ATOM      5  C   UNL d   1     -39.044  14.751  16.833  0.00  0.00     0.105 A 
ATOM      6  C   UNL d   1     -38.381  14.609  16.358  0.00  0.00     0.023 C 
ENDROOT
BRANCH   1   7
ATOM      7  C   UNL d   1     -40.071  14.929  18.675  0.00  0.00     0.197 A 
ATOM      8  N   UNL d   1     -39.931  15.608  19.122  0.00  0.00    -0.221 NA
ATOM      9  C   UNL d   1     -40.230  15.469  19.891  0.00  0.00     0.090 A 
ATOM     10  C   UNL d   1     -40.256  15.919  20.565  0.00  0.00     0.020 A 
ATOM     11  C   UNL d   1     -40.543  14.702  19.886  0.00  0.00     0.050 A 
ATOM     12  C   UNL d   1     -40.594  15.623  21.260  0.00  0.00     0.002 A 
ATOM     13  C   UNL d   1     -40.902  14.869  21.252  0.00  0.00     0.001 A 
ATOM     14  C   UNL d   1     -40.880  14.403  20.571  0.00  0.00     0.008 A 
ATOM     15  S   UNL d   1     -40.440  14.381  19.137  0.00  0.00    -0.047 SA
ENDBRANCH   1   7
BRANCH   2  16
ATOM     16  N   UNL d   1     -41.098  15.234  17.196  0.00  0.00    -0.189 NA
ATOM     17  C   UNL d   1     -41.378  15.670  16.572  0.00  0.00     0.281 C 
ATOM     18  O   UNL d   1     -42.182  15.867  16.546  0.00  0.00    -0.265 OA
ATOM     19  C   UNL d   1     -40.889  15.922  15.966  0.00  0.00     0.068 C 
ENDBRANCH   2  16
TORSDOF 2
ENDMDL
