MODEL 1
REMARK VINA RESULT:     -10.9      0.000      0.000
REMARK  4 active torsions:
REMARK  status: ('A' for Active; 'I' for Inactive)
REMARK    1  A    between atoms: N_5  and  C_1 
REMARK    2  A    between atoms: S_2  and  N_5 
REMARK    3  A    between atoms: C_7  and  S_2 
REMARK    4  A    between atoms: N_10  and  C_3 
ROOT
ATOM      1  C   UNL d   1      52.596  32.528  53.465  0.00  0.00     0.146 A 
ATOM      2  C   UNL d   1      53.043  33.199  53.642  0.00  0.00     0.105 A 
ATOM      3  C   UNL d   1      52.698  33.943  53.573  0.00  0.00     0.208 A 
ATOM      4  C   UNL d   1      51.809  32.598  53.221  0.00  0.00     0.215 A 
ATOM      5  C   UNL d   1      51.920  34.020  53.333  0.00  0.00     0.043 A 
ATOM      6  C   UNL d   1      51.473  33.349  53.156  0.00  0.00     0.044 A 
ATOM      7  O   UNL d   1      53.144  34.613  53.751  0.00  0.00    -0.285 OA
ATOM      8  O   UNL d   1      51.375  31.918  53.047  0.00  0.00    -0.285 OA
ATOM      9  C   UNL d   1      51.574  34.763  53.264  0.00  0.00     0.003 A 
ATOM     10  C   UNL d   1      50.696  33.426  52.915  0.00  0.00     0.003 A 
ATOM     11  C   UNL d   1      50.789  34.835  53.020  0.00  0.00     0.000 A 
ATOM     12  C   UNL d   1      50.349  34.169  52.846  0.00  0.00     0.000 A 
ENDROOT
BRANCH   1  13
ATOM     13  N   UNL d   1      52.936  31.775  53.531  0.00  0.00    -0.154 NA
BRANCH  13  14
ATOM     14  S   UNL d   1      52.982  31.277  52.875  0.00  0.00     0.291 S 
ATOM     15  O   UNL d   1      52.855  31.922  52.376  0.00  0.00    -0.198 OA
ATOM     16  O   UNL d   1      53.028  30.782  52.217  0.00  0.00    -0.198 OA
BRANCH  14  17
ATOM     17  C   UNL d   1      53.108  30.634  53.377  0.00  0.00     0.135 A 
ATOM     18  S   UNL d   1      52.669  30.262  53.963  0.00  0.00    -0.073 SA
ATOM     19  C   UNL d   1      53.122  29.636  54.261  0.00  0.00     0.036 A 
ATOM     20  C   UNL d   1      53.838  29.624  53.860  0.00  0.00     0.008 A 
ATOM     21  C   UNL d   1      53.834  30.242  53.309  0.00  0.00     0.020 A 
ENDBRANCH  14  17
ENDBRANCH  13  14
ENDBRANCH   1  13
BRANCH   2  22
ATOM     22  N   UNL d   1      53.827  33.118  53.885  0.00  0.00    -0.201 NA
ATOM     23  C   UNL d   1      54.141  33.350  54.413  0.00  0.00     0.082 A 
ATOM     24  C   UNL d   1      55.113  33.260  54.732  0.00  0.00     0.136 A 
ATOM     25  O   UNL d   1      54.993  33.748  55.467  0.00  0.00    -0.301 OA
ATOM     26  C   UNL d   1      54.715  33.489  54.914  0.00  0.00     0.136 A 
ATOM     27  C   UNL d   1      53.679  33.569  54.547  0.00  0.00     0.082 A 
ENDBRANCH   2  22
TORSDOF 4
ENDMDL
MODEL 2
REMARK VINA RESULT:     -10.3      1.525      3.696
REMARK  4 active torsions:
REMARK  status: ('A' for Active; 'I' for Inactive)
REMARK    1  A    between atoms: N_5  and  C_1 
REMARK    2  A    between atoms: S_2  and  N_5 
REMARK    3  A    between atoms: C_7  and  S_2 
REMARK    4  A    between atoms: N_10  and  C_3 
ROOT
ATOM      1  C   UNL d   1      52.882  33.496  53.639  0.00  0.00     0.146 A 
ATOM      2  C   UNL d   1      53.292  32.785  53.555  0.00  0.00     0.105 A 
ATOM      3  C   UNL d   1      53.981  32.665  53.990  0.00  0.00     0.208 A 
ATOM      4  C   UNL d   1      53.155  34.084  54.152  0.00  0.00     0.215 A 
ATOM      5  C   UNL d   1      54.257  33.241  54.500  0.00  0.00     0.043 A 
ATOM      6  C   UNL d   1      53.847  33.952  54.583  0.00  0.00     0.044 A 
ATOM      7  O   UNL d   1      54.391  31.954  53.907  0.00  0.00    -0.285 OA
ATOM      8  O   UNL d   1      52.734  34.790  54.224  0.00  0.00    -0.285 OA
ATOM      9  C   UNL d   1      54.945  33.121  54.934  0.00  0.00     0.003 A 
ATOM     10  C   UNL d   1      54.124  34.528  55.092  0.00  0.00     0.003 A 
ATOM     11  C   UNL d   1      55.221  33.706  55.447  0.00  0.00     0.000 A 
ATOM     12  C   UNL d   1      54.811  34.408  55.527  0.00  0.00     0.000 A 
ENDROOT
BRANCH   1  13
ATOM     13  N   UNL d   1      52.187  33.627  53.205  0.00  0.00    -0.154 NA
BRANCH  13  14
ATOM     14  S   UNL d   1      52.150  34.232  52.646  0.00  0.00     0.291 S 
ATOM     15  O   UNL d   1      52.972  34.293  52.656  0.00  0.00    -0.198 OA
ATOM     16  O   UNL d   1      52.116  34.838  52.086  0.00  0.00    -0.198 OA
BRANCH  14  17
ATOM     17  C   UNL d   1      51.327  34.169  52.638  0.00  0.00     0.135 A 
ATOM     18  S   UNL d   1      50.742  34.154  53.215  0.00  0.00    -0.073 SA
ATOM     19  C   UNL d   1      50.011  34.078  52.833  0.00  0.00     0.036 A 
ATOM     20  C   UNL d   1      50.147  34.046  52.023  0.00  0.00     0.008 A 
ATOM     21  C   UNL d   1      50.963  34.102  51.897  0.00  0.00     0.020 A 
ENDBRANCH  14  17
ENDBRANCH  13  14
ENDBRANCH   1  13
BRANCH   2  22
ATOM     22  N   UNL d   1      53.010  32.206  53.041  0.00  0.00    -0.201 NA
ATOM     23  C   UNL d   1      52.905  31.564  53.131  0.00  0.00     0.082 A 
ATOM     24  C   UNL d   1      52.556  30.829  52.505  0.00  0.00     0.136 A 
ATOM     25  O   UNL d   1      52.612  30.182  53.114  0.00  0.00    -0.301 OA
ATOM     26  C   UNL d   1      52.704  30.832  52.975  0.00  0.00     0.136 A 
ATOM     27  C   UNL d   1      53.076  31.641  53.624  0.00  0.00     0.082 A 
ENDBRANCH   2  22
TORSDOF 4
ENDMDL
MODEL 3
REMARK VINA RESULT:      -9.5      1.183      3.243
REMARK  4 active torsions:
REMARK  status: ('A' for Active; 'I' for Inactive)
REMARK    1  A    between atoms: N_5  and  C_1 
REMARK    2  A    between atoms: S_2  and  N_5 
REMARK    3  A    between atoms: C_7  and  S_2 
REMARK    4  A    between atoms: N_10  and  C_3 
ROOT
ATOM      1  C   UNL d   1      52.696  32.324  53.429  0.00  0.00     0.146 A 
ATOM      2  C   UNL d   1      53.460  32.332  53.741  0.00  0.00     0.105 A 
ATOM      3  C   UNL d   1      53.863  31.621  53.838  0.00  0.00     0.208 A 
ATOM      4  C   UNL d   1      52.335  31.611  53.216  0.00  0.00     0.215 A 
ATOM      5  C   UNL d   1      53.513  30.913  53.629  0.00  0.00     0.043 A 
ATOM      6  C   UNL d   1      52.749  30.904  53.318  0.00  0.00     0.044 A 
ATOM      7  O   UNL d   1      54.627  31.630  54.150  0.00  0.00    -0.285 OA
ATOM      8  O   UNL d   1      51.570  31.618  52.906  0.00  0.00    -0.285 OA
ATOM      9  C   UNL d   1      53.915  30.202  53.726  0.00  0.00     0.003 A 
ATOM     10  C   UNL d   1      52.399  30.195  53.109  0.00  0.00     0.003 A 
ATOM     11  C   UNL d   1      53.558  29.489  53.514  0.00  0.00     0.000 A 
ATOM     12  C   UNL d   1      52.802  29.484  53.206  0.00  0.00     0.000 A 
ENDROOT
BRANCH   1  13
ATOM     13  N   UNL d   1      52.281  33.035  53.328  0.00  0.00    -0.154 NA
BRANCH  13  14
ATOM     14  S   UNL d   1      52.062  33.288  52.574  0.00  0.00     0.291 S 
ATOM     15  O   UNL d   1      52.626  32.787  52.241  0.00  0.00    -0.198 OA
ATOM     16  O   UNL d   1      51.845  33.539  51.818  0.00  0.00    -0.198 OA
BRANCH  14  17
ATOM     17  C   UNL d   1      51.499  33.788  52.910  0.00  0.00     0.135 A 
ATOM     18  S   UNL d   1      50.802  33.675  53.332  0.00  0.00    -0.073 SA
ATOM     19  C   UNL d   1      50.492  34.421  53.513  0.00  0.00     0.036 A 
ATOM     20  C   UNL d   1      50.996  34.991  53.204  0.00  0.00     0.008 A 
ATOM     21  C   UNL d   1      51.623  34.602  52.828  0.00  0.00     0.020 A 
ENDBRANCH  14  17
ENDBRANCH  13  14
ENDBRANCH   1  13
BRANCH   2  22
ATOM     22  N   UNL d   1      53.809  33.049  53.950  0.00  0.00    -0.201 NA
ATOM     23  C   UNL d   1      54.106  33.237  54.505  0.00  0.00     0.082 A 
ATOM     24  C   UNL d   1      54.546  34.122  54.785  0.00  0.00     0.136 A 
ATOM     25  O   UNL d   1      54.774  33.836  55.597  0.00  0.00    -0.301 OA
ATOM     26  C   UNL d   1      54.480  33.689  55.012  0.00  0.00     0.136 A 
ATOM     27  C   UNL d   1      54.001  32.752  54.685  0.00  0.00     0.082 A 
ENDBRANCH   2  22
TORSDOF 4
ENDMDL
MODEL 4
REMARK VINA RESULT:      -9.1      1.439      3.579
REMARK  4 active torsions:
REMARK  status: ('A' for Active; 'I' for Inactive)
REMARK    1  A    between atoms: N_5  and  C_1 
REMARK    2  A    between atoms: S_2  and  N_5 
REMARK    3  A    between atoms: C_7  and  S_2 
REMARK    4  A    between atoms: N_10  and  C_3 
ROOT
ATOM      1  C   UNL d   1      53.522  32.227  53.782  0.00  0.00     0.146 A 
ATOM      2  C   UNL d   1      52.954  32.380  53.204  0.00  0.00     0.105 A 
ATOM      3  C   UNL d   1      52.564  31.750  52.846  0.00  0.00     0.208 A 
ATOM      4  C   UNL d   1      53.700  31.451  54.004  0.00  0.00     0.215 A 
ATOM      5  C   UNL d   1      52.734  30.980  53.060  0.00  0.00     0.043 A 
ATOM      6  C   UNL d   1      53.302  30.826  53.638  0.00  0.00     0.044 A 
ATOM      7  O   UNL d   1      51.996  31.904  52.267  0.00  0.00    -0.285 OA
ATOM      8  O   UNL d   1      54.271  31.313  54.584  0.00  0.00    -0.285 OA
ATOM      9  C   UNL d   1      52.344  30.350  52.703  0.00  0.00     0.003 A 
ATOM     10  C   UNL d   1      53.473  30.056  53.852  0.00  0.00     0.003 A 
ATOM     11  C   UNL d   1      52.520  29.574  52.921  0.00  0.00     0.000 A 
ATOM     12  C   UNL d   1      53.083  29.426  53.495  0.00  0.00     0.000 A 
ENDROOT
BRANCH   1  13
ATOM     13  N   UNL d   1      53.921  32.855  54.148  0.00  0.00    -0.154 NA
BRANCH  13  14
ATOM     14  S   UNL d   1      54.732  32.959  54.036  0.00  0.00     0.291 S 
ATOM     15  O   UNL d   1      54.694  32.507  53.347  0.00  0.00    -0.198 OA
ATOM     16  O   UNL d   1      55.542  33.062  53.920  0.00  0.00    -0.198 OA
BRANCH  14  17
ATOM     17  C   UNL d   1      54.765  33.411  54.725  0.00  0.00     0.135 A 
ATOM     18  S   UNL d   1      54.439  33.346  55.477  0.00  0.00    -0.073 SA
ATOM     19  C   UNL d   1      54.694  33.996  55.922  0.00  0.00     0.036 A 
ATOM     20  C   UNL d   1      55.176  34.460  55.445  0.00  0.00     0.008 A 
ATOM     21  C   UNL d   1      55.223  34.100  54.701  0.00  0.00     0.020 A 
ENDBRANCH  14  17
ENDBRANCH  13  14
ENDBRANCH   1  13
BRANCH   2  22
ATOM     22  N   UNL d   1      52.785  33.159  52.991  0.00  0.00    -0.201 NA
ATOM     23  C   UNL d   1      52.219  33.492  52.994  0.00  0.00     0.082 A 
ATOM     24  C   UNL d   1      51.989  34.459  52.734  0.00  0.00     0.136 A 
ATOM     25  O   UNL d   1      51.122  34.380  52.924  0.00  0.00    -0.301 OA
ATOM     26  C   UNL d   1      51.722  34.080  52.904  0.00  0.00     0.136 A 
ATOM     27  C   UNL d   1      51.999  33.049  53.176  0.00  0.00     0.082 A 
ENDBRANCH   2  22
TORSDOF 4
ENDMDL
MODEL 5
REMARK VINA RESULT:      -8.6      0.982      2.766
REMARK  4 active torsions:
REMARK  status: ('A' for Active; 'I' for Inactive)
REMARK    1  A    between atoms: N_5  and  C_1 
REMARK    2  A    between atoms: S_2  and  N_5 
REMARK    3  A    between atoms: C_7  and  S_2 
REMARK    4  A    between atoms: N_10  and  C_3 
ROOT
ATOM      1  C   UNL d   1      53.334  32.512  53.939  0.00  0.00     0.146 A 
ATOM      2  C   UNL d   1      52.916  33.188  53.716  0.00  0.00     0.105 A 
ATOM      3  C   UNL d   1      53.143  33.919  54.017  0.00  0.00     0.208 A 
ATOM      4  C   UNL d   1      53.975  32.565  54.459  0.00  0.00     0.215 A 
ATOM      5  C   UNL d   1      53.776  33.979  54.531  0.00  0.00     0.043 A 
ATOM      6  C   UNL d   1      54.194  33.304  54.754  0.00  0.00     0.044 A 
ATOM      7  O   UNL d   1      52.725  34.595  53.794  0.00  0.00    -0.285 OA
ATOM      8  O   UNL d   1      54.383  31.880  54.673  0.00  0.00    -0.285 OA
ATOM      9  C   UNL d   1      54.004  34.710  54.832  0.00  0.00     0.003 A 
ATOM     10  C   UNL d   1      54.827  33.364  55.268  0.00  0.00     0.003 A 
ATOM     11  C   UNL d   1      54.643  34.766  55.350  0.00  0.00     0.000 A 
ATOM     12  C   UNL d   1      55.055  34.095  55.569  0.00  0.00     0.000 A 
ENDROOT
BRANCH   1  13
ATOM     13  N   UNL d   1      53.112  31.770  53.642  0.00  0.00    -0.154 NA
BRANCH  13  14
ATOM     14  S   UNL d   1      53.645  31.319  53.203  0.00  0.00     0.291 S 
ATOM     15  O   UNL d   1      54.093  31.995  53.050  0.00  0.00    -0.198 OA
ATOM     16  O   UNL d   1      54.180  30.870  52.763  0.00  0.00    -0.198 OA
BRANCH  14  17
ATOM     17  C   UNL d   1      53.195  30.645  53.357  0.00  0.00     0.135 A 
ATOM     18  S   UNL d   1      53.023  30.205  54.030  0.00  0.00    -0.073 SA
ATOM     19  C   UNL d   1      52.527  29.581  53.805  0.00  0.00     0.036 A 
ATOM     20  C   UNL d   1      52.394  29.638  52.997  0.00  0.00     0.008 A 
ATOM     21  C   UNL d   1      52.806  30.297  52.714  0.00  0.00     0.020 A 
ENDBRANCH  14  17
ENDBRANCH  13  14
ENDBRANCH   1  13
BRANCH   2  22
ATOM     22  N   UNL d   1      52.278  33.123  53.198  0.00  0.00    -0.201 NA
ATOM     23  C   UNL d   1      51.663  33.350  53.241  0.00  0.00     0.082 A 
ATOM     24  C   UNL d   1      50.857  33.280  52.608  0.00  0.00     0.136 A 
ATOM     25  O   UNL d   1      50.310  33.742  53.137  0.00  0.00    -0.301 OA
ATOM     26  C   UNL d   1      50.926  33.491  53.049  0.00  0.00     0.136 A 
ATOM     27  C   UNL d   1      51.807  33.550  53.708  0.00  0.00     0.082 A 
ENDBRANCH   2  22
TORSDOF 4
ENDMDL
MODEL 6
REMARK VINA RESULT:      -8.6      1.198      2.990
REMARK  4 active torsions:
REMARK  status: ('A' for Active; 'I' for Inactive)
REMARK    1  A    between atoms: N_5  and  C_1 
REMARK    2  A    between atoms: S_2  and  N_5 
REMARK    3  A    between atoms: C_7  and  S_2 
REMARK    4  A    between atoms: N_10  and  C_3 
ROOT
ATOM      1  C   UNL d   1      52.756  33.474  53.710  0.00  0.00     0.146 A 
ATOM      2  C   UNL d   1      52.430  32.735  53.546  0.00  0.00     0.105 A 
ATOM      3  C   UNL d   1      51.699  32.691  53.169  0.00  0.00     0.208 A 
ATOM      4  C   UNL d   1      52.357  34.168  53.500  0.00  0.00     0.215 A 
ATOM      5  C   UNL d   1      51.298  33.372  52.959  0.00  0.00     0.043 A 
ATOM      6  C   UNL d   1      51.624  34.112  53.123  0.00  0.00     0.044 A 
ATOM      7  O   UNL d   1      51.373  31.951  53.005  0.00  0.00    -0.285 OA
ATOM      8  O   UNL d   1      52.695  34.900  53.671  0.00  0.00    -0.285 OA
ATOM      9  C   UNL d   1      50.568  33.330  52.582  0.00  0.00     0.003 A 
ATOM     10  C   UNL d   1      51.224  34.793  52.913  0.00  0.00     0.003 A 
ATOM     11  C   UNL d   1      50.168  34.019  52.372  0.00  0.00     0.000 A 
ATOM     12  C   UNL d   1      50.494  34.750  52.536  0.00  0.00     0.000 A 
ENDROOT
BRANCH   1  13
ATOM     13  N   UNL d   1      53.491  33.529  54.089  0.00  0.00    -0.154 NA
BRANCH  13  14
ATOM     14  S   UNL d   1      53.558  33.894  54.826  0.00  0.00     0.291 S 
ATOM     15  O   UNL d   1      52.735  33.908  54.892  0.00  0.00    -0.198 OA
ATOM     16  O   UNL d   1      53.620  34.260  55.563  0.00  0.00    -0.198 OA
BRANCH  14  17
ATOM     17  C   UNL d   1      54.379  33.878  54.755  0.00  0.00     0.135 A 
ATOM     18  S   UNL d   1      54.914  34.083  54.166  0.00  0.00    -0.073 SA
ATOM     19  C   UNL d   1      55.676  33.929  54.450  0.00  0.00     0.036 A 
ATOM     20  C   UNL d   1      55.610  33.630  55.213  0.00  0.00     0.008 A 
ATOM     21  C   UNL d   1      54.806  33.596  55.406  0.00  0.00     0.020 A 
ENDBRANCH  14  17
ENDBRANCH  13  14
ENDBRANCH   1  13
BRANCH   2  22
ATOM     22  N   UNL d   1      52.837  32.050  53.759  0.00  0.00    -0.201 NA
ATOM     23  C   UNL d   1      52.987  31.513  53.412  0.00  0.00     0.082 A 
ATOM     24  C   UNL d   1      53.491  30.653  53.659  0.00  0.00     0.136 A 
ATOM     25  O   UNL d   1      53.406  30.285  52.852  0.00  0.00    -0.301 OA
ATOM     26  C   UNL d   1      53.276  30.813  53.245  0.00  0.00     0.136 A 
ATOM     27  C   UNL d   1      52.739  31.746  53.009  0.00  0.00     0.082 A 
ENDBRANCH   2  22
TORSDOF 4
ENDMDL
