MODEL 1
REMARK VINA RESULT:      -5.6      0.000      0.000
REMARK  3 active torsions:
REMARK  status: ('A' for Active; 'I' for Inactive)
REMARK    1  A    between atoms: C_10  and  C_4 
REMARK    2  A    between atoms: S_9  and  C_10 
REMARK    3  A    between atoms: C_11  and  S_9 
ROOT
ATOM      1  C   UNL d   1     -41.500-122.271 -52.369  0.00  0.00     0.056 C 
ENDROOT
BRANCH   1   2
ATOM      2  S   UNL d   1     -41.458-122.799 -52.975  0.00  0.00    -0.085 SA
BRANCH   2   3
ATOM      3  C   UNL d   1     -41.642-122.557 -53.743  0.00  0.00     0.030 A 
ATOM      4  C   UNL d   1     -41.334-122.967 -54.386  0.00  0.00     0.007 A 
ATOM      5  C   UNL d   1     -41.525-122.714 -55.148  0.00  0.00     0.012 A 
ATOM      6  C   UNL d   1     -42.014-122.066 -55.273  0.00  0.00     0.058 A 
ATOM      7  C   UNL d   1     -42.317-121.662 -54.622  0.00  0.00     0.012 A 
ATOM      8 CL   UNL d   1     -42.198-121.823 -56.044  0.00  0.00    -0.082 Cl
ATOM      9  C   UNL d   1     -42.135-121.903 -53.859  0.00  0.00     0.007 A 
ENDBRANCH   2   3
ENDBRANCH   1   2
BRANCH   1  10
ATOM     10  C   UNL d   1     -41.591-122.537 -51.608  0.00  0.00     0.107 A 
ATOM     11  N   UNL d   1     -42.171-122.270 -51.059  0.00  0.00    -0.220 NA
ATOM     12  C   UNL d   1     -42.062-122.699 -50.333  0.00  0.00     0.180 A 
ATOM     13  N   UNL d   1     -41.406-123.235 -50.442  0.00  0.00    -0.282 N 
ATOM     14  S   UNL d   1     -42.353-122.802 -49.539  0.00  0.00    -0.048 SA
ATOM     15  C   UNL d   1     -41.123-123.126 -51.234  0.00  0.00     0.102 A 
ATOM     16  C   UNL d   1     -41.297-123.664 -49.715  0.00  0.00     0.089 A 
ATOM     17  C   UNL d   1     -41.883-123.394 -49.161  0.00  0.00     0.057 A 
ENDBRANCH   1  10
TORSDOF 3
ENDMDL
MODEL 2
REMARK VINA RESULT:      -5.3      1.112      1.518
REMARK  3 active torsions:
REMARK  status: ('A' for Active; 'I' for Inactive)
REMARK    1  A    between atoms: C_10  and  C_4 
REMARK    2  A    between atoms: S_9  and  C_10 
REMARK    3  A    between atoms: C_11  and  S_9 
ROOT
ATOM      1  C   UNL d   1     -41.627-122.650 -51.145  0.00  0.00     0.056 C 
ENDROOT
BRANCH   1   2
ATOM      2  S   UNL d   1     -41.155-123.135 -51.582  0.00  0.00    -0.085 SA
BRANCH   2   3
ATOM      3  C   UNL d   1     -41.196-123.114 -52.405  0.00  0.00     0.030 A 
ATOM      4  C   UNL d   1     -41.223-123.817 -52.833  0.00  0.00     0.007 A 
ATOM      5  C   UNL d   1     -41.263-123.781 -53.656  0.00  0.00     0.012 A 
ATOM      6  C   UNL d   1     -41.278-123.062 -54.053  0.00  0.00     0.058 A 
ATOM      7  C   UNL d   1     -41.251-122.364 -53.615  0.00  0.00     0.012 A 
ATOM      8 CL   UNL d   1     -41.319-123.041 -54.880  0.00  0.00    -0.082 Cl
ATOM      9  C   UNL d   1     -41.211-122.385 -52.797  0.00  0.00     0.007 A 
ENDBRANCH   2   3
ENDBRANCH   1   2
BRANCH   1  10
ATOM     10  C   UNL d   1     -41.771-122.823 -50.366  0.00  0.00     0.107 A 
ATOM     11  N   UNL d   1     -42.531-122.930 -50.018  0.00  0.00    -0.220 NA
ATOM     12  C   UNL d   1     -42.419-123.102 -49.192  0.00  0.00     0.180 A 
ATOM     13  N   UNL d   1     -41.580-123.099 -49.037  0.00  0.00    -0.282 N 
ATOM     14  S   UNL d   1     -42.819-123.275 -48.461  0.00  0.00    -0.048 SA
ATOM     15  C   UNL d   1     -41.189-122.926 -49.769  0.00  0.00     0.102 A 
ATOM     16  C   UNL d   1     -41.468-123.271 -48.210  0.00  0.00     0.089 A 
ATOM     17  C   UNL d   1     -42.235-123.379 -47.858  0.00  0.00     0.057 A 
ENDBRANCH   1  10
TORSDOF 3
ENDMDL
