MODEL 1
REMARK VINA RESULT:       8.0      0.000      0.000
REMARK  7 active torsions:
REMARK  status: ('A' for Active; 'I' for Inactive)
REMARK    1  A    between atoms: C_11  and  C_1 
REMARK    2  A    between atoms: C_12  and  C_3 
REMARK    3  A    between atoms: C_10  and  C_5 
REMARK    4  A    between atoms: O_21  and  C_11 
REMARK    5  A    between atoms: O_22  and  C_12 
REMARK    6  A    between atoms: O_23  and  C_14 
REMARK    7  A    between atoms: O_24  and  C_17 
ROOT
ATOM      1  C   UNL d   1     -41.800-122.260 -52.781  0.00  0.00     0.075 A 
ATOM      2  C   UNL d   1     -41.482-120.647 -52.748  0.00  0.00     0.121 A 
ATOM      3  C   UNL d   1     -41.742-121.828 -53.486  0.00  0.00     0.099 A 
ATOM      4  C   UNL d   1     -41.538-121.070 -52.040  0.00  0.00     0.058 A 
ATOM      5  C   UNL d   1     -41.698-121.882 -52.062  0.00  0.00     0.014 A 
ATOM      6  S   UNL d   1     -41.583-121.024 -53.467  0.00  0.00    -0.062 SA
ATOM      7  N   UNL d   1     -41.321-119.863 -52.554  0.00  0.00    -0.195 NA
ATOM      8  C   UNL d   1     -41.277-119.798 -51.738  0.00  0.00     0.311 A 
ATOM      9  S   UNL d   1     -41.412-120.546 -51.416  0.00  0.00    -0.024 SA
ATOM     10  O   UNL d   1     -41.126-119.110 -51.306  0.00  0.00    -0.258 OA
ENDROOT
BRANCH   5  11
ATOM     11  C   UNL d   1     -41.754-122.303 -51.356  0.00  0.00     0.003 A 
ATOM     12  C   UNL d   1     -42.426-122.242 -50.896  0.00  0.00     0.026 A 
ATOM     13  C   UNL d   1     -42.477-122.666 -50.189  0.00  0.00     0.116 A 
ATOM     14  C   UNL d   1     -41.851-123.148 -49.951  0.00  0.00     0.116 A 
ATOM     15  C   UNL d   1     -41.174-123.205 -50.420  0.00  0.00     0.026 A 
ATOM     16  C   UNL d   1     -41.124-122.785 -51.120  0.00  0.00     0.002 A 
BRANCH  13  17
ATOM     17  O   UNL d   1     -43.155-122.606 -49.722  0.00  0.00    -0.326 OA
ATOM     18  C   UNL d   1     -43.894-122.789 -50.044  0.00  0.00     0.181 C 
ENDBRANCH  13  17
BRANCH  14  19
ATOM     19  O   UNL d   1     -41.902-123.572 -49.243  0.00  0.00    -0.326 OA
ATOM     20  C   UNL d   1     -41.242-123.638 -48.754  0.00  0.00     0.181 C 
ENDBRANCH  14  19
ENDBRANCH   5  11
BRANCH   1  21
ATOM     21  C   UNL d   1     -41.959-123.066 -52.803  0.00  0.00     0.296 C 
ATOM     22  O   UNL d   1     -41.346-123.606 -52.924  0.00  0.00    -0.259 OA
BRANCH  21  23
ATOM     23  O   UNL d   1     -42.731-123.337 -52.704  0.00  0.00    -0.296 OA
ATOM     24  C   UNL d   1     -43.071-123.816 -53.278  0.00  0.00     0.185 C 
ENDBRANCH  21  23
ENDBRANCH   1  21
BRANCH   3  25
ATOM     25  C   UNL d   1     -41.843-122.205 -54.204  0.00  0.00     0.302 C 
ATOM     26  O   UNL d   1     -42.598-122.328 -54.512  0.00  0.00    -0.259 OA
BRANCH  25  27
ATOM     27  O   UNL d   1     -41.184-122.467 -54.628  0.00  0.00    -0.295 OA
ATOM     28  C   UNL d   1     -41.268-122.687 -55.420  0.00  0.00     0.185 C 
ENDBRANCH  25  27
ENDBRANCH   3  25
TORSDOF 7
ENDMDL
MODEL 2
REMARK VINA RESULT:      11.0      0.948      3.420
REMARK  7 active torsions:
REMARK  status: ('A' for Active; 'I' for Inactive)
REMARK    1  A    between atoms: C_11  and  C_1 
REMARK    2  A    between atoms: C_12  and  C_3 
REMARK    3  A    between atoms: C_10  and  C_5 
REMARK    4  A    between atoms: O_21  and  C_11 
REMARK    5  A    between atoms: O_22  and  C_12 
REMARK    6  A    between atoms: O_23  and  C_14 
REMARK    7  A    between atoms: O_24  and  C_17 
ROOT
ATOM      1  C   UNL d   1     -41.737-122.572 -51.335  0.00  0.00     0.075 A 
ATOM      2  C   UNL d   1     -41.470-120.996 -50.950  0.00  0.00     0.121 A 
ATOM      3  C   UNL d   1     -41.712-122.331 -50.542  0.00  0.00     0.099 A 
ATOM      4  C   UNL d   1     -41.493-121.228 -51.743  0.00  0.00     0.058 A 
ATOM      5  C   UNL d   1     -41.628-122.023 -51.931  0.00  0.00     0.014 A 
ATOM      6  S   UNL d   1     -41.579-121.544 -50.353  0.00  0.00    -0.062 SA
ATOM      7  N   UNL d   1     -41.328-120.185 -50.934  0.00  0.00    -0.195 NA
ATOM      8  C   UNL d   1     -41.264-119.915 -51.706  0.00  0.00     0.311 A 
ATOM      9  S   UNL d   1     -41.366-120.561 -52.210  0.00  0.00    -0.024 SA
ATOM     10  O   UNL d   1     -41.123-119.138 -51.946  0.00  0.00    -0.258 OA
ENDROOT
BRANCH   5  11
ATOM     11  C   UNL d   1     -41.651-122.253 -52.722  0.00  0.00     0.003 A 
ATOM     12  C   UNL d   1     -42.190-121.912 -53.231  0.00  0.00     0.026 A 
ATOM     13  C   UNL d   1     -42.209-122.146 -54.023  0.00  0.00     0.116 A 
ATOM     14  C   UNL d   1     -41.685-122.722 -54.296  0.00  0.00     0.116 A 
ATOM     15  C   UNL d   1     -41.142-123.064 -53.775  0.00  0.00     0.026 A 
ATOM     16  C   UNL d   1     -41.124-122.832 -52.992  0.00  0.00     0.002 A 
BRANCH  13  17
ATOM     17  O   UNL d   1     -42.753-121.802 -54.540  0.00  0.00    -0.326 OA
ATOM     18  C   UNL d   1     -43.499-121.577 -54.263  0.00  0.00     0.181 C 
ENDBRANCH  13  17
BRANCH  14  19
ATOM     19  O   UNL d   1     -41.704-122.957 -55.088  0.00  0.00    -0.326 OA
ATOM     20  C   UNL d   1     -41.620-123.753 -55.285  0.00  0.00     0.181 C 
ENDBRANCH  14  19
ENDBRANCH   5  11
BRANCH   1  21
ATOM     21  C   UNL d   1     -41.871-123.361 -51.522  0.00  0.00     0.296 C 
ATOM     22  O   UNL d   1     -41.334-123.772 -51.995  0.00  0.00    -0.259 OA
BRANCH  21  23
ATOM     23  O   UNL d   1     -42.544-123.745 -51.237  0.00  0.00    -0.296 OA
ATOM     24  C   UNL d   1     -43.208-123.811 -51.716  0.00  0.00     0.185 C 
ENDBRANCH  21  23
ENDBRANCH   1  21
BRANCH   3  25
ATOM     25  C   UNL d   1     -41.822-122.880 -49.946  0.00  0.00     0.302 C 
ATOM     26  O   UNL d   1     -42.481-123.374 -49.945  0.00  0.00    -0.259 OA
BRANCH  25  27
ATOM     27  O   UNL d   1     -41.268-122.941 -49.337  0.00  0.00    -0.295 OA
ATOM     28  C   UNL d   1     -41.403-123.464 -48.711  0.00  0.00     0.185 C 
ENDBRANCH  25  27
ENDBRANCH   3  25
TORSDOF 7
ENDMDL
