MODEL 1
REMARK VINA RESULT:     110.1      0.000      0.000
REMARK  6 active torsions:
REMARK  status: ('A' for Active; 'I' for Inactive)
REMARK    1  A    between atoms: C_7  and  C_1 
REMARK    2  A    between atoms: C_9  and  N_2 
REMARK    3  A    between atoms: C_18  and  C_7 
REMARK    4  A    between atoms: C_8  and  C_9 
REMARK       I    between atoms: N_14  and  C_8 
REMARK    5  A    between atoms: C_16  and  N_14 
REMARK    6  A    between atoms: C_29  and  C_23 
ROOT
ATOM      1  C   UNL d   1      60.233  49.575  51.884  0.00  0.00     0.095 A 
ATOM      2  N   UNL d   1      60.433  49.484  50.453  0.00  0.00    -0.300 N 
ATOM      3  C   UNL d   1      59.418  49.629  51.767  0.00  0.00     0.202 A 
ATOM      4  C   UNL d   1      60.749  49.502  51.227  0.00  0.00     0.087 A 
ATOM      5  C   UNL d   1      59.102  49.611  50.992  0.00  0.00     0.055 A 
ATOM      6  C   UNL d   1      59.618  49.538  50.335  0.00  0.00     0.067 A 
ATOM      7  C   UNL d   1      59.312  49.519  49.569  0.00  0.00     0.018 A 
ATOM      8  C   UNL d   1      58.287  49.665  50.875  0.00  0.00     0.005 A 
ATOM      9  O   UNL d   1      58.910  49.702  52.415  0.00  0.00    -0.286 OA
ATOM     10  C   UNL d   1      57.982  49.647  50.109  0.00  0.00     0.000 A 
ATOM     11  C   UNL d   1      58.498  49.573  49.452  0.00  0.00     0.002 A 
ENDROOT
BRANCH   2  12
ATOM     12  C   UNL d   1      60.941  49.411  49.805  0.00  0.00     0.144 C 
BRANCH  12  13
ATOM     13  C   UNL d   1      61.318  48.693  49.655  0.00  0.00     0.297 C 
ATOM     14  N   UNL d   1      61.033  47.996  49.996  0.00  0.00    -0.207 NA
ATOM     15  O   UNL d   1      61.980  48.672  49.163  0.00  0.00    -0.264 OA
BRANCH  14  16
ATOM     16  C   UNL d   1      61.410  47.278  49.845  0.00  0.00     0.086 A 
ATOM     17  C   UNL d   1      60.966  46.619  49.623  0.00  0.00     0.031 A 
ATOM     18  C   UNL d   1      61.331  45.902  49.472  0.00  0.00     0.059 A 
ATOM     19 CL   UNL d   1      60.883  45.243  49.250  0.00  0.00    -0.082 Cl
ATOM     20  C   UNL d   1      62.165  45.842  49.544  0.00  0.00     0.011 A 
ATOM     21  C   UNL d   1      62.609  46.501  49.765  0.00  0.00     0.002 A 
ATOM     22  C   UNL d   1      62.538  45.124  49.392  0.00  0.00     0.001 C 
ATOM     23  C   UNL d   1      62.232  47.219  49.916  0.00  0.00     0.019 A 
ENDBRANCH  14  16
ENDBRANCH  12  13
ENDBRANCH   2  12
BRANCH   1  24
ATOM     24  C   UNL d   1      60.557  49.592  52.648  0.00  0.00     0.200 C 
ATOM     25  O   UNL d   1      60.044  49.708  53.303  0.00  0.00    -0.286 OA
BRANCH  24  26
ATOM     26  C   UNL d   1      61.367  49.498  52.769  0.00  0.00     0.039 A 
ATOM     27  C   UNL d   1      61.635  49.196  53.491  0.00  0.00     0.003 A 
ATOM     28  C   UNL d   1      62.446  49.102  53.611  0.00  0.00     0.000 A 
ATOM     29  C   UNL d   1      62.977  49.308  53.016  0.00  0.00     0.000 A 
ATOM     30  C   UNL d   1      62.698  49.610  52.298  0.00  0.00     0.000 A 
ATOM     31  C   UNL d   1      61.887  49.704  52.177  0.00  0.00     0.003 A 
ENDBRANCH  24  26
ENDBRANCH   1  24
BRANCH  10  32
ATOM     32  C   UNL d   1      57.166  49.701  49.991  0.00  0.00     0.000 C 
ATOM     33  C   UNL d   1      56.647  49.302  50.499  0.00  0.00     0.000 C 
ENDBRANCH  10  32
TORSDOF 6
ENDMDL
