MODEL 1
REMARK VINA RESULT:      -3.6      0.000      0.000
REMARK  8 active torsions:
REMARK  status: ('A' for Active; 'I' for Inactive)
REMARK    1  A    between atoms: S_5  and  C_2 
REMARK       I    between atoms: C_3  and  N_9 
REMARK    2  A    between atoms: C_16  and  C_3 
REMARK       I    between atoms: C_4  and  N_8 
REMARK    3  A    between atoms: C_17  and  C_4 
REMARK    4  A    between atoms: C_10  and  S_5 
REMARK    5  A    between atoms: S_11  and  C_6 
REMARK    6  A    between atoms: N_8  and  C_10 
REMARK    7  A    between atoms: N_9  and  C_12 
REMARK    8  A    between atoms: C_12  and  S_11 
ROOT
ATOM      1  N   UNL d   1      32.550  18.808 -23.563  0.00  0.00    -0.214 NA
ATOM      2  C   UNL d   1      32.323  18.382 -24.232  0.00  0.00     0.196 A 
ATOM      3  C   UNL d   1      33.009  19.486 -23.661  0.00  0.00     0.116 A 
ATOM      4  N   UNL d   1      32.547  18.620 -24.998  0.00  0.00    -0.220 NA
ATOM      5  C   UNL d   1      33.240  19.739 -24.401  0.00  0.00     0.047 A 
ATOM      6  C   UNL d   1      33.015  19.313 -25.070  0.00  0.00     0.103 A 
ENDROOT
BRANCH   2   7
ATOM      7  S   UNL d   1      31.857  17.687 -24.186  0.00  0.00    -0.027 SA
BRANCH   7   8
ATOM      8  C   UNL d   1      31.117  17.658 -24.518  0.00  0.00     0.141 C 
BRANCH   8   9
ATOM      9  N   UNL d   1      30.602  17.036 -24.249  0.00  0.00    -0.199 NA
ATOM     10  C   UNL d   1      29.767  17.179 -24.241  0.00  0.00     0.280 C 
ATOM     11  O   UNL d   1      29.472  17.908 -24.490  0.00  0.00    -0.265 OA
BRANCH  10  12
ATOM     12  C   UNL d   1      29.234  16.605 -23.988  0.00  0.00     0.058 A 
ATOM     13  C   UNL d   1      29.238  16.327 -23.211  0.00  0.00     0.005 A 
ATOM     14  C   UNL d   1      28.690  15.749 -22.981  0.00  0.00     0.000 A 
ATOM     15  C   UNL d   1      28.147  15.453 -23.520  0.00  0.00     0.000 A 
ATOM     16  C   UNL d   1      28.140  15.724 -24.283  0.00  0.00     0.000 A 
ATOM     17  C   UNL d   1      28.692  16.309 -24.522  0.00  0.00     0.005 A 
ENDBRANCH  10  12
ENDBRANCH   8   9
ENDBRANCH   7   8
ENDBRANCH   2   7
BRANCH   3  18
ATOM     18  S   UNL d   1      33.241  19.921 -22.993  0.00  0.00    -0.047 SA
BRANCH  18  19
ATOM     19  C   UNL d   1      32.666  20.260 -22.507  0.00  0.00     0.139 C 
BRANCH  19  20
ATOM     20  N   UNL d   1      32.810  20.980 -22.141  0.00  0.00    -0.199 NA
ATOM     21  C   UNL d   1      32.321  21.233 -21.532  0.00  0.00     0.280 C 
ATOM     22  O   UNL d   1      31.682  20.756 -21.290  0.00  0.00    -0.265 OA
BRANCH  21  23
ATOM     23  C   UNL d   1      32.464  21.957 -21.163  0.00  0.00     0.058 A 
ATOM     24  C   UNL d   1      32.603  22.632 -21.613  0.00  0.00     0.005 A 
ATOM     25  C   UNL d   1      32.748  23.365 -21.268  0.00  0.00     0.000 A 
ATOM     26  C   UNL d   1      32.757  23.436 -20.443  0.00  0.00     0.000 A 
ATOM     27  C   UNL d   1      32.618  22.762 -19.958  0.00  0.00     0.000 A 
ATOM     28  C   UNL d   1      32.474  22.029 -20.334  0.00  0.00     0.005 A 
ENDBRANCH  21  23
ENDBRANCH  19  20
ENDBRANCH  18  19
ENDBRANCH   3  18
TORSDOF 8
ENDMDL
MODEL 2
REMARK VINA RESULT:      -1.4      2.062      2.999
REMARK  8 active torsions:
REMARK  status: ('A' for Active; 'I' for Inactive)
REMARK    1  A    between atoms: S_5  and  C_2 
REMARK       I    between atoms: C_3  and  N_9 
REMARK    2  A    between atoms: C_16  and  C_3 
REMARK       I    between atoms: C_4  and  N_8 
REMARK    3  A    between atoms: C_17  and  C_4 
REMARK    4  A    between atoms: C_10  and  S_5 
REMARK    5  A    between atoms: S_11  and  C_6 
REMARK    6  A    between atoms: N_8  and  C_10 
REMARK    7  A    between atoms: N_9  and  C_12 
REMARK    8  A    between atoms: C_12  and  S_11 
ROOT
ATOM      1  N   UNL d   1      33.241  21.163 -22.586  0.00  0.00    -0.214 NA
ATOM      2  C   UNL d   1      33.129  20.803 -23.320  0.00  0.00     0.196 A 
ATOM      3  C   UNL d   1      33.128  21.977 -22.521  0.00  0.00     0.116 A 
ATOM      4  N   UNL d   1      32.905  21.243 -23.991  0.00  0.00    -0.220 NA
ATOM      5  C   UNL d   1      32.909  22.428 -23.164  0.00  0.00     0.047 A 
ATOM      6  C   UNL d   1      32.797  22.070 -23.898  0.00  0.00     0.103 A 
ENDROOT
BRANCH   2   7
ATOM      7  S   UNL d   1      33.231  19.980 -23.438  0.00  0.00    -0.027 SA
BRANCH   7   8
ATOM      8  C   UNL d   1      32.659  19.452 -23.209  0.00  0.00     0.141 C 
BRANCH   8   9
ATOM      9  N   UNL d   1      32.626  18.715 -23.634  0.00  0.00    -0.199 NA
ATOM     10  C   UNL d   1      32.389  18.018 -23.217  0.00  0.00     0.280 C 
ATOM     11  O   UNL d   1      32.196  18.063 -22.416  0.00  0.00    -0.265 OA
BRANCH  10  12
ATOM     12  C   UNL d   1      32.344  17.286 -23.591  0.00  0.00     0.058 A 
ATOM     13  C   UNL d   1      31.796  17.143 -24.191  0.00  0.00     0.005 A 
ATOM     14  C   UNL d   1      31.771  16.397 -24.552  0.00  0.00     0.000 A 
ATOM     15  C   UNL d   1      32.286  15.803 -24.316  0.00  0.00     0.000 A 
ATOM     16  C   UNL d   1      32.825  15.940 -23.727  0.00  0.00     0.000 A 
ATOM     17  C   UNL d   1      32.856  16.693 -23.358  0.00  0.00     0.005 A 
ENDBRANCH  10  12
ENDBRANCH   8   9
ENDBRANCH   7   8
ENDBRANCH   2   7
BRANCH   3  18
ATOM     18  S   UNL d   1      33.239  22.347 -21.785  0.00  0.00    -0.047 SA
BRANCH  18  19
ATOM     19  C   UNL d   1      32.664  22.268 -21.199  0.00  0.00     0.139 C 
BRANCH  19  20
ATOM     20  N   UNL d   1      32.863  22.382 -20.411  0.00  0.00    -0.199 NA
ATOM     21  C   UNL d   1      32.339  22.765 -19.908  0.00  0.00     0.280 C 
ATOM     22  O   UNL d   1      31.608  23.035 -20.203  0.00  0.00    -0.265 OA
BRANCH  21  23
ATOM     23  C   UNL d   1      32.537  22.880 -19.116  0.00  0.00     0.058 A 
ATOM     24  C   UNL d   1      32.299  23.563 -18.724  0.00  0.00     0.005 A 
ATOM     25  C   UNL d   1      32.484  23.701 -17.934  0.00  0.00     0.000 A 
ATOM     26  C   UNL d   1      32.923  23.140 -17.512  0.00  0.00     0.000 A 
ATOM     27  C   UNL d   1      33.180  22.432 -17.887  0.00  0.00     0.000 A 
ATOM     28  C   UNL d   1      32.978  22.317 -18.691  0.00  0.00     0.005 A 
ENDBRANCH  21  23
ENDBRANCH  19  20
ENDBRANCH  18  19
ENDBRANCH   3  18
TORSDOF 8
ENDMDL
