MODEL 1
REMARK VINA RESULT:      -6.5      0.000      0.000
REMARK  5 active torsions:
REMARK  status: ('A' for Active; 'I' for Inactive)
REMARK    1  A    between atoms: C_2  and  S_1 
REMARK    2  A    between atoms: N_3  and  S_1 
REMARK    3  A    between atoms: C_4  and  N_3 
REMARK    4  A    between atoms: O_16  and  C_9 
REMARK    5  A    between atoms: O_17  and  C_14 
ROOT
ATOM      1  C   UNL d   1     -47.601  13.548  22.784  0.00  0.00     0.118 A 
ATOM      2  C   UNL d   1     -48.167  13.024  23.077  0.00  0.00     0.046 A 
ATOM      3  C   UNL d   1     -46.803  13.353  22.820  0.00  0.00     0.113 A 
ATOM      4  C   UNL d   1     -46.566  12.632  23.149  0.00  0.00     0.028 A 
ATOM      5  C   UNL d   1     -47.935  12.306  23.405  0.00  0.00     0.096 A 
ATOM      6  C   UNL d   1     -47.132  12.109  23.441  0.00  0.00     0.026 A 
ENDROOT
BRANCH   1   7
ATOM      7  N   UNL d   1     -47.832  14.280  22.450  0.00  0.00    -0.156 NA
BRANCH   7   8
ATOM      8  S   UNL d   1     -48.613  14.561  22.556  0.00  0.00     0.291 S 
ATOM      9  O   UNL d   1     -48.392  14.874  23.287  0.00  0.00    -0.198 OA
ATOM     10  O   UNL d   1     -48.826  14.245  21.825  0.00  0.00    -0.198 OA
BRANCH   8  11
ATOM     11  C   UNL d   1     -49.382  14.838  22.664  0.00  0.00     0.135 A 
ATOM     12  S   UNL d   1     -49.511  15.338  23.171  0.00  0.00    -0.073 SA
ATOM     13  C   UNL d   1     -50.191  15.574  23.256  0.00  0.00     0.036 A 
ATOM     14  C   UNL d   1     -50.726  15.318  22.845  0.00  0.00     0.008 A 
ATOM     15  C   UNL d   1     -49.915  14.586  22.258  0.00  0.00     0.020 A 
ENDBRANCH   8  11
ENDBRANCH   7   8
ENDBRANCH   1   7
BRANCH   3  16
ATOM     16  O   UNL d   1     -46.236  13.877  22.527  0.00  0.00    -0.327 OA
ATOM     17  C   UNL d   1     -45.467  13.619  22.389  0.00  0.00     0.181 C 
ENDBRANCH   3  16
BRANCH   5  18
ATOM     18  O   UNL d   1     -48.502  11.782  23.698  0.00  0.00    -0.328 OA
ATOM     19  C   UNL d   1     -48.691  11.102  23.276  0.00  0.00     0.181 C 
ENDBRANCH   5  18
TORSDOF 5
ENDMDL
MODEL 2
REMARK VINA RESULT:      -6.5      1.242      3.377
REMARK  5 active torsions:
REMARK  status: ('A' for Active; 'I' for Inactive)
REMARK    1  A    between atoms: C_2  and  S_1 
REMARK    2  A    between atoms: N_3  and  S_1 
REMARK    3  A    between atoms: C_4  and  N_3 
REMARK    4  A    between atoms: O_16  and  C_9 
REMARK    5  A    between atoms: O_17  and  C_14 
ROOT
ATOM      1  C   UNL d   1     -48.882  14.451  22.647  0.00  0.00     0.118 A 
ATOM      2  C   UNL d   1     -48.971  13.834  22.106  0.00  0.00     0.046 A 
ATOM      3  C   UNL d   1     -49.538  14.886  22.886  0.00  0.00     0.113 A 
ATOM      4  C   UNL d   1     -50.287  14.706  22.586  0.00  0.00     0.028 A 
ATOM      5  C   UNL d   1     -49.715  13.652  21.806  0.00  0.00     0.096 A 
ATOM      6  C   UNL d   1     -50.376  14.089  22.046  0.00  0.00     0.026 A 
ENDROOT
BRANCH   1   7
ATOM      7  N   UNL d   1     -48.128  14.640  22.956  0.00  0.00    -0.156 NA
BRANCH   7   8
ATOM      8  S   UNL d   1     -47.514  14.071  22.938  0.00  0.00     0.291 S 
ATOM      9  O   UNL d   1     -47.206  14.435  22.265  0.00  0.00    -0.198 OA
ATOM     10  O   UNL d   1     -47.827  13.713  23.612  0.00  0.00    -0.198 OA
BRANCH   8  11
ATOM     11  C   UNL d   1     -46.908  13.512  22.919  0.00  0.00     0.135 A 
ATOM     12  S   UNL d   1     -46.298  13.663  22.560  0.00  0.00    -0.073 SA
ATOM     13  C   UNL d   1     -45.773  13.163  22.550  0.00  0.00     0.036 A 
ATOM     14  C   UNL d   1     -45.856  12.531  22.889  0.00  0.00     0.008 A 
ATOM     15  C   UNL d   1     -46.987  12.884  23.254  0.00  0.00     0.020 A 
ENDBRANCH   8  11
ENDBRANCH   7   8
ENDBRANCH   1   7
BRANCH   3  16
ATOM     16  O   UNL d   1     -49.449  15.503  23.427  0.00  0.00    -0.327 OA
ATOM     17  C   UNL d   1     -50.108  15.922  23.687  0.00  0.00     0.181 C 
ENDBRANCH   3  16
BRANCH   5  18
ATOM     18  O   UNL d   1     -49.804  13.035  21.266  0.00  0.00    -0.328 OA
ATOM     19  C   UNL d   1     -50.335  12.426  21.419  0.00  0.00     0.181 C 
ENDBRANCH   5  18
TORSDOF 5
ENDMDL
MODEL 3
REMARK VINA RESULT:      -5.3      8.193      9.456
REMARK  5 active torsions:
REMARK  status: ('A' for Active; 'I' for Inactive)
REMARK    1  A    between atoms: C_2  and  S_1 
REMARK    2  A    between atoms: N_3  and  S_1 
REMARK    3  A    between atoms: C_4  and  N_3 
REMARK    4  A    between atoms: O_16  and  C_9 
REMARK    5  A    between atoms: O_17  and  C_14 
ROOT
ATOM      1  C   UNL d   1     -40.091  14.384  18.324  0.00  0.00     0.118 A 
ATOM      2  C   UNL d   1     -40.622  14.995  18.165  0.00  0.00     0.046 A 
ATOM      3  C   UNL d   1     -39.643  14.059  17.715  0.00  0.00     0.113 A 
ATOM      4  C   UNL d   1     -39.723  14.345  16.943  0.00  0.00     0.028 A 
ATOM      5  C   UNL d   1     -40.704  15.282  17.397  0.00  0.00     0.096 A 
ATOM      6  C   UNL d   1     -40.253  14.956  16.784  0.00  0.00     0.026 A 
ENDROOT
BRANCH   1   7
ATOM      7  N   UNL d   1     -40.004  14.089  19.102  0.00  0.00    -0.156 NA
BRANCH   7   8
ATOM      8  S   UNL d   1     -40.160  14.585  19.757  0.00  0.00     0.291 S 
ATOM      9  O   UNL d   1     -40.914  14.254  19.818  0.00  0.00    -0.198 OA
ATOM     10  O   UNL d   1     -39.405  14.911  19.691  0.00  0.00    -0.198 OA
BRANCH   8  11
ATOM     11  C   UNL d   1     -40.317  15.073  20.404  0.00  0.00     0.135 A 
ATOM     12  S   UNL d   1     -39.770  15.416  20.730  0.00  0.00    -0.073 SA
ATOM     13  C   UNL d   1     -39.921  15.842  21.297  0.00  0.00     0.036 A 
ATOM     14  C   UNL d   1     -40.600  15.922  21.530  0.00  0.00     0.008 A 
ATOM     15  C   UNL d   1     -40.989  15.155  20.637  0.00  0.00     0.020 A 
ENDBRANCH   8  11
ENDBRANCH   7   8
ENDBRANCH   1   7
BRANCH   3  16
ATOM     16  O   UNL d   1     -39.112  13.448  17.874  0.00  0.00    -0.327 OA
ATOM     17  C   UNL d   1     -38.677  13.109  17.263  0.00  0.00     0.181 C 
ENDBRANCH   3  16
BRANCH   5  18
ATOM     18  O   UNL d   1     -41.234  15.893  17.238  0.00  0.00    -0.328 OA
ATOM     19  C   UNL d   1     -41.640  15.911  16.523  0.00  0.00     0.181 C 
ENDBRANCH   5  18
TORSDOF 5
ENDMDL
MODEL 4
REMARK VINA RESULT:      -5.2      8.541      9.503
REMARK  5 active torsions:
REMARK  status: ('A' for Active; 'I' for Inactive)
REMARK    1  A    between atoms: C_2  and  S_1 
REMARK    2  A    between atoms: N_3  and  S_1 
REMARK    3  A    between atoms: C_4  and  N_3 
REMARK    4  A    between atoms: O_16  and  C_9 
REMARK    5  A    between atoms: O_17  and  C_14 
ROOT
ATOM      1  C   UNL d   1     -40.376  14.856  18.472  0.00  0.00     0.118 A 
ATOM      2  C   UNL d   1     -39.821  14.265  18.624  0.00  0.00     0.046 A 
ATOM      3  C   UNL d   1     -40.559  15.059  17.696  0.00  0.00     0.113 A 
ATOM      4  C   UNL d   1     -40.187  14.672  17.067  0.00  0.00     0.028 A 
ATOM      5  C   UNL d   1     -39.449  13.877  18.000  0.00  0.00     0.096 A 
ATOM      6  C   UNL d   1     -39.632  14.081  17.219  0.00  0.00     0.026 A 
ENDROOT
BRANCH   1   7
ATOM      7  N   UNL d   1     -40.758  15.253  19.102  0.00  0.00    -0.156 NA
BRANCH   7   8
ATOM      8  S   UNL d   1     -40.402  15.273  19.860  0.00  0.00     0.291 S 
ATOM      9  O   UNL d   1     -39.950  15.920  19.621  0.00  0.00    -0.198 OA
ATOM     10  O   UNL d   1     -40.859  14.625  20.091  0.00  0.00    -0.198 OA
BRANCH   8  11
ATOM     11  C   UNL d   1     -40.051  15.295  20.605  0.00  0.00     0.135 A 
ATOM     12  S   UNL d   1     -39.710  15.896  20.818  0.00  0.00    -0.073 SA
ATOM     13  C   UNL d   1     -39.405  15.903  21.476  0.00  0.00     0.036 A 
ATOM     14  C   UNL d   1     -39.440  15.325  21.907  0.00  0.00     0.008 A 
ATOM     15  C   UNL d   1     -40.084  14.724  21.035  0.00  0.00     0.020 A 
ENDBRANCH   8  11
ENDBRANCH   7   8
ENDBRANCH   1   7
BRANCH   3  16
ATOM     16  O   UNL d   1     -41.115  15.650  17.544  0.00  0.00    -0.327 OA
ATOM     17  C   UNL d   1     -41.370  15.788  16.774  0.00  0.00     0.181 C 
ENDBRANCH   3  16
BRANCH   5  18
ATOM     18  O   UNL d   1     -38.894  13.286  18.152  0.00  0.00    -0.328 OA
ATOM     19  C   UNL d   1     -38.601  12.828  17.535  0.00  0.00     0.181 C 
ENDBRANCH   5  18
TORSDOF 5
ENDMDL
MODEL 5
REMARK VINA RESULT:      -4.8      8.074      9.367
REMARK  5 active torsions:
REMARK  status: ('A' for Active; 'I' for Inactive)
REMARK    1  A    between atoms: C_2  and  S_1 
REMARK    2  A    between atoms: N_3  and  S_1 
REMARK    3  A    between atoms: C_4  and  N_3 
REMARK    4  A    between atoms: O_16  and  C_9 
REMARK    5  A    between atoms: O_17  and  C_14 
ROOT
ATOM      1  C   UNL d   1     -39.717  14.373  19.512  0.00  0.00     0.118 A 
ATOM      2  C   UNL d   1     -40.442  14.692  19.744  0.00  0.00     0.046 A 
ATOM      3  C   UNL d   1     -39.128  14.240  20.070  0.00  0.00     0.113 A 
ATOM      4  C   UNL d   1     -39.261  14.425  20.865  0.00  0.00     0.028 A 
ATOM      5  C   UNL d   1     -40.577  14.877  20.535  0.00  0.00     0.096 A 
ATOM      6  C   UNL d   1     -39.986  14.743  21.097  0.00  0.00     0.026 A 
ENDROOT
BRANCH   1   7
ATOM      7  N   UNL d   1     -39.574  14.184  18.709  0.00  0.00    -0.156 NA
BRANCH   7   8
ATOM      8  S   UNL d   1     -39.992  14.584  18.104  0.00  0.00     0.291 S 
ATOM      9  O   UNL d   1     -39.475  15.222  18.180  0.00  0.00    -0.198 OA
ATOM     10  O   UNL d   1     -40.505  13.941  18.034  0.00  0.00    -0.198 OA
BRANCH   8  11
ATOM     11  C   UNL d   1     -40.402  14.980  17.508  0.00  0.00     0.135 A 
ATOM     12  S   UNL d   1     -40.031  15.356  17.013  0.00  0.00    -0.073 SA
ATOM     13  C   UNL d   1     -40.403  15.700  16.494  0.00  0.00     0.036 A 
ATOM     14  C   UNL d   1     -41.123  15.668  16.472  0.00  0.00     0.008 A 
ATOM     15  C   UNL d   1     -41.116  14.951  17.483  0.00  0.00     0.020 A 
ENDBRANCH   8  11
ENDBRANCH   7   8
ENDBRANCH   1   7
BRANCH   3  16
ATOM     16  O   UNL d   1     -38.403  13.922  19.838  0.00  0.00    -0.327 OA
ATOM     17  C   UNL d   1     -37.992  13.419  20.343  0.00  0.00     0.181 C 
ENDBRANCH   3  16
BRANCH   5  18
ATOM     18  O   UNL d   1     -41.302  15.195  20.767  0.00  0.00    -0.328 OA
ATOM     19  C   UNL d   1     -41.329  15.921  21.153  0.00  0.00     0.181 C 
ENDBRANCH   5  18
TORSDOF 5
ENDMDL
