MODEL 1
REMARK VINA RESULT:      52.2      0.000      0.000
REMARK  4 active torsions:
REMARK  status: ('A' for Active; 'I' for Inactive)
REMARK    1  A    between atoms: C_3  and  C_1 
REMARK    2  A    between atoms: C_4  and  C_3 
REMARK    3  A    between atoms: C_7  and  C_4 
REMARK    4  A    between atoms: C_14  and  C_7 
ROOT
ATOM      1  C   UNL d   1     -50.561  25.867  33.641  0.00  0.00     0.042 C 
ENDROOT
BRANCH   1   2
ATOM      2  C   UNL d   1     -50.485  25.059  33.460  0.00  0.00     0.199 C 
ATOM      3  O   UNL d   1     -49.706  24.727  33.312  0.00  0.00    -0.286 OA
BRANCH   2   4
ATOM      4  C   UNL d   1     -51.142  24.601  33.426  0.00  0.00     0.078 A 
ATOM      5  C   UNL d   1     -51.091  23.779  33.474  0.00  0.00     0.199 A 
ATOM      6  C   UNL d   1     -51.771  23.321  33.439  0.00  0.00     0.042 A 
ATOM      7  O   UNL d   1     -50.346  23.394  33.560  0.00  0.00    -0.286 OA
ATOM      8  C   UNL d   1     -52.508  23.684  33.355  0.00  0.00     0.003 A 
ATOM      9  C   UNL d   1     -52.560  24.506  33.307  0.00  0.00     0.000 A 
ATOM     10  C   UNL d   1     -53.190  23.226  33.319  0.00  0.00     0.000 C 
ATOM     11  C   UNL d   1     -51.873  24.965  33.343  0.00  0.00     0.006 A 
ENDBRANCH   2   4
ENDBRANCH   1   2
BRANCH   1  12
ATOM     12  C   UNL d   1     -50.046  26.420  33.306  0.00  0.00     0.003 C 
BRANCH  12  13
ATOM     13  C   UNL d   1     -49.759  27.041  33.761  0.00  0.00     0.002 A 
ATOM     14  C   UNL d   1     -48.960  27.064  33.970  0.00  0.00     0.027 A 
ATOM     15  C   UNL d   1     -48.674  27.685  34.425  0.00  0.00     0.123 A 
ATOM     16  O   UNL d   1     -47.870  27.710  34.637  0.00  0.00    -0.301 OA
ATOM     17  C   UNL d   1     -49.182  28.285  34.674  0.00  0.00     0.123 A 
ATOM     18  C   UNL d   1     -47.579  28.334  35.095  0.00  0.00     0.149 A 
ATOM     19  C   UNL d   1     -48.087  28.934  35.343  0.00  0.00     0.149 A 
ATOM     20  O   UNL d   1     -48.886  28.911  35.134  0.00  0.00    -0.301 OA
ATOM     21  C   UNL d   1     -49.976  28.265  34.467  0.00  0.00     0.027 A 
ATOM     22  C   UNL d   1     -50.268  27.642  34.010  0.00  0.00     0.002 A 
ENDBRANCH  12  13
ENDBRANCH   1  12
TORSDOF 4
ENDMDL
MODEL 2
REMARK VINA RESULT:      53.1      0.975      4.969
REMARK  4 active torsions:
REMARK  status: ('A' for Active; 'I' for Inactive)
REMARK    1  A    between atoms: C_3  and  C_1 
REMARK    2  A    between atoms: C_4  and  C_3 
REMARK    3  A    between atoms: C_7  and  C_4 
REMARK    4  A    between atoms: C_14  and  C_7 
ROOT
ATOM      1  C   UNL d   1     -49.466  27.261  34.182  0.00  0.00     0.042 C 
ENDROOT
BRANCH   1   2
ATOM      2  C   UNL d   1     -48.673  27.325  34.422  0.00  0.00     0.199 C 
ATOM      3  O   UNL d   1     -48.123  26.686  34.256  0.00  0.00    -0.286 OA
BRANCH   2   4
ATOM      4  C   UNL d   1     -48.433  27.985  34.808  0.00  0.00     0.078 A 
ATOM      5  C   UNL d   1     -48.750  28.188  35.542  0.00  0.00     0.199 A 
ATOM      6  C   UNL d   1     -48.497  28.867  35.927  0.00  0.00     0.042 A 
ATOM      7  O   UNL d   1     -49.337  27.707  35.910  0.00  0.00    -0.286 OA
ATOM      8  C   UNL d   1     -47.923  29.349  35.579  0.00  0.00     0.003 A 
ATOM      9  C   UNL d   1     -47.605  29.146  34.845  0.00  0.00     0.000 A 
ATOM     10  C   UNL d   1     -47.669  30.029  35.965  0.00  0.00     0.000 C 
ATOM     11  C   UNL d   1     -47.862  28.462  34.459  0.00  0.00     0.006 A 
ENDBRANCH   2   4
ENDBRANCH   1   2
BRANCH   1  12
ATOM     12  C   UNL d   1     -49.658  26.875  33.476  0.00  0.00     0.003 C 
BRANCH  12  13
ATOM     13  C   UNL d   1     -50.336  26.413  33.433  0.00  0.00     0.002 A 
ATOM     14  C   UNL d   1     -50.276  25.589  33.467  0.00  0.00     0.027 A 
ATOM     15  C   UNL d   1     -50.954  25.128  33.424  0.00  0.00     0.123 A 
ATOM     16  O   UNL d   1     -50.896  24.299  33.458  0.00  0.00    -0.301 OA
ATOM     17  C   UNL d   1     -51.694  25.484  33.348  0.00  0.00     0.123 A 
ATOM     18  C   UNL d   1     -51.577  23.832  33.415  0.00  0.00     0.149 A 
ATOM     19  C   UNL d   1     -52.317  24.188  33.339  0.00  0.00     0.149 A 
ATOM     20  O   UNL d   1     -52.377  25.011  33.306  0.00  0.00    -0.301 OA
ATOM     21  C   UNL d   1     -51.756  26.302  33.314  0.00  0.00     0.027 A 
ATOM     22  C   UNL d   1     -51.077  26.769  33.357  0.00  0.00     0.002 A 
ENDBRANCH  12  13
ENDBRANCH   1  12
TORSDOF 4
ENDMDL
