MODEL 1
REMARK VINA RESULT:      21.8      0.000      0.000
REMARK  2 active torsions:
REMARK  status: ('A' for Active; 'I' for Inactive)
REMARK    1  A    between atoms: S_4  and  C_1 
REMARK    2  A    between atoms: C_9  and  S_4 
ROOT
ATOM      1  C   UNL d   1      14.577  12.496  -0.957  0.00  0.00     0.107 A 
ATOM      2  C   UNL d   1      14.052  13.104  -0.739  0.00  0.00     0.201 A 
ATOM      3  C   UNL d   1      15.368  12.550  -0.863  0.00  0.00     0.201 A 
ATOM      4  C   UNL d   1      15.207  13.856  -0.309  0.00  0.00     0.043 A 
ATOM      5  C   UNL d   1      14.372  13.795  -0.411  0.00  0.00     0.020 A 
ATOM      6  C   UNL d   1      15.697  13.230  -0.538  0.00  0.00     0.020 A 
ATOM      7  O   UNL d   1      15.829  11.922  -1.094  0.00  0.00    -0.286 OA
ATOM      8  O   UNL d   1      13.238  13.059  -0.832  0.00  0.00    -0.286 OA
ATOM      9  C   UNL d   1      15.923  14.165  -0.111  0.00  0.00     0.009 C 
ATOM     10  C   UNL d   1      14.972  14.584  -0.014  0.00  0.00     0.009 C 
ENDROOT
BRANCH   1  11
ATOM     11  S   UNL d   1      14.260  11.779  -1.297  0.00  0.00    -0.081 SA
BRANCH  11  12
ATOM     12  C   UNL d   1      13.906  11.819  -2.060  0.00  0.00     0.030 A 
ATOM     13  C   UNL d   1      13.085  11.781  -2.158  0.00  0.00     0.007 A 
ATOM     14  C   UNL d   1      12.770  11.823  -2.919  0.00  0.00     0.007 A 
ATOM     15  C   UNL d   1      13.259  11.901  -3.574  0.00  0.00     0.035 A 
ATOM     16  C   UNL d   1      14.075  11.938  -3.464  0.00  0.00     0.007 A 
ATOM     17 BR   UNL d   1      12.924  11.942  -4.338  0.00  0.00    -0.049 Br
ATOM     18  C   UNL d   1      14.407  11.897  -2.711  0.00  0.00     0.007 A 
ENDBRANCH  11  12
ENDBRANCH   1  11
TORSDOF 2
ENDMDL
MODEL 2
REMARK VINA RESULT:      23.1      1.327      1.742
REMARK  2 active torsions:
REMARK  status: ('A' for Active; 'I' for Inactive)
REMARK    1  A    between atoms: S_4  and  C_1 
REMARK    2  A    between atoms: C_9  and  S_4 
ROOT
ATOM      1  C   UNL d   1      13.826  11.934  -1.976  0.00  0.00     0.107 A 
ATOM      2  C   UNL d   1      13.561  12.040  -1.194  0.00  0.00     0.201 A 
ATOM      3  C   UNL d   1      14.597  11.971  -2.181  0.00  0.00     0.201 A 
ATOM      4  C   UNL d   1      14.942  12.229  -0.820  0.00  0.00     0.043 A 
ATOM      5  C   UNL d   1      14.127  12.190  -0.607  0.00  0.00     0.020 A 
ATOM      6  C   UNL d   1      15.167  12.118  -1.609  0.00  0.00     0.020 A 
ATOM      7  O   UNL d   1      14.795  11.859  -2.962  0.00  0.00    -0.286 OA
ATOM      8  O   UNL d   1      12.771  12.004  -0.972  0.00  0.00    -0.286 OA
ATOM      9  C   UNL d   1      15.739  12.315  -0.746  0.00  0.00     0.009 C 
ATOM     10  C   UNL d   1      14.997  12.369  -0.014  0.00  0.00     0.009 C 
ENDROOT
BRANCH   1  11
ATOM     11  S   UNL d   1      13.253  11.779  -2.589  0.00  0.00    -0.081 SA
BRANCH  11  12
ATOM     12  C   UNL d   1      13.179  12.334  -3.220  0.00  0.00     0.030 A 
ATOM     13  C   UNL d   1      13.194  13.149  -3.082  0.00  0.00     0.007 A 
ATOM     14  C   UNL d   1      13.119  13.665  -3.720  0.00  0.00     0.007 A 
ATOM     15  C   UNL d   1      13.030  13.379  -4.485  0.00  0.00     0.035 A 
ATOM     16  C   UNL d   1      13.015  12.564  -4.610  0.00  0.00     0.007 A 
ATOM     17 BR   UNL d   1      12.955  13.915  -5.121  0.00  0.00    -0.049 Br
ATOM     18  C   UNL d   1      13.089  12.035  -3.983  0.00  0.00     0.007 A 
ENDBRANCH  11  12
ENDBRANCH   1  11
TORSDOF 2
ENDMDL
MODEL 3
REMARK VINA RESULT:      24.6      0.514      1.491
REMARK  2 active torsions:
REMARK  status: ('A' for Active; 'I' for Inactive)
REMARK    1  A    between atoms: S_4  and  C_1 
REMARK    2  A    between atoms: C_9  and  S_4 
ROOT
ATOM      1  C   UNL d   1      14.634  12.952  -0.591  0.00  0.00     0.107 A 
ATOM      2  C   UNL d   1      15.463  12.969  -0.510  0.00  0.00     0.201 A 
ATOM      3  C   UNL d   1      14.174  13.593  -0.480  0.00  0.00     0.201 A 
ATOM      4  C   UNL d   1      15.335  14.370  -0.185  0.00  0.00     0.043 A 
ATOM      5  C   UNL d   1      15.818  13.689  -0.303  0.00  0.00     0.020 A 
ATOM      6  C   UNL d   1      14.514  14.313  -0.275  0.00  0.00     0.020 A 
ATOM      7  O   UNL d   1      13.370  13.514  -0.574  0.00  0.00    -0.286 OA
ATOM      8  O   UNL d   1      15.946  12.316  -0.621  0.00  0.00    -0.286 OA
ATOM      9  C   UNL d   1      15.128  15.130  -0.022  0.00  0.00     0.009 C 
ATOM     10  C   UNL d   1      16.074  14.692  -0.039  0.00  0.00     0.009 C 
ENDROOT
BRANCH   1  11
ATOM     11  S   UNL d   1      14.256  12.216  -0.803  0.00  0.00    -0.081 SA
BRANCH  11  12
ATOM     12  C   UNL d   1      13.990  12.115  -1.596  0.00  0.00     0.030 A 
ATOM     13  C   UNL d   1      14.495  12.236  -2.240  0.00  0.00     0.007 A 
ATOM     14  C   UNL d   1      14.203  12.129  -3.004  0.00  0.00     0.007 A 
ATOM     15  C   UNL d   1      13.423  11.904  -3.130  0.00  0.00     0.035 A 
ATOM     16  C   UNL d   1      12.930  11.786  -2.480  0.00  0.00     0.007 A 
ATOM     17 BR   UNL d   1      13.143  11.800  -3.909  0.00  0.00    -0.049 Br
ATOM     18  C   UNL d   1      13.205  11.889  -1.711  0.00  0.00     0.007 A 
ENDBRANCH  11  12
ENDBRANCH   1  11
TORSDOF 2
ENDMDL
