MODEL 1
REMARK VINA RESULT:      -6.4      0.000      0.000
REMARK  4 active torsions:
REMARK  status: ('A' for Active; 'I' for Inactive)
REMARK    1  A    between atoms: C_23  and  N_1 
REMARK       I    between atoms: N_7  and  C_10 
REMARK    2  A    between atoms: C_10  and  C_25 
REMARK    3  A    between atoms: C_26  and  C_23 
REMARK    4  A    between atoms: C_25  and  C_26 
ROOT
ATOM      1  N   UNL d   1     -46.126  12.306  23.012  0.00  0.00    -0.249 N 
ATOM      2  C   UNL d   1     -45.704  12.848  22.557  0.00  0.00     0.268 A 
ATOM      3  C   UNL d   1     -45.776  11.606  23.238  0.00  0.00     0.208 A 
ATOM      4  C   UNL d   1     -44.928  12.684  22.329  0.00  0.00     0.076 A 
ATOM      5  C   UNL d   1     -44.578  11.983  22.554  0.00  0.00     0.090 A 
ATOM      6  N   UNL d   1     -45.012  11.460  23.004  0.00  0.00    -0.218 NA
ATOM      7  C   UNL d   1     -44.502  13.227  21.871  0.00  0.00     0.033 A 
ATOM      8  C   UNL d   1     -43.808  11.839  22.317  0.00  0.00     0.046 A 
ATOM      9  C   UNL d   1     -43.715  13.066  21.636  0.00  0.00     0.119 A 
ATOM     10  C   UNL d   1     -43.376  12.361  21.868  0.00  0.00     0.121 A 
ATOM     11  S   UNL d   1     -46.217  11.074  23.696  0.00  0.00    -0.038 SA
ATOM     12  O   UNL d   1     -46.050  13.542  22.334  0.00  0.00    -0.267 OA
ATOM     13  O   UNL d   1     -43.159  13.479  21.194  0.00  0.00    -0.300 OA
ATOM     14  O   UNL d   1     -42.606  12.365  21.554  0.00  0.00    -0.299 OA
ATOM     15  C   UNL d   1     -42.467  13.050  21.139  0.00  0.00     0.304 A 
ENDROOT
BRANCH   1  16
ATOM     16  C   UNL d   1     -46.913  12.467  23.247  0.00  0.00     0.085 C 
BRANCH  16  17
ATOM     17  C   UNL d   1     -47.517  12.322  22.733  0.00  0.00     0.024 C 
BRANCH  17  18
ATOM     18  C   UNL d   1     -48.279  12.497  22.959  0.00  0.00     0.063 C 
BRANCH  18  19
ATOM     19  C   UNL d   1     -48.870  12.487  22.410  0.00  0.00     0.265 C 
ATOM     20  N   UNL d   1     -49.419  13.103  22.399  0.00  0.00    -0.272 N 
ATOM     21  C   UNL d   1     -49.351  13.720  22.955  0.00  0.00     0.083 A 
ATOM     22  C   UNL d   1     -50.027  13.104  21.844  0.00  0.00     0.083 A 
ATOM     23  C   UNL d   1     -49.899  14.340  22.949  0.00  0.00     0.018 A 
ATOM     24  C   UNL d   1     -49.833  14.950  23.496  0.00  0.00     0.002 A 
ATOM     25  C   UNL d   1     -50.518  14.347  22.387  0.00  0.00     0.003 A 
ATOM     26  C   UNL d   1     -50.382  15.570  23.489  0.00  0.00     0.000 A 
ATOM     27  C   UNL d   1     -50.998  15.577  22.931  0.00  0.00     0.000 A 
ATOM     28  C   UNL d   1     -51.061  14.962  22.382  0.00  0.00     0.000 A 
ATOM     29  C   UNL d   1     -50.578  13.726  21.836  0.00  0.00     0.019 A 
ATOM     30  O   UNL d   1     -48.904  11.851  21.871  0.00  0.00    -0.267 OA
ENDBRANCH  18  19
ENDBRANCH  17  18
ENDBRANCH  16  17
ENDBRANCH   1  16
TORSDOF 4
ENDMDL
MODEL 2
REMARK VINA RESULT:      -4.9      1.867      6.220
REMARK  4 active torsions:
REMARK  status: ('A' for Active; 'I' for Inactive)
REMARK    1  A    between atoms: C_23  and  N_1 
REMARK       I    between atoms: N_7  and  C_10 
REMARK    2  A    between atoms: C_10  and  C_25 
REMARK    3  A    between atoms: C_26  and  C_23 
REMARK    4  A    between atoms: C_25  and  C_26 
ROOT
ATOM      1  N   UNL d   1     -46.035  13.329  22.757  0.00  0.00    -0.249 N 
ATOM      2  C   UNL d   1     -46.340  12.617  23.037  0.00  0.00     0.268 A 
ATOM      3  C   UNL d   1     -46.540  13.930  22.539  0.00  0.00     0.208 A 
ATOM      4  C   UNL d   1     -47.156  12.510  23.099  0.00  0.00     0.076 A 
ATOM      5  C   UNL d   1     -47.662  13.111  22.881  0.00  0.00     0.090 A 
ATOM      6  N   UNL d   1     -47.341  13.807  22.606  0.00  0.00    -0.218 NA
ATOM      7  C   UNL d   1     -47.465  11.795  23.381  0.00  0.00     0.033 A 
ATOM      8  C   UNL d   1     -48.468  12.984  22.950  0.00  0.00     0.046 A 
ATOM      9  C   UNL d   1     -48.292  11.681  23.446  0.00  0.00     0.119 A 
ATOM     10  C   UNL d   1     -48.787  12.290  23.224  0.00  0.00     0.121 A 
ATOM     11  S   UNL d   1     -46.214  14.639  22.258  0.00  0.00    -0.038 SA
ATOM     12  O   UNL d   1     -45.839  12.022  23.253  0.00  0.00    -0.267 OA
ATOM     13  O   UNL d   1     -48.759  11.054  23.698  0.00  0.00    -0.300 OA
ATOM     14  O   UNL d   1     -49.560  12.011  23.351  0.00  0.00    -0.299 OA
ATOM     15  C   UNL d   1     -49.549  11.252  23.642  0.00  0.00     0.304 A 
ENDROOT
BRANCH   1  16
ATOM     16  C   UNL d   1     -45.208  13.443  22.692  0.00  0.00     0.085 C 
BRANCH  16  17
ATOM     17  C   UNL d   1     -44.811  13.119  22.069  0.00  0.00     0.024 C 
BRANCH  17  18
ATOM     18  C   UNL d   1     -44.123  13.469  21.814  0.00  0.00     0.063 C 
BRANCH  18  19
ATOM     19  C   UNL d   1     -43.506  13.009  21.572  0.00  0.00     0.265 C 
ATOM     20  N   UNL d   1     -42.809  13.370  21.318  0.00  0.00    -0.272 N 
ATOM     21  C   UNL d   1     -42.757  14.201  21.318  0.00  0.00     0.083 A 
ATOM     22  C   UNL d   1     -42.173  12.910  21.069  0.00  0.00     0.083 A 
ATOM     23  C   UNL d   1     -42.061  14.569  21.066  0.00  0.00     0.018 A 
ATOM     24  C   UNL d   1     -42.008  15.390  21.065  0.00  0.00     0.002 A 
ATOM     25  C   UNL d   1     -41.412  14.108  20.811  0.00  0.00     0.003 A 
ATOM     26  C   UNL d   1     -41.310  15.756  20.811  0.00  0.00     0.000 A 
ATOM     27  C   UNL d   1     -40.665  15.298  20.559  0.00  0.00     0.000 A 
ATOM     28  C   UNL d   1     -40.720  14.473  20.560  0.00  0.00     0.000 A 
ATOM     29  C   UNL d   1     -41.473  13.277  20.815  0.00  0.00     0.019 A 
ATOM     30  O   UNL d   1     -43.598  12.179  21.587  0.00  0.00    -0.267 OA
ENDBRANCH  18  19
ENDBRANCH  17  18
ENDBRANCH  16  17
ENDBRANCH   1  16
TORSDOF 4
ENDMDL
MODEL 3
REMARK VINA RESULT:      -4.7      3.428      5.769
REMARK  4 active torsions:
REMARK  status: ('A' for Active; 'I' for Inactive)
REMARK    1  A    between atoms: C_23  and  N_1 
REMARK       I    between atoms: N_7  and  C_10 
REMARK    2  A    between atoms: C_10  and  C_25 
REMARK    3  A    between atoms: C_26  and  C_23 
REMARK    4  A    between atoms: C_25  and  C_26 
ROOT
ATOM      1  N   UNL d   1     -41.147  14.284  20.291  0.00  0.00    -0.249 N 
ATOM      2  C   UNL d   1     -41.051  14.076  19.500  0.00  0.00     0.268 A 
ATOM      3  C   UNL d   1     -40.509  14.551  20.722  0.00  0.00     0.208 A 
ATOM      4  C   UNL d   1     -40.310  14.139  19.141  0.00  0.00     0.076 A 
ATOM      5  C   UNL d   1     -39.672  14.406  19.571  0.00  0.00     0.090 A 
ATOM      6  N   UNL d   1     -39.787  14.606  20.352  0.00  0.00    -0.218 NA
ATOM      7  C   UNL d   1     -40.211  13.931  18.345  0.00  0.00     0.033 A 
ATOM      8  C   UNL d   1     -38.946  14.460  19.196  0.00  0.00     0.046 A 
ATOM      9  C   UNL d   1     -39.463  13.992  17.976  0.00  0.00     0.119 A 
ATOM     10  C   UNL d   1     -38.832  14.260  18.416  0.00  0.00     0.121 A 
ATOM     11  S   UNL d   1     -40.626  14.755  21.517  0.00  0.00    -0.038 SA
ATOM     12  O   UNL d   1     -41.683  13.812  19.073  0.00  0.00    -0.267 OA
ATOM     13  O   UNL d   1     -39.191  13.833  17.216  0.00  0.00    -0.300 OA
ATOM     14  O   UNL d   1     -38.178  14.258  17.903  0.00  0.00    -0.299 OA
ATOM     15  C   UNL d   1     -38.393  13.997  17.164  0.00  0.00     0.304 A 
ENDROOT
BRANCH   1  16
ATOM     16  C   UNL d   1     -41.895  14.223  20.660  0.00  0.00     0.085 C 
BRANCH  16  17
ATOM     17  C   UNL d   1     -42.159  13.501  20.905  0.00  0.00     0.024 C 
BRANCH  17  18
ATOM     18  C   UNL d   1     -42.925  13.428  21.168  0.00  0.00     0.063 C 
BRANCH  18  19
ATOM     19  C   UNL d   1     -43.160  12.745  21.528  0.00  0.00     0.265 C 
ATOM     20  N   UNL d   1     -43.902  12.715  21.887  0.00  0.00    -0.272 N 
ATOM     21  C   UNL d   1     -44.392  13.388  21.870  0.00  0.00     0.083 A 
ATOM     22  C   UNL d   1     -44.153  12.024  22.258  0.00  0.00     0.083 A 
ATOM     23  C   UNL d   1     -45.137  13.364  22.229  0.00  0.00     0.018 A 
ATOM     24  C   UNL d   1     -45.621  14.028  22.213  0.00  0.00     0.002 A 
ATOM     25  C   UNL d   1     -45.397  12.665  22.607  0.00  0.00     0.003 A 
ATOM     26  C   UNL d   1     -46.367  14.001  22.572  0.00  0.00     0.000 A 
ATOM     27  C   UNL d   1     -46.626  13.307  22.948  0.00  0.00     0.000 A 
ATOM     28  C   UNL d   1     -46.137  12.641  22.963  0.00  0.00     0.000 A 
ATOM     29  C   UNL d   1     -44.901  11.996  22.619  0.00  0.00     0.019 A 
ATOM     30  O   UNL d   1     -42.641  12.092  21.524  0.00  0.00    -0.267 OA
ENDBRANCH  18  19
ENDBRANCH  17  18
ENDBRANCH  16  17
ENDBRANCH   1  16
TORSDOF 4
ENDMDL
MODEL 4
REMARK VINA RESULT:      -4.1      2.317      6.921
REMARK  4 active torsions:
REMARK  status: ('A' for Active; 'I' for Inactive)
REMARK    1  A    between atoms: C_23  and  N_1 
REMARK       I    between atoms: N_7  and  C_10 
REMARK    2  A    between atoms: C_10  and  C_25 
REMARK    3  A    between atoms: C_26  and  C_23 
REMARK    4  A    between atoms: C_25  and  C_26 
ROOT
ATOM      1  N   UNL d   1     -43.972  12.470  21.911  0.00  0.00    -0.249 N 
ATOM      2  C   UNL d   1     -44.590  13.004  21.804  0.00  0.00     0.268 A 
ATOM      3  C   UNL d   1     -44.035  11.880  22.469  0.00  0.00     0.208 A 
ATOM      4  C   UNL d   1     -45.275  12.943  22.262  0.00  0.00     0.076 A 
ATOM      5  C   UNL d   1     -45.338  12.353  22.820  0.00  0.00     0.090 A 
ATOM      6  N   UNL d   1     -44.716  11.835  22.910  0.00  0.00    -0.218 NA
ATOM      7  C   UNL d   1     -45.898  13.479  22.156  0.00  0.00     0.033 A 
ATOM      8  C   UNL d   1     -46.026  12.311  23.263  0.00  0.00     0.046 A 
ATOM      9  C   UNL d   1     -46.594  13.422  22.617  0.00  0.00     0.119 A 
ATOM     10  C   UNL d   1     -46.646  12.828  23.172  0.00  0.00     0.121 A 
ATOM     11  S   UNL d   1     -43.402  11.353  22.561  0.00  0.00    -0.038 SA
ATOM     12  O   UNL d   1     -44.527  13.588  21.251  0.00  0.00    -0.267 OA
ATOM     13  O   UNL d   1     -47.291  13.856  22.645  0.00  0.00    -0.300 OA
ATOM     14  O   UNL d   1     -47.390  12.917  23.532  0.00  0.00    -0.299 OA
ATOM     15  C   UNL d   1     -47.792  13.548  23.213  0.00  0.00     0.304 A 
ENDROOT
BRANCH   1  16
ATOM     16  C   UNL d   1     -43.275  12.527  21.450  0.00  0.00     0.085 C 
BRANCH  16  17
ATOM     17  C   UNL d   1     -42.728  13.093  21.627  0.00  0.00     0.024 C 
BRANCH  17  18
ATOM     18  C   UNL d   1     -42.161  13.280  21.075  0.00  0.00     0.063 C 
BRANCH  18  19
ATOM     19  C   UNL d   1     -41.498  13.681  21.303  0.00  0.00     0.265 C 
ATOM     20  N   UNL d   1     -41.022  14.030  20.728  0.00  0.00    -0.272 N 
ATOM     21  C   UNL d   1     -41.233  13.962  19.925  0.00  0.00     0.083 A 
ATOM     22  C   UNL d   1     -40.344  14.442  20.949  0.00  0.00     0.083 A 
ATOM     23  C   UNL d   1     -40.759  14.311  19.345  0.00  0.00     0.018 A 
ATOM     24  C   UNL d   1     -40.967  14.244  18.552  0.00  0.00     0.002 A 
ATOM     25  C   UNL d   1     -40.069  14.729  19.562  0.00  0.00     0.003 A 
ATOM     26  C   UNL d   1     -40.490  14.594  17.971  0.00  0.00     0.000 A 
ATOM     27  C   UNL d   1     -39.805  15.010  18.187  0.00  0.00     0.000 A 
ATOM     28  C   UNL d   1     -39.598  15.076  18.985  0.00  0.00     0.000 A 
ATOM     29  C   UNL d   1     -39.865  14.793  20.367  0.00  0.00     0.019 A 
ATOM     30  O   UNL d   1     -41.321  13.726  22.117  0.00  0.00    -0.267 OA
ENDBRANCH  18  19
ENDBRANCH  17  18
ENDBRANCH  16  17
ENDBRANCH   1  16
TORSDOF 4
ENDMDL
