MODEL 1
REMARK VINA RESULT:      -3.1      0.000      0.000
REMARK  2 active torsions:
REMARK  status: ('A' for Active; 'I' for Inactive)
REMARK    1  A    between atoms: C_3  and  C_1 
REMARK       I    between atoms: N_2  and  C_3 
REMARK    2  A    between atoms: O_16  and  C_15 
ROOT
ATOM      1  C   UNL d   1      31.788  16.980 -24.239  0.00  0.00     0.121 A 
ATOM      2  C   UNL d   1      31.996  16.960 -23.439  0.00  0.00     0.305 A 
ATOM      3  O   UNL d   1      32.415  17.599 -23.103  0.00  0.00    -0.271 OA
ATOM      4  C   UNL d   1      31.994  17.636 -24.714  0.00  0.00     0.012 A 
ATOM      5  C   UNL d   1      32.619  18.244 -23.565  0.00  0.00     0.125 A 
ATOM      6  C   UNL d   1      32.409  18.264 -24.373  0.00  0.00     0.025 A 
ATOM      7  O   UNL d   1      31.793  16.315 -22.974  0.00  0.00    -0.259 OA
ATOM      8  C   UNL d   1      33.036  18.885 -23.241  0.00  0.00     0.117 A 
ATOM      9  C   UNL d   1      32.615  18.917 -24.839  0.00  0.00     0.002 A 
ATOM     10  C   UNL d   1      33.029  19.545 -24.501  0.00  0.00     0.002 A 
ATOM     11  C   UNL d   1      33.238  19.529 -23.706  0.00  0.00     0.026 A 
ENDROOT
BRANCH   1  12
ATOM     12  C   UNL d   1      31.376  16.350 -24.569  0.00  0.00     0.285 C 
ATOM     13  N   UNL d   1      30.573  16.412 -24.721  0.00  0.00    -0.193 N 
ATOM     14  N   UNL d   1      30.108  17.074 -24.571  0.00  0.00    -0.163 NA
ATOM     15  C   UNL d   1      30.094  15.831 -25.046  0.00  0.00     0.105 A 
ATOM     16  C   UNL d   1      29.339  16.898 -24.806  0.00  0.00     0.103 A 
ATOM     17  C   UNL d   1      28.689  17.409 -24.753  0.00  0.00     0.022 C 
ATOM     18  C   UNL d   1      29.333  16.135 -25.097  0.00  0.00     0.042 A 
ATOM     19  O   UNL d   1      31.769  15.650 -24.749  0.00  0.00    -0.265 OA
ENDBRANCH   1  12
BRANCH   8  20
ATOM     20  O   UNL d   1      33.241  18.861 -22.444  0.00  0.00    -0.326 OA
ATOM     21  C   UNL d   1      33.241  19.545 -21.991  0.00  0.00     0.181 C 
ENDBRANCH   8  20
TORSDOF 2
ENDMDL
MODEL 2
REMARK VINA RESULT:      -2.8      1.435      3.758
REMARK  2 active torsions:
REMARK  status: ('A' for Active; 'I' for Inactive)
REMARK    1  A    between atoms: C_3  and  C_1 
REMARK       I    between atoms: N_2  and  C_3 
REMARK    2  A    between atoms: O_16  and  C_15 
ROOT
ATOM      1  C   UNL d   1      31.185  16.992 -24.310  0.00  0.00     0.121 A 
ATOM      2  C   UNL d   1      31.036  16.296 -23.889  0.00  0.00     0.305 A 
ATOM      3  O   UNL d   1      30.252  16.088 -23.694  0.00  0.00    -0.271 OA
ATOM      4  C   UNL d   1      30.554  17.488 -24.542  0.00  0.00     0.012 A 
ATOM      5  C   UNL d   1      29.631  16.572 -23.919  0.00  0.00     0.125 A 
ATOM      6  C   UNL d   1      29.781  17.274 -24.345  0.00  0.00     0.025 A 
ATOM      7  O   UNL d   1      31.657  15.809 -23.661  0.00  0.00    -0.259 OA
ATOM      8  C   UNL d   1      28.847  16.374 -23.730  0.00  0.00     0.117 A 
ATOM      9  C   UNL d   1      29.152  17.763 -24.573  0.00  0.00     0.002 A 
ATOM     10  C   UNL d   1      28.379  17.552 -24.377  0.00  0.00     0.002 A 
ATOM     11  C   UNL d   1      28.228  16.861 -23.958  0.00  0.00     0.026 A 
ENDROOT
BRANCH   1  12
ATOM     12  C   UNL d   1      31.957  17.195 -24.501  0.00  0.00     0.285 C 
ATOM     13  N   UNL d   1      32.334  17.812 -24.113  0.00  0.00    -0.193 N 
ATOM     14  N   UNL d   1      32.003  18.275 -23.520  0.00  0.00    -0.163 NA
ATOM     15  C   UNL d   1      33.100  18.074 -24.247  0.00  0.00     0.105 A 
ATOM     16  C   UNL d   1      32.570  18.825 -23.287  0.00  0.00     0.103 A 
ATOM     17  C   UNL d   1      32.470  19.402 -22.702  0.00  0.00     0.022 C 
ATOM     18  C   UNL d   1      33.241  18.700 -23.735  0.00  0.00     0.042 A 
ATOM     19  O   UNL d   1      32.360  16.779 -25.086  0.00  0.00    -0.265 OA
ENDBRANCH   1  12
BRANCH   8  20
ATOM     20  O   UNL d   1      28.704  15.680 -23.311  0.00  0.00    -0.326 OA
ATOM     21  C   UNL d   1      27.938  15.453 -23.127  0.00  0.00     0.181 C 
ENDBRANCH   8  20
TORSDOF 2
ENDMDL
MODEL 3
REMARK VINA RESULT:      -2.3      1.727      3.892
REMARK  2 active torsions:
REMARK  status: ('A' for Active; 'I' for Inactive)
REMARK    1  A    between atoms: C_3  and  C_1 
REMARK       I    between atoms: N_2  and  C_3 
REMARK    2  A    between atoms: O_16  and  C_15 
ROOT
ATOM      1  C   UNL d   1      32.145  18.142 -24.233  0.00  0.00     0.121 A 
ATOM      2  C   UNL d   1      31.370  18.114 -24.522  0.00  0.00     0.305 A 
ATOM      3  O   UNL d   1      30.910  17.427 -24.408  0.00  0.00    -0.271 OA
ATOM      4  C   UNL d   1      32.469  17.487 -23.827  0.00  0.00     0.012 A 
ATOM      5  C   UNL d   1      31.223  16.783 -24.011  0.00  0.00     0.125 A 
ATOM      6  C   UNL d   1      32.005  16.812 -23.719  0.00  0.00     0.025 A 
ATOM      7  O   UNL d   1      31.053  18.757 -24.920  0.00  0.00    -0.259 OA
ATOM      8  C   UNL d   1      30.774  16.096 -23.892  0.00  0.00     0.117 A 
ATOM      9  C   UNL d   1      32.322  16.160 -23.317  0.00  0.00     0.002 A 
ATOM     10  C   UNL d   1      31.861  15.485 -23.208  0.00  0.00     0.002 A 
ATOM     11  C   UNL d   1      31.091  15.453 -23.494  0.00  0.00     0.026 A 
ENDROOT
BRANCH   1  12
ATOM     12  C   UNL d   1      32.597  18.818 -24.345  0.00  0.00     0.285 C 
ATOM     13  N   UNL d   1      32.770  19.314 -23.715  0.00  0.00    -0.193 N 
ATOM     14  N   UNL d   1      32.525  19.201 -22.938  0.00  0.00    -0.163 NA
ATOM     15  C   UNL d   1      33.213  20.003 -23.747  0.00  0.00     0.105 A 
ATOM     16  C   UNL d   1      32.820  19.825 -22.490  0.00  0.00     0.103 A 
ATOM     17  C   UNL d   1      32.706  19.932 -21.677  0.00  0.00     0.022 C 
ATOM     18  C   UNL d   1      33.241  20.316 -22.988  0.00  0.00     0.042 A 
ATOM     19  O   UNL d   1      32.881  19.004 -25.095  0.00  0.00    -0.265 OA
ENDBRANCH   1  12
BRANCH   8  20
ATOM     20  O   UNL d   1      30.004  16.072 -24.182  0.00  0.00    -0.326 OA
ATOM     21  C   UNL d   1      29.484  15.484 -23.942  0.00  0.00     0.181 C 
ENDBRANCH   8  20
TORSDOF 2
ENDMDL
MODEL 4
REMARK VINA RESULT:      -2.2      1.336      2.088
REMARK  2 active torsions:
REMARK  status: ('A' for Active; 'I' for Inactive)
REMARK    1  A    between atoms: C_3  and  C_1 
REMARK       I    between atoms: N_2  and  C_3 
REMARK    2  A    between atoms: O_16  and  C_15 
ROOT
ATOM      1  C   UNL d   1      32.734  18.067 -23.844  0.00  0.00     0.121 A 
ATOM      2  C   UNL d   1      32.715  18.782 -24.260  0.00  0.00     0.305 A 
ATOM      3  O   UNL d   1      32.833  19.502 -23.854  0.00  0.00    -0.271 OA
ATOM      4  C   UNL d   1      32.871  18.061 -23.020  0.00  0.00     0.012 A 
ATOM      5  C   UNL d   1      32.968  19.500 -23.046  0.00  0.00     0.125 A 
ATOM      6  C   UNL d   1      32.987  18.779 -22.626  0.00  0.00     0.025 A 
ATOM      7  O   UNL d   1      32.580  18.786 -25.070  0.00  0.00    -0.259 OA
ATOM      8  C   UNL d   1      33.087  20.210 -22.634  0.00  0.00     0.117 A 
ATOM      9  C   UNL d   1      33.123  18.778 -21.809  0.00  0.00     0.002 A 
ATOM     10  C   UNL d   1      33.240  19.493 -21.415  0.00  0.00     0.002 A 
ATOM     11  C   UNL d   1      33.221  20.205 -21.824  0.00  0.00     0.026 A 
ENDROOT
BRANCH   1  12
ATOM     12  C   UNL d   1      32.617  17.359 -24.244  0.00  0.00     0.285 C 
ATOM     13  N   UNL d   1      31.920  16.939 -24.152  0.00  0.00    -0.193 N 
ATOM     14  N   UNL d   1      31.287  17.161 -23.675  0.00  0.00    -0.163 NA
ATOM     15  C   UNL d   1      31.729  16.228 -24.515  0.00  0.00     0.105 A 
ATOM     16  C   UNL d   1      30.706  16.583 -23.745  0.00  0.00     0.103 A 
ATOM     17  C   UNL d   1      29.974  16.585 -23.359  0.00  0.00     0.022 C 
ATOM     18  C   UNL d   1      30.979  16.012 -24.261  0.00  0.00     0.042 A 
ATOM     19  O   UNL d   1      33.203  17.067 -24.743  0.00  0.00    -0.265 OA
ENDBRANCH   1  12
BRANCH   8  20
ATOM     20  O   UNL d   1      33.067  20.919 -23.052  0.00  0.00    -0.326 OA
ATOM     21  C   UNL d   1      33.179  21.635 -22.667  0.00  0.00     0.181 C 
ENDBRANCH   8  20
TORSDOF 2
ENDMDL
MODEL 5
REMARK VINA RESULT:      -1.9      1.876      2.641
REMARK  2 active torsions:
REMARK  status: ('A' for Active; 'I' for Inactive)
REMARK    1  A    between atoms: C_3  and  C_1 
REMARK       I    between atoms: N_2  and  C_3 
REMARK    2  A    between atoms: O_16  and  C_15 
ROOT
ATOM      1  C   UNL d   1      29.856  16.846 -24.630  0.00  0.00     0.121 A 
ATOM      2  C   UNL d   1      30.005  17.659 -24.674  0.00  0.00     0.305 A 
ATOM      3  O   UNL d   1      30.784  17.932 -24.796  0.00  0.00    -0.271 OA
ATOM      4  C   UNL d   1      30.482  16.297 -24.708  0.00  0.00     0.012 A 
ATOM      5  C   UNL d   1      31.400  17.398 -24.873  0.00  0.00     0.125 A 
ATOM      6  C   UNL d   1      31.250  16.577 -24.829  0.00  0.00     0.025 A 
ATOM      7  O   UNL d   1      29.390  18.197 -24.597  0.00  0.00    -0.259 OA
ATOM      8  C   UNL d   1      32.178  17.659 -24.995  0.00  0.00     0.117 A 
ATOM      9  C   UNL d   1      31.873  16.037 -24.907  0.00  0.00     0.002 A 
ATOM     10  C   UNL d   1      32.640  16.314 -25.028  0.00  0.00     0.002 A 
ATOM     11  C   UNL d   1      32.792  17.121 -25.072  0.00  0.00     0.026 A 
ENDROOT
BRANCH   1  12
ATOM     12  C   UNL d   1      29.089  16.578 -24.509  0.00  0.00     0.285 C 
ATOM     13  N   UNL d   1      28.882  16.211 -23.806  0.00  0.00    -0.193 N 
ATOM     14  N   UNL d   1      29.388  16.074 -23.172  0.00  0.00    -0.163 NA
ATOM     15  C   UNL d   1      28.142  15.918 -23.611  0.00  0.00     0.105 A 
ATOM     16  C   UNL d   1      28.955  15.694 -22.584  0.00  0.00     0.103 A 
ATOM     17  C   UNL d   1      29.248  15.453 -21.849  0.00  0.00     0.022 C 
ATOM     18  C   UNL d   1      28.191  15.599 -22.856  0.00  0.00     0.042 A 
ATOM     19  O   UNL d   1      28.521  16.677 -25.097  0.00  0.00    -0.265 OA
ENDBRANCH   1  12
BRANCH   8  20
ATOM     20  O   UNL d   1      32.321  18.469 -25.038  0.00  0.00    -0.326 OA
ATOM     21  C   UNL d   1      33.088  18.757 -25.084  0.00  0.00     0.181 C 
ENDBRANCH   8  20
TORSDOF 2
ENDMDL
MODEL 6
REMARK VINA RESULT:      -0.2      3.170      5.276
REMARK  2 active torsions:
REMARK  status: ('A' for Active; 'I' for Inactive)
REMARK    1  A    between atoms: C_3  and  C_1 
REMARK       I    between atoms: N_2  and  C_3 
REMARK    2  A    between atoms: O_16  and  C_15 
ROOT
ATOM      1  C   UNL d   1      32.990  20.993 -21.327  0.00  0.00     0.121 A 
ATOM      2  C   UNL d   1      32.981  20.195 -21.110  0.00  0.00     0.305 A 
ATOM      3  O   UNL d   1      33.040  19.604 -21.697  0.00  0.00    -0.271 OA
ATOM      4  C   UNL d   1      33.057  21.211 -22.131  0.00  0.00     0.012 A 
ATOM      5  C   UNL d   1      33.106  19.814 -22.486  0.00  0.00     0.125 A 
ATOM      6  C   UNL d   1      33.115  20.620 -22.705  0.00  0.00     0.025 A 
ATOM      7  O   UNL d   1      32.916  19.981 -20.320  0.00  0.00    -0.259 OA
ATOM      8  C   UNL d   1      33.166  19.234 -23.077  0.00  0.00     0.117 A 
ATOM      9  C   UNL d   1      33.181  20.831 -23.503  0.00  0.00     0.002 A 
ATOM     10  C   UNL d   1      33.239  20.242 -24.078  0.00  0.00     0.002 A 
ATOM     11  C   UNL d   1      33.231  19.448 -23.866  0.00  0.00     0.026 A 
ENDROOT
BRANCH   1  12
ATOM     12  C   UNL d   1      32.932  21.573 -20.749  0.00  0.00     0.285 C 
ATOM     13  N   UNL d   1      32.567  22.289 -20.913  0.00  0.00    -0.193 N 
ATOM     14  N   UNL d   1      32.233  22.502 -21.634  0.00  0.00    -0.163 NA
ATOM     15  C   UNL d   1      32.470  22.915 -20.392  0.00  0.00     0.105 A 
ATOM     16  C   UNL d   1      31.930  23.262 -21.555  0.00  0.00     0.103 A 
ATOM     17  C   UNL d   1      31.545  23.693 -22.149  0.00  0.00     0.022 C 
ATOM     18  C   UNL d   1      32.076  23.514 -20.793  0.00  0.00     0.042 A 
ATOM     19  O   UNL d   1      33.241  21.439 -19.998  0.00  0.00    -0.265 OA
ENDBRANCH   1  12
BRANCH   8  20
ATOM     20  O   UNL d   1      33.157  18.442 -22.856  0.00  0.00    -0.326 OA
ATOM     21  C   UNL d   1      33.200  17.849 -23.421  0.00  0.00     0.181 C 
ENDBRANCH   8  20
TORSDOF 2
ENDMDL
