MODEL 1
REMARK VINA RESULT:      61.5      0.000      0.000
REMARK  4 active torsions:
REMARK  status: ('A' for Active; 'I' for Inactive)
REMARK    1  A    between atoms: C_2  and  C_1 
REMARK    2  A    between atoms: N_13  and  C_6 
REMARK    3  A    between atoms: N_12  and  N_13 
REMARK    4  A    between atoms: C_15  and  N_12 
ROOT
ATOM      1  C   UNL d   1     -49.692  27.508  34.358  0.00  0.00     0.095 A 
ATOM      2  N   UNL d   1     -49.909  26.730  34.580  0.00  0.00    -0.219 NA
ATOM      3  C   UNL d   1     -50.396  26.444  33.991  0.00  0.00     0.215 A 
ATOM      4  S   UNL d   1     -50.500  27.007  33.402  0.00  0.00    -0.045 SA
ATOM      5  C   UNL d   1     -50.063  27.658  33.637  0.00  0.00     0.058 A 
ENDROOT
BRANCH   1   6
ATOM      6  C   UNL d   1     -49.205  28.066  34.744  0.00  0.00     0.082 A 
ATOM      7  C   UNL d   1     -49.085  28.001  35.549  0.00  0.00     0.302 A 
ATOM      8  O   UNL d   1     -48.593  28.558  35.965  0.00  0.00    -0.273 OA
ATOM      9  O   UNL d   1     -49.471  27.352  35.967  0.00  0.00    -0.259 OA
ATOM     10  C   UNL d   1     -48.229  29.184  35.518  0.00  0.00     0.103 A 
ATOM     11  C   UNL d   1     -48.349  29.250  34.714  0.00  0.00     0.023 A 
ATOM     12  C   UNL d   1     -47.755  29.716  35.935  0.00  0.00     0.025 A 
ATOM     13  C   UNL d   1     -48.836  28.691  34.327  0.00  0.00     0.009 A 
ATOM     14  C   UNL d   1     -47.998  29.849  34.297  0.00  0.00     0.002 A 
ATOM     15  C   UNL d   1     -47.510  30.409  34.683  0.00  0.00     0.000 A 
ATOM     16  C   UNL d   1     -47.390  30.343  35.488  0.00  0.00     0.002 A 
ENDBRANCH   1   6
BRANCH   3  17
ATOM     17  N   UNL d   1     -50.737  25.660  34.014  0.00  0.00    -0.122 NA
BRANCH  17  18
ATOM     18  N   UNL d   1     -51.262  25.453  33.404  0.00  0.00    -0.146 NA
BRANCH  18  19
ATOM     19  C   UNL d   1     -51.620  24.714  33.371  0.00  0.00     0.103 A 
ATOM     20  C   UNL d   1     -52.455  24.666  33.372  0.00  0.00     0.021 A 
ATOM     21  C   UNL d   1     -52.821  23.911  33.339  0.00  0.00     0.002 A 
ATOM     22  C   UNL d   1     -52.332  23.248  33.307  0.00  0.00     0.000 A 
ATOM     23  C   UNL d   1     -51.524  23.310  33.307  0.00  0.00     0.002 A 
ATOM     24  C   UNL d   1     -51.168  24.044  33.339  0.00  0.00     0.021 A 
ENDBRANCH  18  19
ENDBRANCH  17  18
ENDBRANCH   3  17
TORSDOF 4
ENDMDL
