MODEL 1
REMARK VINA RESULT:      -9.9      0.000      0.000
REMARK  8 active torsions:
REMARK  status: ('A' for Active; 'I' for Inactive)
REMARK    1  A    between atoms: N_2  and  S_1 
REMARK    2  A    between atoms: C_5  and  S_1 
REMARK    3  A    between atoms: C_11  and  C_3 
REMARK       I    between atoms: C_4  and  N_9 
REMARK    4  A    between atoms: C_6  and  C_4 
REMARK       I    between atoms: N_16  and  C_6 
REMARK    5  A    between atoms: N_9  and  C_11 
REMARK    6  A    between atoms: N_10  and  C_25 
REMARK    7  A    between atoms: C_24  and  N_16 
REMARK    8  A    between atoms: C_25  and  C_24 
ROOT
ATOM      1  N   UNL d   1      53.378  31.763  53.514  0.00  0.00    -0.209 N 
ATOM      2  C   UNL d   1      52.739  32.042  53.077  0.00  0.00     0.197 A 
ATOM      3  O   UNL d   1      52.267  31.537  52.647  0.00  0.00    -0.287 OA
ATOM      4  C   UNL d   1      53.551  30.945  53.518  0.00  0.00     0.096 A 
ATOM      5  C   UNL d   1      53.068  30.424  53.077  0.00  0.00     0.047 A 
ATOM      6  C   UNL d   1      52.433  30.722  52.646  0.00  0.00     0.126 A 
ENDROOT
BRANCH   2   7
ATOM      7  C   UNL d   1      52.574  32.864  53.080  0.00  0.00     0.146 C 
BRANCH   7   8
ATOM      8  N   UNL d   1      51.864  33.142  52.771  0.00  0.00    -0.199 NA
ATOM      9  C   UNL d   1      51.735  33.944  52.672  0.00  0.00     0.337 C 
ATOM     10  O   UNL d   1      52.331  34.473  52.889  0.00  0.00    -0.260 OA
BRANCH   9  11
ATOM     11  C   UNL d   1      51.030  34.221  52.365  0.00  0.00     0.337 C 
ATOM     12  O   UNL d   1      50.905  34.212  51.549  0.00  0.00    -0.260 OA
ATOM     13  N   UNL d   1      50.447  34.505  52.865  0.00  0.00    -0.201 NA
BRANCH  13  14
ATOM     14  C   UNL d   1      49.746  34.780  52.559  0.00  0.00     0.121 C 
BRANCH  14  15
ATOM     15  C   UNL d   1      49.107  34.941  53.056  0.00  0.00     0.101 C 
BRANCH  15  16
ATOM     16  N   UNL d   1      48.511  35.456  52.800  0.00  0.00    -0.298 N 
ATOM     17  C   UNL d   1      48.280  36.080  53.276  0.00  0.00     0.107 A 
ATOM     18  C   UNL d   1      47.681  36.606  53.029  0.00  0.00     0.142 A 
ATOM     19  O   UNL d   1      47.322  36.490  52.298  0.00  0.00    -0.300 OA
ATOM     20  C   UNL d   1      47.573  35.840  51.820  0.00  0.00     0.142 A 
ATOM     21  C   UNL d   1      48.148  35.342  52.066  0.00  0.00     0.107 A 
ENDBRANCH  15  16
ENDBRANCH  14  15
ENDBRANCH  13  14
ENDBRANCH   9  11
ENDBRANCH   7   8
ENDBRANCH   2   7
BRANCH   1  22
ATOM     22  S   UNL d   1      53.851  32.277  53.947  0.00  0.00     0.273 S 
ATOM     23  O   UNL d   1      54.343  32.379  53.290  0.00  0.00    -0.200 OA
ATOM     24  O   UNL d   1      53.360  32.176  54.601  0.00  0.00    -0.200 OA
BRANCH  22  25
ATOM     25  C   UNL d   1      54.327  32.798  54.388  0.00  0.00     0.104 A 
ATOM     26  C   UNL d   1      54.951  33.178  54.032  0.00  0.00     0.015 A 
ATOM     27  C   UNL d   1      55.430  33.700  54.469  0.00  0.00     0.030 A 
ATOM     28  C   UNL d   1      55.265  33.826  55.265  0.00  0.00     0.140 A 
ATOM     29  C   UNL d   1      54.624  33.438  55.639  0.00  0.00     0.030 A 
ATOM     30  F   UNL d   1      55.738  34.343  55.702  0.00  0.00    -0.204 F 
ATOM     31  C   UNL d   1      54.160  32.926  55.194  0.00  0.00     0.015 A 
ENDBRANCH  22  25
ENDBRANCH   1  22
TORSDOF 8
ENDMDL
MODEL 2
REMARK VINA RESULT:      -8.5      1.456      2.490
REMARK  8 active torsions:
REMARK  status: ('A' for Active; 'I' for Inactive)
REMARK    1  A    between atoms: N_2  and  S_1 
REMARK    2  A    between atoms: C_5  and  S_1 
REMARK    3  A    between atoms: C_11  and  C_3 
REMARK       I    between atoms: C_4  and  N_9 
REMARK    4  A    between atoms: C_6  and  C_4 
REMARK       I    between atoms: N_16  and  C_6 
REMARK    5  A    between atoms: N_9  and  C_11 
REMARK    6  A    between atoms: N_10  and  C_25 
REMARK    7  A    between atoms: C_24  and  N_16 
REMARK    8  A    between atoms: C_25  and  C_24 
ROOT
ATOM      1  N   UNL d   1      53.723  32.805  54.197  0.00  0.00    -0.209 N 
ATOM      2  C   UNL d   1      53.159  33.392  54.075  0.00  0.00     0.197 A 
ATOM      3  O   UNL d   1      53.292  34.161  54.305  0.00  0.00    -0.287 OA
ATOM      4  C   UNL d   1      54.448  32.998  54.565  0.00  0.00     0.096 A 
ATOM      5  C   UNL d   1      54.588  33.787  54.803  0.00  0.00     0.047 A 
ATOM      6  C   UNL d   1      54.012  34.361  54.672  0.00  0.00     0.126 A 
ENDROOT
BRANCH   2   7
ATOM      7  C   UNL d   1      52.435  33.188  53.705  0.00  0.00     0.146 C 
BRANCH   7   8
ATOM      8  N   UNL d   1      51.969  33.773  53.362  0.00  0.00    -0.199 NA
ATOM      9  C   UNL d   1      51.182  33.632  53.186  0.00  0.00     0.337 C 
ATOM     10  O   UNL d   1      50.861  32.891  53.358  0.00  0.00    -0.260 OA
BRANCH   9  11
ATOM     11  C   UNL d   1      50.719  34.214  52.846  0.00  0.00     0.337 C 
ATOM     12  O   UNL d   1      50.989  34.615  52.176  0.00  0.00    -0.260 OA
ATOM     13  N   UNL d   1      49.989  34.399  53.167  0.00  0.00    -0.201 NA
BRANCH  13  14
ATOM     14  C   UNL d   1      49.528  34.977  52.829  0.00  0.00     0.121 C 
BRANCH  14  15
ATOM     15  C   UNL d   1      48.923  35.336  53.259  0.00  0.00     0.101 C 
BRANCH  15  16
ATOM     16  N   UNL d   1      48.296  35.697  52.857  0.00  0.00    -0.298 N 
ATOM     17  C   UNL d   1      47.907  36.332  53.198  0.00  0.00     0.107 A 
ATOM     18  C   UNL d   1      47.273  36.704  52.802  0.00  0.00     0.142 A 
ATOM     19  O   UNL d   1      47.042  36.426  52.063  0.00  0.00    -0.300 OA
ATOM     20  C   UNL d   1      47.455  35.770  51.728  0.00  0.00     0.142 A 
ATOM     21  C   UNL d   1      48.061  35.420  52.115  0.00  0.00     0.107 A 
ENDBRANCH  15  16
ENDBRANCH  14  15
ENDBRANCH  13  14
ENDBRANCH   9  11
ENDBRANCH   7   8
ENDBRANCH   2   7
BRANCH   1  22
ATOM     22  S   UNL d   1      53.583  32.029  53.963  0.00  0.00     0.273 S 
ATOM     23  O   UNL d   1      53.863  32.207  53.205  0.00  0.00    -0.200 OA
ATOM     24  O   UNL d   1      53.304  31.853  54.718  0.00  0.00    -0.200 OA
BRANCH  22  25
ATOM     25  C   UNL d   1      53.441  31.244  53.728  0.00  0.00     0.104 A 
ATOM     26  C   UNL d   1      53.419  31.054  52.939  0.00  0.00     0.015 A 
ATOM     27  C   UNL d   1      53.276  30.269  52.699  0.00  0.00     0.030 A 
ATOM     28  C   UNL d   1      53.158  29.689  53.271  0.00  0.00     0.140 A 
ATOM     29  C   UNL d   1      53.179  29.878  54.087  0.00  0.00     0.030 A 
ATOM     30  F   UNL d   1      53.016  28.910  53.038  0.00  0.00    -0.204 F 
ATOM     31  C   UNL d   1      53.321  30.657  54.307  0.00  0.00     0.015 A 
ENDBRANCH  22  25
ENDBRANCH   1  22
TORSDOF 8
ENDMDL
