MODEL 1
REMARK VINA RESULT:      31.0      0.000      0.000
REMARK  3 active torsions:
REMARK  status: ('A' for Active; 'I' for Inactive)
REMARK    1  A    between atoms: C_13  and  N_3 
REMARK    2  A    between atoms: C_10  and  C_6 
REMARK    3  A    between atoms: C_11  and  C_8 
ROOT
ATOM      1  C   UNL d   1      45.980 -16.880  43.567  0.00  0.00     0.167 A 
ATOM      2  C   UNL d   1      45.956 -17.689  43.752  0.00  0.00     0.056 A 
ATOM      3  N   UNL d   1      45.746 -16.451  44.239  0.00  0.00    -0.212 N 
ATOM      4  N   UNL d   1      45.575 -17.000  44.848  0.00  0.00    -0.164 NA
ATOM      5  N   UNL d   1      46.211 -16.640  42.813  0.00  0.00    -0.206 NA
ATOM      6  C   UNL d   1      46.162 -18.247  43.184  0.00  0.00     0.015 A 
ATOM      7  C   UNL d   1      45.704 -17.765  44.546  0.00  0.00     0.104 A 
ATOM      8  C   UNL d   1      46.392 -18.011  42.434  0.00  0.00     0.059 A 
ATOM      9  C   UNL d   1      46.416 -17.207  42.250  0.00  0.00     0.187 A 
ATOM     10  N   UNL d   1      46.646 -16.966  41.499  0.00  0.00    -0.127 N 
ATOM     11  C   UNL d   1      45.604 -18.468  44.954  0.00  0.00     0.023 C 
ENDROOT
BRANCH   3  12
ATOM     12  C   UNL d   1      45.693 -15.628  44.295  0.00  0.00     0.085 A 
ATOM     13  C   UNL d   1      44.961 -15.270  44.410  0.00  0.00     0.019 A 
ATOM     14  C   UNL d   1      44.911 -14.455  44.466  0.00  0.00     0.002 A 
ATOM     15  C   UNL d   1      45.587 -13.988  44.407  0.00  0.00     0.000 A 
ATOM     16  C   UNL d   1      46.328 -14.347  44.291  0.00  0.00     0.002 A 
ATOM     17  C   UNL d   1      45.534 -13.165  44.464  0.00  0.00     0.000 C 
ATOM     18  C   UNL d   1      46.376 -15.167  44.235  0.00  0.00     0.019 A 
ENDBRANCH   3  12
BRANCH   6  19
ATOM     19  C   UNL d   1      46.135 -19.050  43.375  0.00  0.00     0.030 A 
ATOM     20  S   UNL d   1      46.647 -19.450  43.881  0.00  0.00    -0.086 SA
ATOM     21  C   UNL d   1      46.417 -20.243  43.910  0.00  0.00     0.035 A 
ATOM     22  C   UNL d   1      45.760 -20.330  43.418  0.00  0.00     0.007 A 
ATOM     23  C   UNL d   1      45.582 -19.603  43.086  0.00  0.00     0.007 A 
ENDBRANCH   6  19
BRANCH   8  24
ATOM     24  C   UNL d   1      46.598 -18.570  41.865  0.00  0.00     0.125 C 
ATOM     25  N   UNL d   1      46.618 -18.358  41.070  0.00  0.00    -0.146 N 
ENDBRANCH   8  24
TORSDOF 3
ENDMDL
