MODEL 1
REMARK VINA RESULT:      65.4      0.000      0.000
REMARK  5 active torsions:
REMARK  status: ('A' for Active; 'I' for Inactive)
REMARK    1  A    between atoms: N_4  and  S_1 
REMARK    2  A    between atoms: C_10  and  S_1 
REMARK    3  A    between atoms: C_2  and  N_9 
REMARK    4  A    between atoms: C_13  and  C_3 
REMARK    5  A    between atoms: C_11  and  C_8 
REMARK       I    between atoms: N_9  and  C_11 
REMARK       I    between atoms: C_15  and  N_12 
ROOT
ATOM      1  N   UNL d   1      14.150  14.117  -4.108  0.00  0.00    -0.200 NA
ATOM      2  C   UNL d   1      13.373  13.833  -4.075  0.00  0.00     0.296 C 
ATOM      3  O   UNL d   1      12.800  14.262  -3.664  0.00  0.00    -0.264 OA
ENDROOT
BRANCH   1   4
ATOM      4  C   UNL d   1      14.353  14.823  -3.733  0.00  0.00     0.119 A 
ATOM      5  C   UNL d   1      14.493  15.546  -4.091  0.00  0.00     0.084 A 
ATOM      6  C   UNL d   1      14.679  16.102  -3.504  0.00  0.00     0.016 A 
ATOM      7  C   UNL d   1      14.867  16.902  -3.538  0.00  0.00     0.020 A 
ATOM      8  C   UNL d   1      14.653  15.712  -2.780  0.00  0.00     0.049 A 
ATOM      9  C   UNL d   1      15.028  17.311  -2.849  0.00  0.00     0.083 A 
ATOM     10  N   UNL d   1      15.002  16.920  -2.112  0.00  0.00    -0.272 N 
ATOM     11  C   UNL d   1      14.814  16.121  -2.083  0.00  0.00     0.089 A 
ATOM     12  C   UNL d   1      15.168  17.343  -1.409  0.00  0.00     0.265 C 
ATOM     13  O   UNL d   1      15.141  16.952  -0.684  0.00  0.00    -0.267 OA
ATOM     14  C   UNL d   1      15.356  18.147  -1.446  0.00  0.00     0.066 C 
ATOM     15  S   UNL d   1      14.452  14.924  -2.914  0.00  0.00    -0.066 SA
BRANCH   5  16
ATOM     16  C   UNL d   1      14.455  15.703  -4.905  0.00  0.00     0.299 C 
ATOM     17  O   UNL d   1      15.123  15.618  -5.371  0.00  0.00    -0.264 OA
ATOM     18  N   UNL d   1      13.745  15.941  -5.229  0.00  0.00    -0.102 N 
ENDBRANCH   5  16
ENDBRANCH   1   4
BRANCH   2  19
ATOM     19  C   UNL d   1      13.174  13.133  -4.447  0.00  0.00     0.133 A 
ATOM     20  N   UNL d   1      13.210  12.374  -4.108  0.00  0.00    -0.226 N 
ATOM     21  C   UNL d   1      12.956  11.827  -4.687  0.00  0.00     0.092 A 
ATOM     22  C   UNL d   1      12.769  12.250  -5.366  0.00  0.00     0.021 A 
ATOM     23  C   UNL d   1      12.901  13.053  -5.223  0.00  0.00     0.025 A 
BRANCH  20  24
ATOM     24  S   UNL d   1      13.453  12.191  -3.338  0.00  0.00     0.277 S 
ATOM     25  O   UNL d   1      12.796  12.601  -3.062  0.00  0.00    -0.199 OA
ATOM     26  O   UNL d   1      14.115  11.779  -3.622  0.00  0.00    -0.199 OA
BRANCH  24  27
ATOM     27  C   UNL d   1      13.663  12.030  -2.560  0.00  0.00     0.133 A 
ATOM     28  S   UNL d   1      14.428  11.934  -2.270  0.00  0.00    -0.074 SA
ATOM     29  C   UNL d   1      14.381  11.781  -1.458  0.00  0.00     0.036 A 
ATOM     30  C   UNL d   1      13.579  11.782  -1.249  0.00  0.00     0.008 A 
ATOM     31  C   UNL d   1      13.137  11.936  -1.928  0.00  0.00     0.020 A 
ENDBRANCH  24  27
ENDBRANCH  20  24
ENDBRANCH   2  19
TORSDOF 5
ENDMDL
