MODEL 1
REMARK VINA RESULT:      51.3      0.000      0.000
REMARK  4 active torsions:
REMARK  status: ('A' for Active; 'I' for Inactive)
REMARK    1  A    between atoms: C_2  and  S_1 
REMARK    2  A    between atoms: N_3  and  S_1 
REMARK    3  A    between atoms: C_12  and  N_3 
REMARK    4  A    between atoms: N_4  and  C_8 
ROOT
ATOM      1  C   UNL d   1      58.428  49.645  50.189  0.00  0.00     0.064 A 
ATOM      2  C   UNL d   1      60.020  49.653  50.616  0.00  0.00     0.094 A 
ATOM      3  C   UNL d   1      58.637  49.592  50.985  0.00  0.00     0.019 A 
ATOM      4  C   UNL d   1      59.011  49.701  49.607  0.00  0.00     0.019 A 
ATOM      5  C   UNL d   1      59.442  49.596  51.196  0.00  0.00     0.021 A 
ATOM      6  C   UNL d   1      59.801  49.705  49.822  0.00  0.00     0.021 A 
ENDROOT
BRANCH   2   7
ATOM      7  N   UNL d   1      60.804  49.656  50.832  0.00  0.00    -0.158 NA
BRANCH   7   8
ATOM      8  S   UNL d   1      61.070  49.156  51.432  0.00  0.00     0.291 S 
ATOM      9  O   UNL d   1      61.308  48.607  50.869  0.00  0.00    -0.198 OA
ATOM     10  O   UNL d   1      60.833  49.703  51.993  0.00  0.00    -0.198 OA
BRANCH   8  11
ATOM     11  C   UNL d   1      61.333  48.662  52.026  0.00  0.00     0.135 A 
ATOM     12  S   UNL d   1      61.244  47.852  52.038  0.00  0.00    -0.073 SA
ATOM     13  C   UNL d   1      61.593  47.568  52.744  0.00  0.00     0.036 A 
ATOM     14  C   UNL d   1      61.878  48.202  53.134  0.00  0.00     0.008 A 
ATOM     15  C   UNL d   1      61.737  48.880  52.726  0.00  0.00     0.020 A 
ENDBRANCH   8  11
ENDBRANCH   7   8
ENDBRANCH   2   7
BRANCH   1  16
ATOM     16  N   UNL d   1      57.632  49.641  49.976  0.00  0.00    -0.304 N 
ATOM     17  C   UNL d   1      57.052  49.689  50.561  0.00  0.00     0.080 A 
ATOM     18  C   UNL d   1      56.249  49.684  50.340  0.00  0.00     0.019 A 
ATOM     19  C   UNL d   1      56.035  49.632  49.540  0.00  0.00     0.003 A 
ATOM     20  C   UNL d   1      56.623  49.585  48.968  0.00  0.00     0.019 A 
ATOM     21  C   UNL d   1      57.428  49.589  49.186  0.00  0.00     0.080 A 
ENDBRANCH   1  16
TORSDOF 4
ENDMDL
MODEL 2
REMARK VINA RESULT:      53.5      2.164      4.448
REMARK  4 active torsions:
REMARK  status: ('A' for Active; 'I' for Inactive)
REMARK    1  A    between atoms: C_2  and  S_1 
REMARK    2  A    between atoms: N_3  and  S_1 
REMARK    3  A    between atoms: C_12  and  N_3 
REMARK    4  A    between atoms: N_4  and  C_8 
ROOT
ATOM      1  C   UNL d   1      59.861  49.521  51.171  0.00  0.00     0.064 A 
ATOM      2  C   UNL d   1      58.356  49.644  50.511  0.00  0.00     0.094 A 
ATOM      3  C   UNL d   1      59.199  49.514  51.662  0.00  0.00     0.019 A 
ATOM      4  C   UNL d   1      59.773  49.589  50.352  0.00  0.00     0.019 A 
ATOM      5  C   UNL d   1      58.441  49.576  51.325  0.00  0.00     0.021 A 
ATOM      6  C   UNL d   1      59.024  49.650  50.027  0.00  0.00     0.021 A 
ENDROOT
BRANCH   2   7
ATOM      7  N   UNL d   1      57.610  49.704  50.191  0.00  0.00    -0.158 NA
BRANCH   7   8
ATOM      8  S   UNL d   1      57.225  49.030  49.911  0.00  0.00     0.291 S 
ATOM      9  O   UNL d   1      56.810  48.973  50.618  0.00  0.00    -0.198 OA
ATOM     10  O   UNL d   1      57.638  49.087  49.206  0.00  0.00    -0.198 OA
BRANCH   8  11
ATOM     11  C   UNL d   1      56.844  48.364  49.634  0.00  0.00     0.135 A 
ATOM     12  S   UNL d   1      56.473  47.806  50.098  0.00  0.00    -0.073 SA
ATOM     13  C   UNL d   1      56.158  47.221  49.588  0.00  0.00     0.036 A 
ATOM     14  C   UNL d   1      56.343  47.436  48.843  0.00  0.00     0.008 A 
ATOM     15  C   UNL d   1      56.758  48.124  48.836  0.00  0.00     0.020 A 
ENDBRANCH   8  11
ENDBRANCH   7   8
ENDBRANCH   2   7
BRANCH   1  16
ATOM     16  N   UNL d   1      60.614  49.460  51.500  0.00  0.00    -0.304 N 
ATOM     17  C   UNL d   1      60.715  49.568  52.312  0.00  0.00     0.080 A 
ATOM     18  C   UNL d   1      61.477  49.505  52.641  0.00  0.00     0.019 A 
ATOM     19  C   UNL d   1      62.129  49.336  52.156  0.00  0.00     0.003 A 
ATOM     20  C   UNL d   1      62.015  49.231  51.348  0.00  0.00     0.019 A 
ATOM     21  C   UNL d   1      61.252  49.294  51.017  0.00  0.00     0.080 A 
ENDBRANCH   1  16
TORSDOF 4
ENDMDL
