MODEL 1
REMARK VINA RESULT:      35.2      0.000      0.000
REMARK  5 active torsions:
REMARK  status: ('A' for Active; 'I' for Inactive)
REMARK    1  A    between atoms: N_10  and  C_2 
REMARK    2  A    between atoms: C_13  and  C_3 
REMARK    3  A    between atoms: C_5  and  S_14 
REMARK       I    between atoms: C_12  and  N_10 
REMARK    4  A    between atoms: C_18  and  C_12 
REMARK    5  A    between atoms: S_14  and  C_18 
ROOT
ATOM      1  N   UNL d   1      14.492  14.221  -0.831  0.00  0.00    -0.051 NA
ATOM      2  C   UNL d   1      14.804  13.653  -0.321  0.00  0.00     0.760 A 
ATOM      3  C   UNL d   1      15.083  14.767  -1.000  0.00  0.00     0.147 A 
ATOM      4  N   UNL d   1      15.580  13.840  -0.173  0.00  0.00    -0.019 NA
ATOM      5  S   UNL d   1      15.764  14.533  -0.591  0.00  0.00     0.052 SA
ENDROOT
BRANCH   2   6
ATOM      6  N   UNL d   1      14.391  13.007  -0.019  0.00  0.00    -0.018 NA
ATOM      7  C   UNL d   1      14.103  12.421  -0.523  0.00  0.00     0.302 C 
ATOM      8  O   UNL d   1      13.693  11.779  -0.223  0.00  0.00    -0.264 OA
BRANCH   7   9
ATOM      9  C   UNL d   1      14.231  12.484  -1.343  0.00  0.00     0.100 C 
BRANCH   9  10
ATOM     10  S   UNL d   1      14.122  11.829  -1.824  0.00  0.00    -0.054 SA
BRANCH  10  11
ATOM     11  C   UNL d   1      13.986  11.924  -2.628  0.00  0.00     0.164 A 
ATOM     12  S   UNL d   1      13.251  11.930  -2.992  0.00  0.00    -0.039 SA
ATOM     13  C   UNL d   1      13.370  12.040  -3.804  0.00  0.00     0.134 A 
ATOM     14  C   UNL d   1      12.771  12.080  -4.374  0.00  0.00     0.030 C 
ATOM     15  N   UNL d   1      14.176  12.101  -3.934  0.00  0.00    -0.140 NA
ATOM     16  N   UNL d   1      14.560  12.029  -3.204  0.00  0.00    -0.134 NA
ENDBRANCH  10  11
ENDBRANCH   9  10
ENDBRANCH   7   9
ENDBRANCH   2   6
BRANCH   3  17
ATOM     17  C   UNL d   1      15.048  15.441  -1.484  0.00  0.00     0.026 A 
ATOM     18  C   UNL d   1      14.676  15.400  -2.216  0.00  0.00     0.002 A 
ATOM     19  C   UNL d   1      14.640  16.064  -2.698  0.00  0.00     0.000 A 
ATOM     20  C   UNL d   1      14.978  16.774  -2.446  0.00  0.00     0.000 A 
ATOM     21  C   UNL d   1      15.357  16.816  -1.701  0.00  0.00     0.000 A 
ATOM     22  C   UNL d   1      14.943  17.442  -2.927  0.00  0.00     0.000 C 
ATOM     23  C   UNL d   1      15.390  16.145  -1.221  0.00  0.00     0.002 A 
ENDBRANCH   3  17
TORSDOF 5
ENDMDL
