MODEL 1
REMARK VINA RESULT:      -8.1      0.000      0.000
REMARK  4 active torsions:
REMARK  status: ('A' for Active; 'I' for Inactive)
REMARK    1  A    between atoms: C_6  and  C_2 
REMARK    2  A    between atoms: C_8  and  N_3 
REMARK       I    between atoms: N_7  and  C_6 
REMARK    3  A    between atoms: C_16  and  N_7 
REMARK    4  A    between atoms: C_9  and  C_16 
ROOT
ATOM      1  C   UNL d   1      52.143  33.954  53.211  0.00  0.00     0.211 A 
ATOM      2  C   UNL d   1      51.374  33.730  52.994  0.00  0.00     0.199 A 
ATOM      3  N   UNL d   1      52.473  33.354  53.666  0.00  0.00    -0.191 N 
ATOM      4  N   UNL d   1      51.904  32.758  53.730  0.00  0.00    -0.058 NA
ATOM      5  N   UNL d   1      51.231  32.998  53.313  0.00  0.00    -0.122 NA
ATOM      6  N   UNL d   1      52.521  34.659  53.008  0.00  0.00    -0.125 N 
ENDROOT
BRANCH   2   7
ATOM      7  C   UNL d   1      50.856  34.179  52.536  0.00  0.00     0.302 C 
ATOM      8  N   UNL d   1      50.178  34.498  52.869  0.00  0.00    -0.203 NA
ATOM      9  O   UNL d   1      51.028  34.305  51.738  0.00  0.00    -0.263 OA
BRANCH   8  10
ATOM     10  C   UNL d   1      49.658  34.949  52.404  0.00  0.00     0.127 C 
BRANCH  10  11
ATOM     11  C   UNL d   1      49.034  35.350  52.750  0.00  0.00     0.119 A 
ATOM     12  O   UNL d   1      49.049  35.728  53.497  0.00  0.00    -0.304 OA
ATOM     13  C   UNL d   1      48.308  36.058  53.624  0.00  0.00     0.123 A 
ATOM     14  C   UNL d   1      47.829  35.885  52.955  0.00  0.00     0.029 A 
ATOM     15  C   UNL d   1      48.281  35.457  52.434  0.00  0.00     0.028 A 
ENDBRANCH  10  11
ENDBRANCH   8  10
ENDBRANCH   2   7
BRANCH   3  16
ATOM     16  C   UNL d   1      53.228  33.343  53.998  0.00  0.00     0.086 A 
ATOM     17  C   UNL d   1      53.839  32.944  53.611  0.00  0.00     0.019 A 
ATOM     18  C   UNL d   1      54.594  32.935  53.944  0.00  0.00     0.002 A 
ATOM     19  C   UNL d   1      54.738  33.321  54.661  0.00  0.00     0.000 A 
ATOM     20  C   UNL d   1      54.121  33.718  55.042  0.00  0.00     0.002 A 
ATOM     21  C   UNL d   1      53.364  33.730  54.712  0.00  0.00     0.019 A 
ENDBRANCH   3  16
TORSDOF 4
ENDMDL
MODEL 2
REMARK VINA RESULT:      -7.8      2.860      5.011
REMARK  4 active torsions:
REMARK  status: ('A' for Active; 'I' for Inactive)
REMARK    1  A    between atoms: C_6  and  C_2 
REMARK    2  A    between atoms: C_8  and  N_3 
REMARK       I    between atoms: N_7  and  C_6 
REMARK    3  A    between atoms: C_16  and  N_7 
REMARK    4  A    between atoms: C_9  and  C_16 
ROOT
ATOM      1  C   UNL d   1      53.068  32.692  53.589  0.00  0.00     0.211 A 
ATOM      2  C   UNL d   1      53.549  32.053  53.367  0.00  0.00     0.199 A 
ATOM      3  N   UNL d   1      53.539  33.360  53.672  0.00  0.00    -0.191 N 
ATOM      4  N   UNL d   1      54.314  33.132  53.500  0.00  0.00    -0.058 NA
ATOM      5  N   UNL d   1      54.311  32.326  53.313  0.00  0.00    -0.122 NA
ATOM      6  N   UNL d   1      52.251  32.667  53.708  0.00  0.00    -0.125 N 
ENDROOT
BRANCH   2   7
ATOM      7  C   UNL d   1      53.289  31.283  53.228  0.00  0.00     0.302 C 
ATOM      8  N   UNL d   1      53.433  30.691  53.776  0.00  0.00    -0.203 NA
ATOM      9  O   UNL d   1      52.881  31.115  52.529  0.00  0.00    -0.263 OA
BRANCH   8  10
ATOM     10  C   UNL d   1      53.170  29.917  53.632  0.00  0.00     0.127 C 
BRANCH  10  11
ATOM     11  C   UNL d   1      53.264  29.334  54.200  0.00  0.00     0.119 A 
ATOM     12  O   UNL d   1      52.902  29.324  54.955  0.00  0.00    -0.304 OA
ATOM     13  C   UNL d   1      53.149  28.642  55.340  0.00  0.00     0.123 A 
ATOM     14  C   UNL d   1      53.667  28.226  54.824  0.00  0.00     0.029 A 
ATOM     15  C   UNL d   1      53.727  28.657  54.138  0.00  0.00     0.028 A 
ENDBRANCH  10  11
ENDBRANCH   8  10
ENDBRANCH   2   7
BRANCH   3  16
ATOM     16  C   UNL d   1      53.291  34.117  53.886  0.00  0.00     0.086 A 
ATOM     17  C   UNL d   1      53.451  34.400  54.645  0.00  0.00     0.019 A 
ATOM     18  C   UNL d   1      53.202  35.157  54.859  0.00  0.00     0.002 A 
ATOM     19  C   UNL d   1      52.794  35.630  54.316  0.00  0.00     0.000 A 
ATOM     20  C   UNL d   1      52.638  35.339  53.558  0.00  0.00     0.002 A 
ATOM     21  C   UNL d   1      52.885  34.582  53.341  0.00  0.00     0.019 A 
ENDBRANCH   3  16
TORSDOF 4
ENDMDL
MODEL 3
REMARK VINA RESULT:      -7.3      1.441      4.793
REMARK  4 active torsions:
REMARK  status: ('A' for Active; 'I' for Inactive)
REMARK    1  A    between atoms: C_6  and  C_2 
REMARK    2  A    between atoms: C_8  and  N_3 
REMARK       I    between atoms: N_7  and  C_6 
REMARK    3  A    between atoms: C_16  and  N_7 
REMARK    4  A    between atoms: C_9  and  C_16 
ROOT
ATOM      1  C   UNL d   1      51.104  33.668  52.765  0.00  0.00     0.211 A 
ATOM      2  C   UNL d   1      51.900  33.542  52.567  0.00  0.00     0.199 A 
ATOM      3  N   UNL d   1      50.793  34.234  52.258  0.00  0.00    -0.191 N 
ATOM      4  N   UNL d   1      51.400  34.459  51.744  0.00  0.00    -0.058 NA
ATOM      5  N   UNL d   1      52.077  34.029  51.942  0.00  0.00    -0.122 NA
ATOM      6  N   UNL d   1      50.688  33.290  53.370  0.00  0.00    -0.125 N 
ENDROOT
BRANCH   2   7
ATOM      7  C   UNL d   1      52.410  33.016  52.944  0.00  0.00     0.302 C 
ATOM      8  N   UNL d   1      52.978  33.291  53.467  0.00  0.00    -0.203 NA
ATOM      9  O   UNL d   1      52.343  32.207  52.788  0.00  0.00    -0.263 OA
BRANCH   8  10
ATOM     10  C   UNL d   1      53.490  32.757  53.844  0.00  0.00     0.127 C 
BRANCH  10  11
ATOM     11  C   UNL d   1      54.075  33.030  54.349  0.00  0.00     0.119 A 
ATOM     12  O   UNL d   1      54.797  33.383  54.116  0.00  0.00    -0.304 OA
ATOM     13  C   UNL d   1      55.214  33.571  54.797  0.00  0.00     0.123 A 
ATOM     14  C   UNL d   1      54.751  33.335  55.459  0.00  0.00     0.029 A 
ATOM     15  C   UNL d   1      54.064  33.009  55.172  0.00  0.00     0.028 A 
ENDBRANCH  10  11
ENDBRANCH   8  10
ENDBRANCH   2   7
BRANCH   3  16
ATOM     16  C   UNL d   1      50.022  34.527  52.257  0.00  0.00     0.086 A 
ATOM     17  C   UNL d   1      49.547  34.425  51.588  0.00  0.00     0.019 A 
ATOM     18  C   UNL d   1      48.776  34.718  51.588  0.00  0.00     0.002 A 
ATOM     19  C   UNL d   1      48.479  35.111  52.253  0.00  0.00     0.000 A 
ATOM     20  C   UNL d   1      48.960  35.209  52.917  0.00  0.00     0.002 A 
ATOM     21  C   UNL d   1      49.733  34.917  52.922  0.00  0.00     0.019 A 
ENDBRANCH   3  16
TORSDOF 4
ENDMDL
MODEL 4
REMARK VINA RESULT:      -7.2      0.898      1.358
REMARK  4 active torsions:
REMARK  status: ('A' for Active; 'I' for Inactive)
REMARK    1  A    between atoms: C_6  and  C_2 
REMARK    2  A    between atoms: C_8  and  N_3 
REMARK       I    between atoms: N_7  and  C_6 
REMARK    3  A    between atoms: C_16  and  N_7 
REMARK    4  A    between atoms: C_9  and  C_16 
ROOT
ATOM      1  C   UNL d   1      52.126  34.017  53.512  0.00  0.00     0.211 A 
ATOM      2  C   UNL d   1      51.333  33.891  53.301  0.00  0.00     0.199 A 
ATOM      3  N   UNL d   1      52.485  33.287  53.630  0.00  0.00    -0.191 N 
ATOM      4  N   UNL d   1      51.912  32.709  53.492  0.00  0.00    -0.058 NA
ATOM      5  N   UNL d   1      51.206  33.089  53.290  0.00  0.00    -0.122 NA
ATOM      6  N   UNL d   1      52.498  34.749  53.592  0.00  0.00    -0.125 N 
ENDROOT
BRANCH   2   7
ATOM      7  C   UNL d   1      50.782  34.481  53.136  0.00  0.00     0.302 C 
ATOM      8  N   UNL d   1      50.186  34.351  52.588  0.00  0.00    -0.203 NA
ATOM      9  O   UNL d   1      50.837  35.206  53.528  0.00  0.00    -0.263 OA
BRANCH   8  10
ATOM     10  C   UNL d   1      49.633  34.948  52.424  0.00  0.00     0.127 C 
BRANCH  10  11
ATOM     11  C   UNL d   1      49.076  34.846  51.832  0.00  0.00     0.119 A 
ATOM     12  O   UNL d   1      49.212  34.484  51.090  0.00  0.00    -0.304 OA
ATOM     13  C   UNL d   1      48.506  34.500  50.672  0.00  0.00     0.123 A 
ATOM     14  C   UNL d   1      47.927  34.874  51.154  0.00  0.00     0.029 A 
ATOM     15  C   UNL d   1      48.287  35.078  51.853  0.00  0.00     0.028 A 
ENDBRANCH  10  11
ENDBRANCH   8  10
ENDBRANCH   2   7
BRANCH   3  16
ATOM     16  C   UNL d   1      53.270  33.152  53.846  0.00  0.00     0.086 A 
ATOM     17  C   UNL d   1      53.506  33.280  54.628  0.00  0.00     0.019 A 
ATOM     18  C   UNL d   1      54.291  33.145  54.843  0.00  0.00     0.002 A 
ATOM     19  C   UNL d   1      54.839  32.883  54.280  0.00  0.00     0.000 A 
ATOM     20  C   UNL d   1      54.594  32.758  53.501  0.00  0.00     0.002 A 
ATOM     21  C   UNL d   1      53.809  32.892  53.281  0.00  0.00     0.019 A 
ENDBRANCH   3  16
TORSDOF 4
ENDMDL
MODEL 5
REMARK VINA RESULT:      -6.7      2.606      5.139
REMARK  4 active torsions:
REMARK  status: ('A' for Active; 'I' for Inactive)
REMARK    1  A    between atoms: C_6  and  C_2 
REMARK    2  A    between atoms: C_8  and  N_3 
REMARK       I    between atoms: N_7  and  C_6 
REMARK    3  A    between atoms: C_16  and  N_7 
REMARK    4  A    between atoms: C_9  and  C_16 
ROOT
ATOM      1  C   UNL d   1      52.500  32.640  53.114  0.00  0.00     0.211 A 
ATOM      2  C   UNL d   1      53.128  32.467  53.628  0.00  0.00     0.199 A 
ATOM      3  N   UNL d   1      52.174  33.362  53.332  0.00  0.00    -0.191 N 
ATOM      4  N   UNL d   1      52.602  33.636  53.982  0.00  0.00    -0.058 NA
ATOM      5  N   UNL d   1      53.188  33.079  54.158  0.00  0.00    -0.122 NA
ATOM      6  N   UNL d   1      52.241  32.169  52.487  0.00  0.00    -0.125 N 
ENDROOT
BRANCH   2   7
ATOM      7  C   UNL d   1      53.601  31.793  53.597  0.00  0.00     0.302 C 
ATOM      8  N   UNL d   1      53.320  31.076  53.878  0.00  0.00    -0.203 NA
ATOM      9  O   UNL d   1      54.362  31.847  53.280  0.00  0.00    -0.263 OA
BRANCH   8  10
ATOM     10  C   UNL d   1      53.800  30.398  53.845  0.00  0.00     0.127 C 
BRANCH  10  11
ATOM     11  C   UNL d   1      53.532  29.685  54.147  0.00  0.00     0.119 A 
ATOM     12  O   UNL d   1      53.030  29.144  53.751  0.00  0.00    -0.304 OA
ATOM     13  C   UNL d   1      52.903  28.509  54.255  0.00  0.00     0.123 A 
ATOM     14  C   UNL d   1      53.327  28.653  54.968  0.00  0.00     0.029 A 
ATOM     15  C   UNL d   1      53.702  29.369  54.887  0.00  0.00     0.028 A 
ENDBRANCH  10  11
ENDBRANCH   8  10
ENDBRANCH   2   7
BRANCH   3  16
ATOM     16  C   UNL d   1      51.538  33.745  52.972  0.00  0.00     0.086 A 
ATOM     17  C   UNL d   1      51.656  34.153  52.262  0.00  0.00     0.019 A 
ATOM     18  C   UNL d   1      51.019  34.535  51.903  0.00  0.00     0.002 A 
ATOM     19  C   UNL d   1      50.268  34.512  52.250  0.00  0.00     0.000 A 
ATOM     20  C   UNL d   1      50.159  34.102  52.959  0.00  0.00     0.002 A 
ATOM     21  C   UNL d   1      50.794  33.717  53.322  0.00  0.00     0.019 A 
ENDBRANCH   3  16
TORSDOF 4
ENDMDL
