MODEL 1
REMARK VINA RESULT:      91.8      0.000      0.000
REMARK  6 active torsions:
REMARK  status: ('A' for Active; 'I' for Inactive)
REMARK    1  A    between atoms: C_10  and  N_2 
REMARK    2  A    between atoms: C_11  and  N_5 
REMARK    3  A    between atoms: C_21  and  C_10 
REMARK    4  A    between atoms: C_12  and  C_11 
REMARK       I    between atoms: N_16  and  C_12 
REMARK    5  A    between atoms: C_15  and  C_17 
REMARK    6  A    between atoms: C_17  and  N_16 
ROOT
ATOM      1  C   UNL d   1     -54.719-101.823 -43.221  0.00  0.00     0.102 A 
ATOM      2  N   UNL d   1     -54.724-101.312 -41.896  0.00  0.00    -0.225 N 
ATOM      3  C   UNL d   1     -54.725-100.540 -42.188  0.00  0.00     0.342 A 
ATOM      4  C   UNL d   1     -54.720-101.044 -43.516  0.00  0.00     0.080 A 
ATOM      5  N   UNL d   1     -54.723-100.410 -43.001  0.00  0.00    -0.253 N 
ATOM      6  C   UNL d   1     -54.721-101.960 -42.414  0.00  0.00     0.276 A 
ATOM      7  S   UNL d   1     -54.716-102.338 -43.877  0.00  0.00    -0.081 SA
ATOM      8  C   UNL d   1     -54.717-101.086 -44.345  0.00  0.00     0.023 A 
ATOM      9  C   UNL d   1     -54.715-101.886 -44.567  0.00  0.00     0.031 A 
ATOM     10  O   UNL d   1     -54.728 -99.905 -41.670  0.00  0.00    -0.245 OA
ATOM     11  O   UNL d   1     -54.721-102.721 -42.117  0.00  0.00    -0.266 OA
ATOM     12  C   UNL d   1     -54.717-100.498 -44.919  0.00  0.00     0.002 A 
ATOM     13  C   UNL d   1     -54.712-102.092 -45.358  0.00  0.00     0.006 A 
ATOM     14  C   UNL d   1     -54.714-100.704 -45.720  0.00  0.00     0.000 A 
ATOM     15  C   UNL d   1     -54.711-101.503 -45.941  0.00  0.00     0.001 A 
ENDROOT
BRANCH   5  16
ATOM     16  C   UNL d   1     -54.723 -99.639 -43.293  0.00  0.00     0.147 C 
BRANCH  16  17
ATOM     17  C   UNL d   1     -55.350 -99.377 -43.770  0.00  0.00     0.297 C 
ATOM     18  N   UNL d   1     -56.006 -99.033 -43.422  0.00  0.00    -0.205 NA
ATOM     19  O   UNL d   1     -55.310 -99.464 -44.585  0.00  0.00    -0.264 OA
BRANCH  18  20
ATOM     20  C   UNL d   1     -56.632 -98.771 -43.902  0.00  0.00     0.103 C 
BRANCH  20  21
ATOM     21  C   UNL d   1     -57.416 -98.968 -43.695  0.00  0.00     0.030 A 
ATOM     22  C   UNL d   1     -57.987 -99.078 -44.279  0.00  0.00     0.059 A 
ATOM     23 CL   UNL d   1     -57.784 -98.994 -45.080  0.00  0.00    -0.082 Cl
ATOM     24  C   UNL d   1     -58.759 -99.272 -44.061  0.00  0.00     0.011 A 
ATOM     25  C   UNL d   1     -58.960 -99.356 -43.264  0.00  0.00     0.001 A 
ATOM     26  C   UNL d   1     -58.382 -99.244 -42.685  0.00  0.00     0.000 A 
ATOM     27  C   UNL d   1     -57.610 -99.050 -42.892  0.00  0.00     0.002 A 
ENDBRANCH  20  21
ENDBRANCH  18  20
ENDBRANCH  16  17
ENDBRANCH   5  16
BRANCH   2  28
ATOM     28  C   UNL d   1     -54.727-101.444 -41.077  0.00  0.00     0.087 C 
BRANCH  28  29
ATOM     29  C   UNL d   1     -55.310-101.919 -40.739  0.00  0.00     0.018 A 
ATOM     30  C   UNL d   1     -56.005-102.055 -41.162  0.00  0.00     0.002 A 
ATOM     31  C   UNL d   1     -56.595-102.535 -40.822  0.00  0.00     0.000 A 
ATOM     32  C   UNL d   1     -56.477-102.866 -40.070  0.00  0.00     0.000 A 
ATOM     33  C   UNL d   1     -55.781-102.717 -39.668  0.00  0.00     0.000 A 
ATOM     34  C   UNL d   1     -55.195-102.244 -40.001  0.00  0.00     0.002 A 
ENDBRANCH  28  29
ENDBRANCH   2  28
TORSDOF 6
ENDMDL
