MODEL 1
REMARK VINA RESULT:      -1.9      0.000      0.000
REMARK  5 active torsions:
REMARK  status: ('A' for Active; 'I' for Inactive)
REMARK    1  A    between atoms: N_2  and  S_1 
REMARK    2  A    between atoms: C_7  and  S_1 
REMARK    3  A    between atoms: C_3  and  N_2 
REMARK    4  A    between atoms: C_14  and  C_4 
REMARK    5  A    between atoms: O_19  and  C_16 
ROOT
ATOM      1  N   UNL d   1      32.793  20.135 -22.071  0.00  0.00    -0.158 NA
ENDROOT
BRANCH   1   2
ATOM      2  S   UNL d   1      32.916  19.827 -22.952  0.00  0.00     0.285 S 
ATOM      3  O   UNL d   1      33.241  20.576 -23.401  0.00  0.00    -0.198 OA
ATOM      4  O   UNL d   1      32.585  19.076 -22.481  0.00  0.00    -0.198 OA
BRANCH   2   5
ATOM      5  C   UNL d   1      32.888  19.304 -23.463  0.00  0.00     0.105 A 
ATOM      6  C   UNL d   1      32.507  18.683 -23.330  0.00  0.00     0.015 A 
ATOM      7  C   UNL d   1      32.480  18.156 -23.846  0.00  0.00     0.025 A 
ATOM      8  C   UNL d   1      32.828  18.241 -24.498  0.00  0.00     0.094 A 
ATOM      9  C   UNL d   1      33.208  18.860 -24.632  0.00  0.00     0.025 A 
ATOM     10  C   UNL d   1      33.239  19.400 -24.108  0.00  0.00     0.015 A 
BRANCH   8  11
ATOM     11  O   UNL d   1      32.793  17.709 -25.003  0.00  0.00    -0.328 OA
ATOM     12  C   UNL d   1      33.044  17.030 -24.928  0.00  0.00     0.181 C 
ENDBRANCH   8  11
ENDBRANCH   2   5
ENDBRANCH   1   2
BRANCH   1  13
ATOM     13  C   UNL d   1      32.857  20.806 -21.575  0.00  0.00     0.094 A 
ATOM     14  C   UNL d   1      32.697  21.553 -21.880  0.00  0.00     0.023 A 
ATOM     15  C   UNL d   1      32.762  22.222 -21.384  0.00  0.00     0.041 A 
ATOM     16  C   UNL d   1      32.986  22.132 -20.594  0.00  0.00     0.196 A 
ATOM     17  C   UNL d   1      33.145  21.375 -20.296  0.00  0.00     0.044 A 
ATOM     18  O   UNL d   1      33.049  22.791 -20.105  0.00  0.00    -0.287 OA
ATOM     19  C   UNL d   1      33.081  20.714 -20.785  0.00  0.00     0.022 A 
ATOM     20  C   UNL d   1      33.241  19.958 -20.487  0.00  0.00     0.002 C 
BRANCH  15  21
ATOM     21  C   UNL d   1      32.602  22.979 -21.681  0.00  0.00     0.003 C 
ATOM     22  C   UNL d   1      31.846  23.311 -21.597  0.00  0.00     0.000 C 
ATOM     23  C   UNL d   1      33.209  23.412 -22.070  0.00  0.00     0.000 C 
ENDBRANCH  15  21
ENDBRANCH   1  13
TORSDOF 5
ENDMDL
MODEL 2
REMARK VINA RESULT:      -0.9      1.590      2.567
REMARK  5 active torsions:
REMARK  status: ('A' for Active; 'I' for Inactive)
REMARK    1  A    between atoms: N_2  and  S_1 
REMARK    2  A    between atoms: C_7  and  S_1 
REMARK    3  A    between atoms: C_3  and  N_2 
REMARK    4  A    between atoms: C_14  and  C_4 
REMARK    5  A    between atoms: O_19  and  C_16 
ROOT
ATOM      1  N   UNL d   1      32.688  18.881 -23.549  0.00  0.00    -0.158 NA
ENDROOT
BRANCH   1   2
ATOM      2  S   UNL d   1      32.018  18.315 -23.888  0.00  0.00     0.285 S 
ATOM      3  O   UNL d   1      31.367  18.908 -24.196  0.00  0.00    -0.198 OA
ATOM      4  O   UNL d   1      32.687  17.728 -23.571  0.00  0.00    -0.198 OA
BRANCH   2   5
ATOM      5  C   UNL d   1      31.745  17.651 -24.034  0.00  0.00     0.105 A 
ATOM      6  C   UNL d   1      32.058  17.236 -24.561  0.00  0.00     0.015 A 
ATOM      7  C   UNL d   1      31.782  16.567 -24.707  0.00  0.00     0.025 A 
ATOM      8  C   UNL d   1      31.195  16.305 -24.333  0.00  0.00     0.094 A 
ATOM      9  C   UNL d   1      30.882  16.719 -23.807  0.00  0.00     0.025 A 
ATOM     10  C   UNL d   1      31.159  17.402 -23.654  0.00  0.00     0.015 A 
BRANCH   8  11
ATOM     11  O   UNL d   1      30.931  15.638 -24.488  0.00  0.00    -0.328 OA
ATOM     12  C   UNL d   1      30.325  15.495 -24.866  0.00  0.00     0.181 C 
ENDBRANCH   8  11
ENDBRANCH   2   5
ENDBRANCH   1   2
BRANCH   1  13
ATOM     13  C   UNL d   1      32.827  19.628 -23.198  0.00  0.00     0.094 A 
ATOM     14  C   UNL d   1      32.704  19.726 -22.391  0.00  0.00     0.023 A 
ATOM     15  C   UNL d   1      32.844  20.472 -22.041  0.00  0.00     0.041 A 
ATOM     16  C   UNL d   1      33.104  21.105 -22.505  0.00  0.00     0.196 A 
ATOM     17  C   UNL d   1      33.224  20.996 -23.318  0.00  0.00     0.044 A 
ATOM     18  O   UNL d   1      33.241  21.840 -22.161  0.00  0.00    -0.287 OA
ATOM     19  C   UNL d   1      33.087  20.260 -23.663  0.00  0.00     0.022 A 
ATOM     20  C   UNL d   1      33.208  20.152 -24.475  0.00  0.00     0.002 C 
BRANCH  15  21
ATOM     21  C   UNL d   1      32.723  20.582 -21.229  0.00  0.00     0.003 C 
ATOM     22  C   UNL d   1      32.127  21.093 -20.959  0.00  0.00     0.000 C 
ATOM     23  C   UNL d   1      33.206  20.173 -20.675  0.00  0.00     0.000 C 
ENDBRANCH  15  21
ENDBRANCH   1  13
TORSDOF 5
ENDMDL
MODEL 3
REMARK VINA RESULT:       0.7      2.520      5.731
REMARK  5 active torsions:
REMARK  status: ('A' for Active; 'I' for Inactive)
REMARK    1  A    between atoms: N_2  and  S_1 
REMARK    2  A    between atoms: C_7  and  S_1 
REMARK    3  A    between atoms: C_3  and  N_2 
REMARK    4  A    between atoms: C_14  and  C_4 
REMARK    5  A    between atoms: O_19  and  C_16 
ROOT
ATOM      1  N   UNL d   1      32.395  22.961 -19.957  0.00  0.00    -0.158 NA
ENDROOT
BRANCH   1   2
ATOM      2  S   UNL d   1      32.296  22.887 -19.024  0.00  0.00     0.285 S 
ATOM      3  O   UNL d   1      31.472  22.464 -18.926  0.00  0.00    -0.198 OA
ATOM      4  O   UNL d   1      33.131  23.316 -19.142  0.00  0.00    -0.198 OA
BRANCH   2   5
ATOM      5  C   UNL d   1      32.533  22.991 -18.339  0.00  0.00     0.105 A 
ATOM      6  C   UNL d   1      32.382  22.484 -17.821  0.00  0.00     0.015 A 
ATOM      7  C   UNL d   1      32.620  22.589 -17.130  0.00  0.00     0.025 A 
ATOM      8  C   UNL d   1      33.010  23.197 -16.948  0.00  0.00     0.094 A 
ATOM      9  C   UNL d   1      33.161  23.702 -17.465  0.00  0.00     0.025 A 
ATOM     10  C   UNL d   1      32.920  23.600 -18.171  0.00  0.00     0.015 A 
BRANCH   8  11
ATOM     11  O   UNL d   1      33.241  23.289 -16.258  0.00  0.00    -0.328 OA
ATOM     12  C   UNL d   1      33.067  22.870 -15.688  0.00  0.00     0.181 C 
ENDBRANCH   8  11
ENDBRANCH   2   5
ENDBRANCH   1   2
BRANCH   1  13
ATOM     13  C   UNL d   1      32.489  22.522 -20.663  0.00  0.00     0.094 A 
ATOM     14  C   UNL d   1      32.730  21.737 -20.623  0.00  0.00     0.023 A 
ATOM     15  C   UNL d   1      32.823  21.299 -21.329  0.00  0.00     0.041 A 
ATOM     16  C   UNL d   1      32.673  21.655 -22.060  0.00  0.00     0.196 A 
ATOM     17  C   UNL d   1      32.431  22.446 -22.089  0.00  0.00     0.044 A 
ATOM     18  O   UNL d   1      32.764  21.223 -22.755  0.00  0.00    -0.287 OA
ATOM     19  C   UNL d   1      32.339  22.879 -21.394  0.00  0.00     0.022 A 
ATOM     20  C   UNL d   1      32.096  23.670 -21.424  0.00  0.00     0.002 C 
BRANCH  15  21
ATOM     21  C   UNL d   1      33.065  20.507 -21.300  0.00  0.00     0.003 C 
ATOM     22  C   UNL d   1      33.140  20.118 -20.571  0.00  0.00     0.000 C 
ATOM     23  C   UNL d   1      33.236  20.095 -22.013  0.00  0.00     0.000 C 
ENDBRANCH  15  21
ENDBRANCH   1  13
TORSDOF 5
ENDMDL
MODEL 4
REMARK VINA RESULT:       1.0      2.127      4.918
REMARK  5 active torsions:
REMARK  status: ('A' for Active; 'I' for Inactive)
REMARK    1  A    between atoms: N_2  and  S_1 
REMARK    2  A    between atoms: C_7  and  S_1 
REMARK    3  A    between atoms: C_3  and  N_2 
REMARK    4  A    between atoms: C_14  and  C_4 
REMARK    5  A    between atoms: O_19  and  C_16 
ROOT
ATOM      1  N   UNL d   1      32.403  22.120 -21.434  0.00  0.00    -0.158 NA
ENDROOT
BRANCH   1   2
ATOM      2  S   UNL d   1      32.672  22.678 -20.727  0.00  0.00     0.285 S 
ATOM      3  O   UNL d   1      33.229  23.301 -21.141  0.00  0.00    -0.198 OA
ATOM      4  O   UNL d   1      32.105  22.039 -20.322  0.00  0.00    -0.198 OA
BRANCH   2   5
ATOM      5  C   UNL d   1      32.670  22.875 -20.021  0.00  0.00     0.105 A 
ATOM      6  C   UNL d   1      32.337  23.504 -19.819  0.00  0.00     0.015 A 
ATOM      7  C   UNL d   1      32.335  23.702 -19.108  0.00  0.00     0.025 A 
ATOM      8  C   UNL d   1      32.663  23.277 -18.592  0.00  0.00     0.094 A 
ATOM      9  C   UNL d   1      32.995  22.649 -18.794  0.00  0.00     0.025 A 
ATOM     10  C   UNL d   1      33.000  22.443 -19.517  0.00  0.00     0.015 A 
BRANCH   8  11
ATOM     11  O   UNL d   1      32.654  23.485 -17.888  0.00  0.00    -0.328 OA
ATOM     12  C   UNL d   1      33.237  23.592 -17.466  0.00  0.00     0.181 C 
ENDBRANCH   8  11
ENDBRANCH   2   5
ENDBRANCH   1   2
BRANCH   1  13
ATOM     13  C   UNL d   1      32.606  21.856 -22.202  0.00  0.00     0.094 A 
ATOM     14  C   UNL d   1      32.663  22.401 -22.815  0.00  0.00     0.023 A 
ATOM     15  C   UNL d   1      32.867  22.137 -23.582  0.00  0.00     0.041 A 
ATOM     16  C   UNL d   1      33.009  21.334 -23.719  0.00  0.00     0.196 A 
ATOM     17  C   UNL d   1      32.948  20.794 -23.094  0.00  0.00     0.044 A 
ATOM     18  O   UNL d   1      33.209  21.074 -24.474  0.00  0.00    -0.287 OA
ATOM     19  C   UNL d   1      32.748  21.053 -22.338  0.00  0.00     0.022 A 
ATOM     20  C   UNL d   1      32.688  20.513 -21.714  0.00  0.00     0.002 C 
BRANCH  15  21
ATOM     21  C   UNL d   1      32.927  22.677 -24.207  0.00  0.00     0.003 C 
ATOM     22  C   UNL d   1      32.737  22.445 -24.981  0.00  0.00     0.000 C 
ATOM     23  C   UNL d   1      33.182  23.465 -24.057  0.00  0.00     0.000 C 
ENDBRANCH  15  21
ENDBRANCH   1  13
TORSDOF 5
ENDMDL
