MODEL 1
REMARK VINA RESULT:     102.4      0.000      0.000
REMARK  6 active torsions:
REMARK  status: ('A' for Active; 'I' for Inactive)
REMARK    1  A    between atoms: C_9  and  C_2 
REMARK    2  A    between atoms: N_3  and  C_7 
REMARK       I    between atoms: C_8  and  N_14 
REMARK    3  A    between atoms: C_10  and  C_8 
REMARK    4  A    between atoms: C_13  and  C_10 
REMARK    5  A    between atoms: C_19  and  C_13 
REMARK    6  A    between atoms: N_14  and  C_20 
ROOT
ATOM      1  C   UNL d   1      59.386  48.560  50.669  0.00  0.00     0.041 A 
ATOM      2  C   UNL d   1      59.846  48.928  50.101  0.00  0.00     0.005 A 
ATOM      3  C   UNL d   1      59.665  47.953  51.137  0.00  0.00     0.005 A 
ATOM      4  C   UNL d   1      60.903  48.063  50.471  0.00  0.00     0.085 A 
ATOM      5  C   UNL d   1      60.628  48.652  50.018  0.00  0.00     0.019 A 
ATOM      6  C   UNL d   1      60.439  47.697  51.038  0.00  0.00     0.019 A 
ENDROOT
BRANCH   4   7
ATOM      7  N   UNL d   1      61.683  47.824  50.352  0.00  0.00    -0.208 NA
ATOM      8  C   UNL d   1      61.865  47.303  49.733  0.00  0.00     0.279 C 
ATOM      9  O   UNL d   1      61.257  47.037  49.254  0.00  0.00    -0.265 OA
BRANCH   8  10
ATOM     10  C   UNL d   1      62.645  47.061  49.611  0.00  0.00     0.062 C 
BRANCH  10  11
ATOM     11  C   UNL d   1      62.914  46.339  49.882  0.00  0.00     0.005 C 
BRANCH  11  12
ATOM     12  C   UNL d   1      62.524  45.617  49.684  0.00  0.00     0.002 A 
ATOM     13  C   UNL d   1      62.642  44.944  50.147  0.00  0.00     0.024 A 
ATOM     14  C   UNL d   1      62.248  44.223  49.943  0.00  0.00     0.127 A 
ATOM     15  C   UNL d   1      61.750  44.210  49.281  0.00  0.00     0.024 A 
ATOM     16  C   UNL d   1      61.646  44.894  48.832  0.00  0.00     0.002 A 
ATOM     17  C   UNL d   1      62.029  45.603  49.027  0.00  0.00     0.000 A 
BRANCH  14  18
ATOM     18  N   UNL d   1      62.354  43.546  50.392  0.00  0.00    -0.114 N 
ATOM     19  O   UNL d   1      62.749  42.846  50.144  0.00  0.00    -0.532 OA
ATOM     20  O   UNL d   1      62.078  43.465  51.168  0.00  0.00    -0.532 OA
ENDBRANCH  14  18
ENDBRANCH  11  12
ENDBRANCH  10  11
ENDBRANCH   8  10
ENDBRANCH   4   7
BRANCH   1  21
ATOM     21  C   UNL d   1      58.605  48.827  50.760  0.00  0.00     0.182 A 
ATOM     22  N   UNL d   1      58.126  48.999  51.416  0.00  0.00    -0.220 NA
ATOM     23  C   UNL d   1      57.395  49.245  51.143  0.00  0.00     0.106 A 
ATOM     24  C   UNL d   1      57.419  49.225  50.321  0.00  0.00     0.119 A 
ATOM     25  C   UNL d   1      56.706  49.485  51.540  0.00  0.00     0.021 A 
ATOM     26  C   UNL d   1      56.756  49.446  49.892  0.00  0.00     0.026 A 
ATOM     27  O   UNL d   1      58.144  48.975  50.099  0.00  0.00    -0.288 OA
ATOM     28  C   UNL d   1      56.073  49.683  50.260  0.00  0.00     0.002 A 
ATOM     29  C   UNL d   1      56.035  49.708  51.097  0.00  0.00     0.002 A 
ENDBRANCH   1  21
TORSDOF 6
ENDMDL
