MODEL 1
REMARK VINA RESULT:      -2.9      0.000      0.000
REMARK  1 active torsions:
REMARK  status: ('A' for Active; 'I' for Inactive)
REMARK       I    between atoms: N_3  and  C_1 
REMARK       I    between atoms: N_5  and  C_1 
REMARK       I    between atoms: C_2  and  N_4 
REMARK    1  A    between atoms: C_6  and  C_2 
ROOT
ATOM      1  C   UNL d   1      33.047  20.926 -21.359  0.00  0.00     0.340 C 
ATOM      2  C   UNL d   1      32.892  18.798 -23.879  0.00  0.00     0.271 C 
ATOM      3  N   UNL d   1      33.108  20.379 -21.973  0.00  0.00    -0.254 N 
ATOM      4  N   UNL d   1      32.943  19.333 -23.236  0.00  0.00    -0.269 N 
ATOM      5  N   UNL d   1      33.185  21.727 -21.504  0.00  0.00    -0.253 N 
ATOM      6  O   UNL d   1      32.848  20.676 -20.602  0.00  0.00    -0.245 OA
ATOM      7  C   UNL d   1      32.940  19.579 -21.832  0.00  0.00     0.104 A 
ATOM      8  C   UNL d   1      33.212  20.648 -22.758  0.00  0.00     0.104 A 
ATOM      9  C   UNL d   1      32.847  19.051 -22.475  0.00  0.00     0.102 A 
ATOM     10  C   UNL d   1      33.134  20.125 -23.391  0.00  0.00     0.102 A 
ATOM     11  O   UNL d   1      32.996  19.069 -24.660  0.00  0.00    -0.266 OA
ATOM     12  O   UNL d   1      33.180  23.366 -21.857  0.00  0.00    -0.300 OA
ATOM     13  C   UNL d   1      32.843  22.309 -20.960  0.00  0.00     0.111 C 
ATOM     14  C   UNL d   1      33.102  22.009 -22.330  0.00  0.00     0.111 C 
ATOM     15  C   UNL d   1      33.240  22.815 -22.469  0.00  0.00     0.142 C 
ATOM     16  C   UNL d   1      32.980  23.104 -21.100  0.00  0.00     0.142 C 
ENDROOT
BRANCH   2  17
ATOM     17  C   UNL d   1      32.716  17.998 -23.738  0.00  0.00     0.086 A 
ATOM     18  S   UNL d   1      31.987  17.624 -23.886  0.00  0.00    -0.082 SA
ATOM     19  C   UNL d   1      32.062  16.815 -23.671  0.00  0.00     0.036 A 
ATOM     20  C   UNL d   1      32.835  16.700 -23.386  0.00  0.00     0.008 A 
ATOM     21  C   UNL d   1      33.241  17.426 -23.432  0.00  0.00     0.012 A 
ENDBRANCH   2  17
TORSDOF 1
ENDMDL
MODEL 2
REMARK VINA RESULT:      -2.4      1.515      4.624
REMARK  1 active torsions:
REMARK  status: ('A' for Active; 'I' for Inactive)
REMARK       I    between atoms: N_3  and  C_1 
REMARK       I    between atoms: N_5  and  C_1 
REMARK       I    between atoms: C_2  and  N_4 
REMARK    1  A    between atoms: C_6  and  C_2 
ROOT
ATOM      1  C   UNL d   1      32.918  18.632 -24.149  0.00  0.00     0.340 C 
ATOM      2  C   UNL d   1      33.050  20.345 -21.329  0.00  0.00     0.271 C 
ATOM      3  N   UNL d   1      33.049  19.079 -23.467  0.00  0.00    -0.254 N 
ATOM      4  N   UNL d   1      33.028  19.917 -22.048  0.00  0.00    -0.269 N 
ATOM      5  N   UNL d   1      33.070  17.821 -24.144  0.00  0.00    -0.253 N 
ATOM      6  O   UNL d   1      32.637  18.992 -24.831  0.00  0.00    -0.245 OA
ATOM      7  C   UNL d   1      32.868  19.889 -23.464  0.00  0.00     0.104 A 
ATOM      8  C   UNL d   1      33.239  18.694 -22.750  0.00  0.00     0.104 A 
ATOM      9  C   UNL d   1      32.848  20.310 -22.742  0.00  0.00     0.102 A 
ATOM     10  C   UNL d   1      33.233  19.113 -22.039  0.00  0.00     0.102 A 
ATOM     11  O   UNL d   1      33.239  19.959 -20.615  0.00  0.00    -0.266 OA
ATOM     12  O   UNL d   1      33.100  16.147 -24.050  0.00  0.00    -0.300 OA
ATOM     13  C   UNL d   1      32.668  17.323 -24.731  0.00  0.00     0.111 C 
ATOM     14  C   UNL d   1      33.079  17.414 -23.368  0.00  0.00     0.111 C 
ATOM     15  C   UNL d   1      33.229  16.598 -23.371  0.00  0.00     0.142 C 
ATOM     16  C   UNL d   1      32.817  16.519 -24.730  0.00  0.00     0.142 C 
ENDROOT
BRANCH   2  17
ATOM     17  C   UNL d   1      32.861  21.154 -21.324  0.00  0.00     0.086 A 
ATOM     18  S   UNL d   1      32.267  21.516 -20.867  0.00  0.00    -0.082 SA
ATOM     19  C   UNL d   1      32.279  22.340 -21.031  0.00  0.00     0.036 A 
ATOM     20  C   UNL d   1      32.876  22.478 -21.593  0.00  0.00     0.008 A 
ATOM     21  C   UNL d   1      33.240  21.750 -21.771  0.00  0.00     0.012 A 
ENDBRANCH   2  17
TORSDOF 1
ENDMDL
MODEL 3
REMARK VINA RESULT:      -2.3      1.703      4.608
REMARK  1 active torsions:
REMARK  status: ('A' for Active; 'I' for Inactive)
REMARK       I    between atoms: N_3  and  C_1 
REMARK       I    between atoms: N_5  and  C_1 
REMARK       I    between atoms: C_2  and  N_4 
REMARK    1  A    between atoms: C_6  and  C_2 
ROOT
ATOM      1  C   UNL d   1      33.234  19.998 -23.945  0.00  0.00     0.340 C 
ATOM      2  C   UNL d   1      32.787  21.480 -21.028  0.00  0.00     0.271 C 
ATOM      3  N   UNL d   1      33.225  20.370 -23.207  0.00  0.00    -0.254 N 
ATOM      4  N   UNL d   1      32.913  21.108 -21.768  0.00  0.00    -0.269 N 
ATOM      5  N   UNL d   1      33.238  19.174 -23.991  0.00  0.00    -0.253 N 
ATOM      6  O   UNL d   1      33.240  20.448 -24.633  0.00  0.00    -0.245 OA
ATOM      7  C   UNL d   1      33.192  21.197 -23.163  0.00  0.00     0.104 A 
ATOM      8  C   UNL d   1      33.119  19.912 -22.515  0.00  0.00     0.104 A 
ATOM      9  C   UNL d   1      33.023  21.570 -22.433  0.00  0.00     0.102 A 
ATOM     10  C   UNL d   1      32.967  20.281 -21.793  0.00  0.00     0.102 A 
ATOM     11  O   UNL d   1      32.681  21.022 -20.340  0.00  0.00    -0.266 OA
ATOM     12  O   UNL d   1      32.955  17.525 -24.088  0.00  0.00    -0.300 OA
ATOM     13  C   UNL d   1      32.956  18.802 -24.722  0.00  0.00     0.111 C 
ATOM     14  C   UNL d   1      32.941  18.728 -23.298  0.00  0.00     0.111 C 
ATOM     15  C   UNL d   1      32.945  17.900 -23.352  0.00  0.00     0.142 C 
ATOM     16  C   UNL d   1      32.960  17.985 -24.772  0.00  0.00     0.142 C 
ENDROOT
BRANCH   2  17
ATOM     17  C   UNL d   1      32.746  22.309 -20.984  0.00  0.00     0.086 A 
ATOM     18  S   UNL d   1      33.238  22.799 -20.525  0.00  0.00    -0.082 SA
ATOM     19  C   UNL d   1      33.005  23.596 -20.656  0.00  0.00     0.036 A 
ATOM     20  C   UNL d   1      32.367  23.589 -21.190  0.00  0.00     0.008 A 
ATOM     21  C   UNL d   1      32.209  22.797 -21.396  0.00  0.00     0.012 A 
ENDBRANCH   2  17
TORSDOF 1
ENDMDL
MODEL 4
REMARK VINA RESULT:      -1.7      3.220      5.465
REMARK  1 active torsions:
REMARK  status: ('A' for Active; 'I' for Inactive)
REMARK       I    between atoms: N_3  and  C_1 
REMARK       I    between atoms: N_5  and  C_1 
REMARK       I    between atoms: C_2  and  N_4 
REMARK    1  A    between atoms: C_6  and  C_2 
ROOT
ATOM      1  C   UNL d   1      28.950  17.384 -24.203  0.00  0.00     0.340 C 
ATOM      2  C   UNL d   1      32.242  17.616 -24.076  0.00  0.00     0.271 C 
ATOM      3  N   UNL d   1      29.773  17.404 -24.266  0.00  0.00    -0.254 N 
ATOM      4  N   UNL d   1      31.407  17.556 -24.122  0.00  0.00    -0.269 N 
ATOM      5  N   UNL d   1      28.575  16.706 -23.920  0.00  0.00    -0.253 N 
ATOM      6  O   UNL d   1      28.504  18.039 -24.421  0.00  0.00    -0.245 OA
ATOM      7  C   UNL d   1      30.151  18.096 -24.524  0.00  0.00     0.104 A 
ATOM      8  C   UNL d   1      30.227  16.776 -23.952  0.00  0.00     0.104 A 
ATOM      9  C   UNL d   1      30.980  18.175 -24.440  0.00  0.00     0.102 A 
ATOM     10  C   UNL d   1      31.046  16.849 -23.883  0.00  0.00     0.102 A 
ATOM     11  O   UNL d   1      32.692  16.989 -23.762  0.00  0.00    -0.266 OA
ATOM     12  O   UNL d   1      27.841  15.453 -23.082  0.00  0.00    -0.300 OA
ATOM     13  C   UNL d   1      27.778  16.786 -23.584  0.00  0.00     0.111 C 
ATOM     14  C   UNL d   1      29.048  16.155 -23.431  0.00  0.00     0.111 C 
ATOM     15  C   UNL d   1      28.663  15.476 -23.147  0.00  0.00     0.142 C 
ATOM     16  C   UNL d   1      27.402  16.115 -23.304  0.00  0.00     0.142 C 
ENDROOT
BRANCH   2  17
ATOM     17  C   UNL d   1      32.620  18.312 -24.326  0.00  0.00     0.086 A 
ATOM     18  S   UNL d   1      32.905  18.466 -25.093  0.00  0.00    -0.082 SA
ATOM     19  C   UNL d   1      33.237  19.238 -25.097  0.00  0.00     0.036 A 
ATOM     20  C   UNL d   1      33.159  19.551 -24.330  0.00  0.00     0.008 A 
ATOM     21  C   UNL d   1      32.775  18.984 -23.855  0.00  0.00     0.012 A 
ENDBRANCH   2  17
TORSDOF 1
ENDMDL
MODEL 5
REMARK VINA RESULT:      -1.7      1.351      2.107
REMARK  1 active torsions:
REMARK  status: ('A' for Active; 'I' for Inactive)
REMARK       I    between atoms: N_3  and  C_1 
REMARK       I    between atoms: N_5  and  C_1 
REMARK       I    between atoms: C_2  and  N_4 
REMARK    1  A    between atoms: C_6  and  C_2 
ROOT
ATOM      1  C   UNL d   1      32.499  22.465 -21.258  0.00  0.00     0.340 C 
ATOM      2  C   UNL d   1      32.977  19.347 -22.235  0.00  0.00     0.271 C 
ATOM      3  N   UNL d   1      32.520  21.670 -21.481  0.00  0.00    -0.254 N 
ATOM      4  N   UNL d   1      32.842  20.136 -21.988  0.00  0.00    -0.269 N 
ATOM      5  N   UNL d   1      32.644  22.677 -20.474  0.00  0.00    -0.253 N 
ATOM      6  O   UNL d   1      32.335  23.045 -21.817  0.00  0.00    -0.245 OA
ATOM      7  C   UNL d   1      32.403  21.461 -22.275  0.00  0.00     0.104 A 
ATOM      8  C   UNL d   1      32.783  21.094 -20.935  0.00  0.00     0.104 A 
ATOM      9  C   UNL d   1      32.577  20.684 -22.533  0.00  0.00     0.102 A 
ATOM     10  C   UNL d   1      32.941  20.325 -21.186  0.00  0.00     0.102 A 
ATOM     11  O   UNL d   1      33.241  18.775 -21.688  0.00  0.00    -0.266 OA
ATOM     12  O   UNL d   1      33.218  23.125 -18.964  0.00  0.00    -0.300 OA
ATOM     13  C   UNL d   1      32.909  23.486 -20.309  0.00  0.00     0.111 C 
ATOM     14  C   UNL d   1      33.093  22.111 -19.978  0.00  0.00     0.111 C 
ATOM     15  C   UNL d   1      33.237  22.332 -19.191  0.00  0.00     0.142 C 
ATOM     16  C   UNL d   1      33.052  23.701 -19.532  0.00  0.00     0.142 C 
ENDROOT
BRANCH   2  17
ATOM     17  C   UNL d   1      32.868  19.138 -23.031  0.00  0.00     0.086 A 
ATOM     18  S   UNL d   1      33.241  19.493 -23.686  0.00  0.00    -0.082 SA
ATOM     19  C   UNL d   1      32.974  19.102 -24.380  0.00  0.00     0.036 A 
ATOM     20  C   UNL d   1      32.433  18.514 -24.148  0.00  0.00     0.008 A 
ATOM     21  C   UNL d   1      32.370  18.531 -23.317  0.00  0.00     0.012 A 
ENDBRANCH   2  17
TORSDOF 1
ENDMDL
