MODEL 1
REMARK VINA RESULT:     -10.0      0.000      0.000
REMARK  3 active torsions:
REMARK  status: ('A' for Active; 'I' for Inactive)
REMARK    1  A    between atoms: S_10  and  C_3 
REMARK    2  A    between atoms: C_14  and  S_10 
REMARK    3  A    between atoms: C_16  and  C_14 
ROOT
ATOM      1  C   UNL d   1      53.555  32.759  54.057  0.00  0.00     0.155 A 
ATOM      2  C   UNL d   1      52.949  32.547  53.536  0.00  0.00     0.107 A 
ATOM      3  C   UNL d   1      52.490  33.895  53.533  0.00  0.00     0.182 A 
ATOM      4  N   UNL d   1      53.088  34.108  54.049  0.00  0.00    -0.250 N 
ATOM      5  N   UNL d   1      52.413  33.121  53.272  0.00  0.00    -0.220 NA
ATOM      6  C   UNL d   1      53.626  33.534  54.313  0.00  0.00     0.285 A 
ATOM      7  N   UNL d   1      53.998  32.085  54.223  0.00  0.00    -0.239 NA
ATOM      8  C   UNL d   1      53.013  31.744  53.376  0.00  0.00     0.037 A 
ATOM      9  C   UNL d   1      53.666  31.453  53.803  0.00  0.00     0.083 A 
ATOM     10  O   UNL d   1      54.231  33.754  54.836  0.00  0.00    -0.265 OA
ATOM     11  C   UNL d   1      53.158  34.892  54.306  0.00  0.00     0.104 C 
ATOM     12  C   UNL d   1      52.572  31.236  52.905  0.00  0.00     0.003 A 
ATOM     13  C   UNL d   1      53.870  30.654  53.752  0.00  0.00     0.019 A 
ATOM     14  C   UNL d   1      52.778  30.437  52.855  0.00  0.00     0.000 A 
ATOM     15  C   UNL d   1      53.423  30.150  53.277  0.00  0.00     0.002 A 
ENDROOT
BRANCH   3  16
ATOM     16  S   UNL d   1      51.957  34.469  53.272  0.00  0.00    -0.050 SA
BRANCH  16  17
ATOM     17  C   UNL d   1      51.387  34.280  52.707  0.00  0.00     0.032 C 
ATOM     18  C   UNL d   1      51.593  34.241  51.912  0.00  0.00     0.007 C 
BRANCH  17  19
ATOM     19  C   UNL d   1      50.613  34.131  52.946  0.00  0.00     0.007 C 
ATOM     20  C   UNL d   1      49.979  34.464  52.531  0.00  0.00     0.001 C 
ENDBRANCH  17  19
ENDBRANCH  16  17
ENDBRANCH   3  16
TORSDOF 3
ENDMDL
MODEL 2
REMARK VINA RESULT:      -9.4      1.391      2.672
REMARK  3 active torsions:
REMARK  status: ('A' for Active; 'I' for Inactive)
REMARK    1  A    between atoms: S_10  and  C_3 
REMARK    2  A    between atoms: C_14  and  S_10 
REMARK    3  A    between atoms: C_16  and  C_14 
ROOT
ATOM      1  C   UNL d   1      52.565  32.335  53.001  0.00  0.00     0.155 A 
ATOM      2  C   UNL d   1      53.120  32.066  53.551  0.00  0.00     0.107 A 
ATOM      3  C   UNL d   1      53.329  33.406  53.986  0.00  0.00     0.182 A 
ATOM      4  N   UNL d   1      52.780  33.675  53.442  0.00  0.00    -0.250 N 
ATOM      5  N   UNL d   1      53.504  32.606  54.047  0.00  0.00    -0.220 NA
ATOM      6  C   UNL d   1      52.395  33.134  52.945  0.00  0.00     0.285 A 
ATOM      7  N   UNL d   1      52.275  31.683  52.589  0.00  0.00    -0.239 NA
ATOM      8  C   UNL d   1      53.178  31.249  53.485  0.00  0.00     0.037 A 
ATOM      9  C   UNL d   1      52.652  31.008  52.885  0.00  0.00     0.083 A 
ATOM     10  O   UNL d   1      51.839  33.412  52.395  0.00  0.00    -0.265 OA
ATOM     11  C   UNL d   1      52.609  34.484  53.387  0.00  0.00     0.104 C 
ATOM     12  C   UNL d   1      53.631  30.691  53.881  0.00  0.00     0.003 A 
ATOM     13  C   UNL d   1      52.587  30.207  52.690  0.00  0.00     0.019 A 
ATOM     14  C   UNL d   1      53.565  29.891  53.684  0.00  0.00     0.000 A 
ATOM     15  C   UNL d   1      53.046  29.653  53.093  0.00  0.00     0.002 A 
ENDROOT
BRANCH   3  16
ATOM     16  S   UNL d   1      53.710  33.947  54.478  0.00  0.00    -0.050 SA
BRANCH  16  17
ATOM     17  C   UNL d   1      54.343  33.706  54.949  0.00  0.00     0.032 C 
ATOM     18  C   UNL d   1      54.203  33.368  55.685  0.00  0.00     0.007 C 
BRANCH  17  19
ATOM     19  C   UNL d   1      55.113  33.806  54.674  0.00  0.00     0.007 C 
ATOM     20  C   UNL d   1      55.712  34.041  55.196  0.00  0.00     0.001 C 
ENDBRANCH  17  19
ENDBRANCH  16  17
ENDBRANCH   3  16
TORSDOF 3
ENDMDL
MODEL 3
REMARK VINA RESULT:      -9.0      1.498      3.626
REMARK  3 active torsions:
REMARK  status: ('A' for Active; 'I' for Inactive)
REMARK    1  A    between atoms: S_10  and  C_3 
REMARK    2  A    between atoms: C_14  and  S_10 
REMARK    3  A    between atoms: C_16  and  C_14 
ROOT
ATOM      1  C   UNL d   1      52.295  32.374  52.915  0.00  0.00     0.155 A 
ATOM      2  C   UNL d   1      52.511  33.092  53.261  0.00  0.00     0.107 A 
ATOM      3  C   UNL d   1      53.738  32.508  53.689  0.00  0.00     0.182 A 
ATOM      4  N   UNL d   1      53.526  31.795  53.347  0.00  0.00    -0.250 N 
ATOM      5  N   UNL d   1      53.240  33.158  53.652  0.00  0.00    -0.220 NA
ATOM      6  C   UNL d   1      52.797  31.728  52.956  0.00  0.00     0.285 A 
ATOM      7  N   UNL d   1      51.553  32.469  52.570  0.00  0.00    -0.239 NA
ATOM      8  C   UNL d   1      51.908  33.635  53.135  0.00  0.00     0.037 A 
ATOM      9  C   UNL d   1      51.309  33.249  52.704  0.00  0.00     0.083 A 
ATOM     10  O   UNL d   1      52.587  31.004  52.610  0.00  0.00    -0.265 OA
ATOM     11  C   UNL d   1      54.036  31.144  53.389  0.00  0.00     0.104 C 
ATOM     12  C   UNL d   1      51.816  34.422  53.349  0.00  0.00     0.003 A 
ATOM     13  C   UNL d   1      50.623  33.658  52.493  0.00  0.00     0.019 A 
ATOM     14  C   UNL d   1      51.130  34.831  53.136  0.00  0.00     0.000 A 
ATOM     15  C   UNL d   1      50.539  34.449  52.711  0.00  0.00     0.002 A 
ENDROOT
BRANCH   3  16
ATOM     16  S   UNL d   1      54.463  32.570  54.077  0.00  0.00    -0.050 SA
BRANCH  16  17
ATOM     17  C   UNL d   1      54.535  33.043  54.749  0.00  0.00     0.032 C 
ATOM     18  C   UNL d   1      54.160  32.826  55.447  0.00  0.00     0.007 C 
BRANCH  17  19
ATOM     19  C   UNL d   1      54.986  33.732  54.712  0.00  0.00     0.007 C 
ATOM     20  C   UNL d   1      55.402  33.991  55.379  0.00  0.00     0.001 C 
ENDBRANCH  17  19
ENDBRANCH  16  17
ENDBRANCH   3  16
TORSDOF 3
ENDMDL
MODEL 4
REMARK VINA RESULT:      -8.6      1.171      2.514
REMARK  3 active torsions:
REMARK  status: ('A' for Active; 'I' for Inactive)
REMARK    1  A    between atoms: S_10  and  C_3 
REMARK    2  A    between atoms: C_14  and  S_10 
REMARK    3  A    between atoms: C_16  and  C_14 
ROOT
ATOM      1  C   UNL d   1      53.678  32.376  53.929  0.00  0.00     0.155 A 
ATOM      2  C   UNL d   1      53.336  33.123  54.022  0.00  0.00     0.107 A 
ATOM      3  C   UNL d   1      52.247  32.719  53.198  0.00  0.00     0.182 A 
ATOM      4  N   UNL d   1      52.583  31.979  53.105  0.00  0.00    -0.250 N 
ATOM      5  N   UNL d   1      52.614  33.295  53.653  0.00  0.00    -0.220 NA
ATOM      6  C   UNL d   1      53.305  31.806  53.474  0.00  0.00     0.285 A 
ATOM      7  N   UNL d   1      54.384  32.363  54.352  0.00  0.00    -0.239 NA
ATOM      8  C   UNL d   1      53.826  33.575  54.501  0.00  0.00     0.037 A 
ATOM      9  C   UNL d   1      54.481  33.104  54.708  0.00  0.00     0.083 A 
ATOM     10  O   UNL d   1      53.642  31.054  53.376  0.00  0.00    -0.265 OA
ATOM     11  C   UNL d   1      52.204  31.404  52.644  0.00  0.00     0.104 C 
ATOM     12  C   UNL d   1      53.773  34.346  54.778  0.00  0.00     0.003 A 
ATOM     13  C   UNL d   1      55.075  33.412  55.193  0.00  0.00     0.019 A 
ATOM     14  C   UNL d   1      54.368  34.654  55.262  0.00  0.00     0.000 A 
ATOM     15  C   UNL d   1      55.014  34.188  55.467  0.00  0.00     0.002 A 
ENDROOT
BRANCH   3  16
ATOM     16  S   UNL d   1      51.528  32.887  52.830  0.00  0.00    -0.050 SA
BRANCH  16  17
ATOM     17  C   UNL d   1      51.308  33.669  52.686  0.00  0.00     0.032 C 
ATOM     18  C   UNL d   1      51.697  34.107  52.110  0.00  0.00     0.007 C 
BRANCH  17  19
ATOM     19  C   UNL d   1      50.696  34.004  53.125  0.00  0.00     0.007 C 
ATOM     20  C   UNL d   1      50.114  34.456  52.747  0.00  0.00     0.001 C 
ENDBRANCH  17  19
ENDBRANCH  16  17
ENDBRANCH   3  16
TORSDOF 3
ENDMDL
MODEL 5
REMARK VINA RESULT:      -8.5      1.136      3.280
REMARK  3 active torsions:
REMARK  status: ('A' for Active; 'I' for Inactive)
REMARK    1  A    between atoms: S_10  and  C_3 
REMARK    2  A    between atoms: C_14  and  S_10 
REMARK    3  A    between atoms: C_16  and  C_14 
ROOT
ATOM      1  C   UNL d   1      52.853  34.101  54.013  0.00  0.00     0.155 A 
ATOM      2  C   UNL d   1      52.524  33.437  53.646  0.00  0.00     0.107 A 
ATOM      3  C   UNL d   1      53.595  32.641  54.144  0.00  0.00     0.182 A 
ATOM      4  N   UNL d   1      53.922  33.296  54.508  0.00  0.00    -0.250 N 
ATOM      5  N   UNL d   1      52.900  32.701  53.713  0.00  0.00    -0.220 NA
ATOM      6  C   UNL d   1      53.547  34.033  54.442  0.00  0.00     0.285 A 
ATOM      7  N   UNL d   1      52.367  34.747  53.855  0.00  0.00    -0.239 NA
ATOM      8  C   UNL d   1      51.837  33.666  53.260  0.00  0.00     0.037 A 
ATOM      9  C   UNL d   1      51.736  34.483  53.389  0.00  0.00     0.083 A 
ATOM     10  O   UNL d   1      53.883  34.694  54.814  0.00  0.00    -0.265 OA
ATOM     11  C   UNL d   1      54.625  33.225  54.942  0.00  0.00     0.104 C 
ATOM     12  C   UNL d   1      51.289  33.252  52.811  0.00  0.00     0.003 A 
ATOM     13  C   UNL d   1      51.085  34.876  53.064  0.00  0.00     0.019 A 
ATOM     14  C   UNL d   1      50.638  33.646  52.487  0.00  0.00     0.000 A 
ATOM     15  C   UNL d   1      50.539  34.452  52.614  0.00  0.00     0.002 A 
ENDROOT
BRANCH   3  16
ATOM     16  S   UNL d   1      53.971  31.910  54.212  0.00  0.00    -0.050 SA
BRANCH  16  17
ATOM     17  C   UNL d   1      53.735  31.275  53.741  0.00  0.00     0.032 C 
ATOM     18  C   UNL d   1      53.942  31.254  52.946  0.00  0.00     0.007 C 
BRANCH  17  19
ATOM     19  C   UNL d   1      53.291  30.667  54.074  0.00  0.00     0.007 C 
ATOM     20  C   UNL d   1      53.437  29.881  53.859  0.00  0.00     0.001 C 
ENDBRANCH  17  19
ENDBRANCH  16  17
ENDBRANCH   3  16
TORSDOF 3
ENDMDL
MODEL 6
REMARK VINA RESULT:      -8.3      1.527      3.516
REMARK  3 active torsions:
REMARK  status: ('A' for Active; 'I' for Inactive)
REMARK    1  A    between atoms: S_10  and  C_3 
REMARK    2  A    between atoms: C_14  and  S_10 
REMARK    3  A    between atoms: C_16  and  C_14 
ROOT
ATOM      1  C   UNL d   1      52.792  33.352  53.854  0.00  0.00     0.155 A 
ATOM      2  C   UNL d   1      53.423  32.844  54.016  0.00  0.00     0.107 A 
ATOM      3  C   UNL d   1      52.767  31.808  53.293  0.00  0.00     0.182 A 
ATOM      4  N   UNL d   1      52.141  32.308  53.131  0.00  0.00    -0.250 N 
ATOM      5  N   UNL d   1      53.410  32.066  53.733  0.00  0.00    -0.220 NA
ATOM      6  C   UNL d   1      52.154  33.087  53.414  0.00  0.00     0.285 A 
ATOM      7  N   UNL d   1      52.954  34.081  54.200  0.00  0.00    -0.239 NA
ATOM      8  C   UNL d   1      53.978  33.253  54.462  0.00  0.00     0.037 A 
ATOM      9  C   UNL d   1      53.688  34.025  54.579  0.00  0.00     0.083 A 
ATOM     10  O   UNL d   1      51.516  33.591  53.247  0.00  0.00    -0.265 OA
ATOM     11  C   UNL d   1      51.496  32.038  52.685  0.00  0.00     0.104 C 
ATOM     12  C   UNL d   1      54.704  33.037  54.779  0.00  0.00     0.003 A 
ATOM     13  C   UNL d   1      54.130  34.573  55.013  0.00  0.00     0.019 A 
ATOM     14  C   UNL d   1      55.145  33.585  55.213  0.00  0.00     0.000 A 
ATOM     15  C   UNL d   1      54.858  34.347  55.328  0.00  0.00     0.002 A 
ENDROOT
BRANCH   3  16
ATOM     16  S   UNL d   1      52.751  31.033  53.009  0.00  0.00    -0.050 SA
BRANCH  16  17
ATOM     17  C   UNL d   1      53.236  30.457  53.346  0.00  0.00     0.032 C 
ATOM     18  C   UNL d   1      54.003  30.351  53.069  0.00  0.00     0.007 C 
BRANCH  17  19
ATOM     19  C   UNL d   1      52.946  29.992  53.960  0.00  0.00     0.007 C 
ATOM     20  C   UNL d   1      53.259  29.237  54.093  0.00  0.00     0.001 C 
ENDBRANCH  17  19
ENDBRANCH  16  17
ENDBRANCH   3  16
TORSDOF 3
ENDMDL
