MODEL 1
REMARK VINA RESULT:      68.1      0.000      0.000
REMARK  7 active torsions:
REMARK  status: ('A' for Active; 'I' for Inactive)
REMARK    1  A    between atoms: C_6  and  C_13 
REMARK       I    between atoms: N_12  and  C_6 
REMARK    2  A    between atoms: O_8  and  C_7 
REMARK    3  A    between atoms: C_13  and  O_8 
REMARK    4  A    between atoms: O_14  and  C_10 
REMARK    5  A    between atoms: C_11  and  C_20 
REMARK    6  A    between atoms: C_15  and  N_12 
REMARK    7  A    between atoms: C_20  and  C_15 
ROOT
ATOM      1  C   UNL d   1      60.480  48.646  51.345  0.00  0.00     0.304 C 
ATOM      2  O   UNL d   1      61.111  49.046  50.989  0.00  0.00    -0.263 OA
ATOM      3  N   UNL d   1      60.431  47.827  51.326  0.00  0.00    -0.205 NA
ENDROOT
BRANCH   1   4
ATOM      4  C   UNL d   1      59.889  49.081  51.726  0.00  0.00     0.185 C 
BRANCH   4   5
ATOM      5  O   UNL d   1      59.454  49.638  51.304  0.00  0.00    -0.298 OA
BRANCH   5   6
ATOM      6  C   UNL d   1      58.639  49.651  51.369  0.00  0.00     0.122 A 
ATOM      7  C   UNL d   1      58.169  49.661  50.691  0.00  0.00     0.117 A 
ATOM      8  O   UNL d   1      58.368  49.660  49.883  0.00  0.00    -0.330 OA
ATOM      9  C   UNL d   1      57.346  49.675  50.757  0.00  0.00     0.022 A 
ATOM     10  C   UNL d   1      57.659  49.673  49.450  0.00  0.00     0.117 A 
ATOM     11  C   UNL d   1      56.925  49.686  49.107  0.00  0.00     0.035 C 
ATOM     12  C   UNL d   1      58.196  49.665  48.829  0.00  0.00     0.035 C 
ATOM     13  C   UNL d   1      57.032  49.682  49.990  0.00  0.00     0.003 A 
ATOM     14  C   UNL d   1      56.995  49.679  51.501  0.00  0.00     0.002 A 
ATOM     15  C   UNL d   1      57.459  49.669  52.168  0.00  0.00     0.002 A 
ATOM     16  C   UNL d   1      58.282  49.656  52.102  0.00  0.00     0.027 A 
ENDBRANCH   5   6
ENDBRANCH   4   5
ENDBRANCH   1   4
BRANCH   3  17
ATOM     17  C   UNL d   1      61.016  47.397  50.949  0.00  0.00     0.102 C 
BRANCH  17  18
ATOM     18  C   UNL d   1      60.821  46.847  50.359  0.00  0.00     0.023 C 
BRANCH  18  19
ATOM     19  C   UNL d   1      61.170  46.106  50.348  0.00  0.00     0.024 A 
ATOM     20  C   UNL d   1      61.820  45.962  49.861  0.00  0.00     0.094 A 
ATOM     21  C   UNL d   1      62.163  45.210  49.859  0.00  0.00     0.024 A 
ATOM     22  C   UNL d   1      61.866  44.606  50.336  0.00  0.00     0.002 A 
ATOM     23  C   UNL d   1      61.222  44.744  50.821  0.00  0.00     0.000 A 
ATOM     24  C   UNL d   1      60.869  45.486  50.834  0.00  0.00     0.002 A 
BRANCH  20  25
ATOM     25  O   UNL d   1      62.115  46.556  49.390  0.00  0.00    -0.328 OA
ATOM     26  C   UNL d   1      62.771  46.415  48.923  0.00  0.00     0.181 C 
ENDBRANCH  20  25
ENDBRANCH  18  19
ENDBRANCH  17  18
ENDBRANCH   3  17
TORSDOF 7
ENDMDL
