MODEL 1
REMARK VINA RESULT:      -1.9      0.000      0.000
REMARK  4 active torsions:
REMARK  status: ('A' for Active; 'I' for Inactive)
REMARK    1  A    between atoms: N_2  and  S_1 
REMARK    2  A    between atoms: C_4  and  S_1 
REMARK    3  A    between atoms: C_15  and  C_3 
REMARK    4  A    between atoms: O_16  and  C_12 
ROOT
ATOM      1  S   UNL d   1      30.675  16.593 -24.343  0.00  0.00     0.273 S 
ATOM      2  O   UNL d   1      30.419  16.151 -24.991  0.00  0.00    -0.200 OA
ATOM      3  O   UNL d   1      30.931  17.035 -23.695  0.00  0.00    -0.200 OA
ENDROOT
BRANCH   1   4
ATOM      4  N   UNL d   1      31.458  16.518 -24.602  0.00  0.00    -0.213 N 
ATOM      5  C   UNL d   1      31.951  17.139 -24.835  0.00  0.00     0.157 A 
ATOM      6  N   UNL d   1      32.682  16.812 -25.049  0.00  0.00    -0.226 NA
ATOM      7  C   UNL d   1      32.637  15.994 -24.948  0.00  0.00     0.101 A 
ATOM      8  C   UNL d   1      31.878  15.811 -24.671  0.00  0.00     0.112 A 
ATOM      9  C   UNL d   1      33.241  15.453 -25.097  0.00  0.00     0.022 C 
BRANCH   5  10
ATOM     10  C   UNL d   1      31.752  17.934 -24.850  0.00  0.00     0.038 C 
ATOM     11  C   UNL d   1      32.344  18.502 -24.916  0.00  0.00     0.003 C 
ENDBRANCH   5  10
ENDBRANCH   1   4
BRANCH   1  12
ATOM     12  C   UNL d   1      29.895  16.667 -24.085  0.00  0.00     0.106 A 
ATOM     13  C   UNL d   1      29.422  17.282 -24.370  0.00  0.00     0.037 A 
ATOM     14  C   UNL d   1      28.643  17.356 -24.113  0.00  0.00     0.095 A 
ATOM     15  C   UNL d   1      28.334  16.816 -23.570  0.00  0.00     0.022 A 
ATOM     16  C   UNL d   1      28.807  16.203 -23.285  0.00  0.00     0.003 A 
ATOM     17  C   UNL d   1      27.554  16.891 -23.312  0.00  0.00     0.002 C 
ATOM     18  C   UNL d   1      29.586  16.128 -23.542  0.00  0.00     0.012 A 
ATOM     19  C   UNL d   1      30.057  15.522 -23.263  0.00  0.00     0.001 C 
BRANCH  14  20
ATOM     20  O   UNL d   1      28.170  17.973 -24.400  0.00  0.00    -0.328 OA
ATOM     21  C   UNL d   1      28.441  18.443 -25.022  0.00  0.00     0.181 C 
ENDBRANCH  14  20
ENDBRANCH   1  12
TORSDOF 4
ENDMDL
MODEL 2
REMARK VINA RESULT:      -1.8      0.868      1.937
REMARK  4 active torsions:
REMARK  status: ('A' for Active; 'I' for Inactive)
REMARK    1  A    between atoms: N_2  and  S_1 
REMARK    2  A    between atoms: C_4  and  S_1 
REMARK    3  A    between atoms: C_15  and  C_3 
REMARK    4  A    between atoms: O_16  and  C_12 
ROOT
ATOM      1  S   UNL d   1      30.851  17.037 -24.360  0.00  0.00     0.273 S 
ATOM      2  O   UNL d   1      30.885  16.411 -24.897  0.00  0.00    -0.200 OA
ATOM      3  O   UNL d   1      30.816  17.663 -23.824  0.00  0.00    -0.200 OA
ENDROOT
BRANCH   1   4
ATOM      4  N   UNL d   1      31.636  17.231 -24.536  0.00  0.00    -0.213 N 
ATOM      5  C   UNL d   1      32.276  16.709 -24.527  0.00  0.00     0.157 A 
ATOM      6  N   UNL d   1      32.954  17.138 -24.737  0.00  0.00    -0.226 NA
ATOM      7  C   UNL d   1      32.730  17.920 -24.874  0.00  0.00     0.101 A 
ATOM      8  C   UNL d   1      31.913  17.979 -24.750  0.00  0.00     0.112 A 
ATOM      9  C   UNL d   1      33.230  18.537 -25.097  0.00  0.00     0.022 C 
BRANCH   5  10
ATOM     10  C   UNL d   1      32.246  15.911 -24.343  0.00  0.00     0.038 C 
ATOM     11  C   UNL d   1      32.920  15.529 -24.066  0.00  0.00     0.003 C 
ENDBRANCH   5  10
ENDBRANCH   1   4
BRANCH   1  12
ATOM     12  C   UNL d   1      30.068  16.844 -24.185  0.00  0.00     0.106 A 
ATOM     13  C   UNL d   1      29.902  16.246 -23.640  0.00  0.00     0.037 A 
ATOM     14  C   UNL d   1      29.120  16.053 -23.465  0.00  0.00     0.095 A 
ATOM     15  C   UNL d   1      28.503  16.457 -23.835  0.00  0.00     0.022 A 
ATOM     16  C   UNL d   1      28.669  17.054 -24.380  0.00  0.00     0.003 A 
ATOM     17  C   UNL d   1      27.720  16.264 -23.660  0.00  0.00     0.002 C 
ATOM     18  C   UNL d   1      29.451  17.247 -24.555  0.00  0.00     0.012 A 
ATOM     19  C   UNL d   1      29.620  17.837 -25.094  0.00  0.00     0.001 C 
BRANCH  14  20
ATOM     20  O   UNL d   1      28.956  15.453 -22.918  0.00  0.00    -0.328 OA
ATOM     21  C   UNL d   1      29.023  15.604 -22.109  0.00  0.00     0.181 C 
ENDBRANCH  14  20
ENDBRANCH   1  12
TORSDOF 4
ENDMDL
MODEL 3
REMARK VINA RESULT:      -1.6      1.448      3.764
REMARK  4 active torsions:
REMARK  status: ('A' for Active; 'I' for Inactive)
REMARK    1  A    between atoms: N_2  and  S_1 
REMARK    2  A    between atoms: C_4  and  S_1 
REMARK    3  A    between atoms: C_15  and  C_3 
REMARK    4  A    between atoms: O_16  and  C_12 
ROOT
ATOM      1  S   UNL d   1      29.990  16.531 -24.148  0.00  0.00     0.273 S 
ATOM      2  O   UNL d   1      30.113  15.969 -24.738  0.00  0.00    -0.200 OA
ATOM      3  O   UNL d   1      29.866  17.094 -23.557  0.00  0.00    -0.200 OA
ENDROOT
BRANCH   1   4
ATOM      4  N   UNL d   1      29.283  16.155 -23.937  0.00  0.00    -0.213 N 
ATOM      5  C   UNL d   1      29.122  15.803 -23.207  0.00  0.00     0.157 A 
ATOM      6  N   UNL d   1      28.353  15.496 -23.240  0.00  0.00    -0.226 NA
ATOM      7  C   UNL d   1      28.043  15.660 -23.987  0.00  0.00     0.101 A 
ATOM      8  C   UNL d   1      28.619  16.068 -24.420  0.00  0.00     0.112 A 
ATOM      9  C   UNL d   1      27.292  15.453 -24.257  0.00  0.00     0.022 C 
BRANCH   5  10
ATOM     10  C   UNL d   1      29.633  15.765 -22.567  0.00  0.00     0.038 C 
ATOM     11  C   UNL d   1      29.369  15.453 -21.852  0.00  0.00     0.003 C 
ENDBRANCH   5  10
ENDBRANCH   1   4
BRANCH   1  12
ATOM     12  C   UNL d   1      30.694  16.906 -24.358  0.00  0.00     0.106 A 
ATOM     13  C   UNL d   1      31.417  16.605 -24.095  0.00  0.00     0.037 A 
ATOM     14  C   UNL d   1      32.120  16.979 -24.305  0.00  0.00     0.095 A 
ATOM     15  C   UNL d   1      32.103  17.656 -24.778  0.00  0.00     0.022 A 
ATOM     16  C   UNL d   1      31.381  17.956 -25.040  0.00  0.00     0.003 A 
ATOM     17  C   UNL d   1      32.807  18.031 -24.988  0.00  0.00     0.002 C 
ATOM     18  C   UNL d   1      30.677  17.582 -24.830  0.00  0.00     0.012 A 
ATOM     19  C   UNL d   1      29.960  17.876 -25.088  0.00  0.00     0.001 C 
BRANCH  14  20
ATOM     20  O   UNL d   1      32.845  16.676 -24.040  0.00  0.00    -0.328 OA
ATOM     21  C   UNL d   1      33.013  16.659 -23.232  0.00  0.00     0.181 C 
ENDBRANCH  14  20
ENDBRANCH   1  12
TORSDOF 4
ENDMDL
MODEL 4
REMARK VINA RESULT:      -0.8      2.245      4.026
REMARK  4 active torsions:
REMARK  status: ('A' for Active; 'I' for Inactive)
REMARK    1  A    between atoms: N_2  and  S_1 
REMARK    2  A    between atoms: C_4  and  S_1 
REMARK    3  A    between atoms: C_15  and  C_3 
REMARK    4  A    between atoms: O_16  and  C_12 
ROOT
ATOM      1  S   UNL d   1      32.762  18.191 -23.767  0.00  0.00     0.273 S 
ATOM      2  O   UNL d   1      32.397  18.478 -24.448  0.00  0.00    -0.200 OA
ATOM      3  O   UNL d   1      33.127  17.905 -23.085  0.00  0.00    -0.200 OA
ENDROOT
BRANCH   1   4
ATOM      4  N   UNL d   1      32.642  17.415 -24.029  0.00  0.00    -0.213 N 
ATOM      5  C   UNL d   1      31.918  17.018 -24.048  0.00  0.00     0.157 A 
ATOM      6  N   UNL d   1      32.056  16.258 -24.349  0.00  0.00    -0.226 NA
ATOM      7  C   UNL d   1      32.861  16.189 -24.513  0.00  0.00     0.101 A 
ATOM      8  C   UNL d   1      33.226  16.906 -24.315  0.00  0.00     0.112 A 
ATOM      9  C   UNL d   1      33.240  15.524 -24.820  0.00  0.00     0.022 C 
BRANCH   5  10
ATOM     10  C   UNL d   1      31.194  17.322 -23.812  0.00  0.00     0.038 C 
ATOM     11  C   UNL d   1      30.498  16.990 -24.099  0.00  0.00     0.003 C 
ENDBRANCH   5  10
ENDBRANCH   1   4
BRANCH   1  12
ATOM     12  C   UNL d   1      32.881  18.965 -23.506  0.00  0.00     0.106 A 
ATOM     13  C   UNL d   1      32.768  19.154 -22.710  0.00  0.00     0.037 A 
ATOM     14  C   UNL d   1      32.887  19.927 -22.449  0.00  0.00     0.095 A 
ATOM     15  C   UNL d   1      33.120  20.512 -22.983  0.00  0.00     0.022 A 
ATOM     16  C   UNL d   1      33.234  20.322 -23.778  0.00  0.00     0.003 A 
ATOM     17  C   UNL d   1      33.240  21.285 -22.722  0.00  0.00     0.002 C 
ATOM     18  C   UNL d   1      33.114  19.549 -24.039  0.00  0.00     0.012 A 
ATOM     19  C   UNL d   1      33.226  19.357 -24.825  0.00  0.00     0.001 C 
BRANCH  14  20
ATOM     20  O   UNL d   1      32.772  20.115 -21.650  0.00  0.00    -0.328 OA
ATOM     21  C   UNL d   1      32.172  20.638 -21.433  0.00  0.00     0.181 C 
ENDBRANCH  14  20
ENDBRANCH   1  12
TORSDOF 4
ENDMDL
MODEL 5
REMARK VINA RESULT:      -0.7      5.391      6.709
REMARK  4 active torsions:
REMARK  status: ('A' for Active; 'I' for Inactive)
REMARK    1  A    between atoms: N_2  and  S_1 
REMARK    2  A    between atoms: C_4  and  S_1 
REMARK    3  A    between atoms: C_15  and  C_3 
REMARK    4  A    between atoms: O_16  and  C_12 
ROOT
ATOM      1  S   UNL d   1      32.740  21.586 -21.083  0.00  0.00     0.273 S 
ATOM      2  O   UNL d   1      33.241  22.062 -21.535  0.00  0.00    -0.200 OA
ATOM      3  O   UNL d   1      32.240  21.111 -20.632  0.00  0.00    -0.200 OA
ENDROOT
BRANCH   1   4
ATOM      4  N   UNL d   1      32.615  22.215 -20.560  0.00  0.00    -0.213 N 
ATOM      5  C   UNL d   1      32.134  22.872 -20.700  0.00  0.00     0.157 A 
ATOM      6  N   UNL d   1      32.172  23.359 -20.030  0.00  0.00    -0.226 NA
ATOM      7  C   UNL d   1      32.675  23.003 -19.482  0.00  0.00     0.101 A 
ATOM      8  C   UNL d   1      32.951  22.293 -19.809  0.00  0.00     0.112 A 
ATOM      9  C   UNL d   1      32.871  23.299 -18.738  0.00  0.00     0.022 C 
BRANCH   5  10
ATOM     10  C   UNL d   1      31.697  23.014 -21.378  0.00  0.00     0.038 C 
ATOM     11  C   UNL d   1      31.242  23.698 -21.436  0.00  0.00     0.003 C 
ENDBRANCH   5  10
ENDBRANCH   1   4
BRANCH   1  12
ATOM     12  C   UNL d   1      32.865  20.959 -21.605  0.00  0.00     0.106 A 
ATOM     13  C   UNL d   1      32.928  21.103 -22.416  0.00  0.00     0.037 A 
ATOM     14  C   UNL d   1      33.052  20.477 -22.937  0.00  0.00     0.095 A 
ATOM     15  C   UNL d   1      33.114  19.706 -22.648  0.00  0.00     0.022 A 
ATOM     16  C   UNL d   1      33.051  19.563 -21.838  0.00  0.00     0.003 A 
ATOM     17  C   UNL d   1      33.238  19.079 -23.170  0.00  0.00     0.002 C 
ATOM     18  C   UNL d   1      32.926  20.189 -21.317  0.00  0.00     0.012 A 
ATOM     19  C   UNL d   1      32.863  20.052 -20.514  0.00  0.00     0.001 C 
BRANCH  14  20
ATOM     20  O   UNL d   1      33.115  20.623 -23.750  0.00  0.00    -0.328 OA
ATOM     21  C   UNL d   1      33.214  21.395 -24.023  0.00  0.00     0.181 C 
ENDBRANCH  14  20
ENDBRANCH   1  12
TORSDOF 4
ENDMDL
MODEL 6
REMARK VINA RESULT:       0.8      4.229      5.469
REMARK  4 active torsions:
REMARK  status: ('A' for Active; 'I' for Inactive)
REMARK    1  A    between atoms: N_2  and  S_1 
REMARK    2  A    between atoms: C_4  and  S_1 
REMARK    3  A    between atoms: C_15  and  C_3 
REMARK    4  A    between atoms: O_16  and  C_12 
ROOT
ATOM      1  S   UNL d   1      32.890  20.398 -22.416  0.00  0.00     0.273 S 
ATOM      2  O   UNL d   1      32.542  20.795 -23.050  0.00  0.00    -0.200 OA
ATOM      3  O   UNL d   1      33.239  20.001 -21.783  0.00  0.00    -0.200 OA
ENDROOT
BRANCH   1   4
ATOM      4  N   UNL d   1      32.913  19.702 -22.864  0.00  0.00    -0.213 N 
ATOM      5  C   UNL d   1      33.067  19.654 -23.675  0.00  0.00     0.157 A 
ATOM      6  N   UNL d   1      33.034  18.854 -23.890  0.00  0.00    -0.226 NA
ATOM      7  C   UNL d   1      32.860  18.414 -23.214  0.00  0.00     0.101 A 
ATOM      8  C   UNL d   1      32.785  18.938 -22.577  0.00  0.00     0.112 A 
ATOM      9  C   UNL d   1      32.776  17.594 -23.177  0.00  0.00     0.022 C 
BRANCH   5  10
ATOM     10  C   UNL d   1      33.224  20.285 -24.174  0.00  0.00     0.038 C 
ATOM     11  C   UNL d   1      33.241  20.167 -24.989  0.00  0.00     0.003 C 
ENDBRANCH   5  10
ENDBRANCH   1   4
BRANCH   1  12
ATOM     12  C   UNL d   1      32.868  21.091 -21.969  0.00  0.00     0.106 A 
ATOM     13  C   UNL d   1      32.935  21.825 -22.342  0.00  0.00     0.037 A 
ATOM     14  C   UNL d   1      32.913  22.517 -21.896  0.00  0.00     0.095 A 
ATOM     15  C   UNL d   1      32.824  22.478 -21.076  0.00  0.00     0.022 A 
ATOM     16  C   UNL d   1      32.756  21.745 -20.704  0.00  0.00     0.003 A 
ATOM     17  C   UNL d   1      32.801  23.171 -20.629  0.00  0.00     0.002 C 
ATOM     18  C   UNL d   1      32.779  21.052 -21.150  0.00  0.00     0.012 A 
ATOM     19  C   UNL d   1      32.713  20.324 -20.786  0.00  0.00     0.001 C 
BRANCH  14  20
ATOM     20  O   UNL d   1      32.981  23.253 -22.272  0.00  0.00    -0.328 OA
ATOM     21  C   UNL d   1      32.397  23.500 -22.800  0.00  0.00     0.181 C 
ENDBRANCH  14  20
ENDBRANCH   1  12
TORSDOF 4
ENDMDL
