MODEL 1
REMARK VINA RESULT:      -7.2      0.000      0.000
REMARK  8 active torsions:
REMARK  status: ('A' for Active; 'I' for Inactive)
REMARK       I    between atoms: C_2  and  N_1 
REMARK    1  A    between atoms: C_3  and  N_1 
REMARK    2  A    between atoms: C_4  and  C_2 
REMARK    3  A    between atoms: N_12  and  C_3 
REMARK    4  A    between atoms: O_19  and  C_5 
REMARK    5  A    between atoms: O_20  and  C_6 
REMARK    6  A    between atoms: O_21  and  C_7 
REMARK    7  A    between atoms: C_10  and  C_18 
REMARK    8  A    between atoms: C_18  and  N_12 
ROOT
ATOM      1  C   UNL d   1      52.023  33.811  52.985  0.00  0.00     0.062 A 
ATOM      2  C   UNL d   1      53.309  33.196  53.833  0.00  0.00     0.138 A 
ATOM      3  C   UNL d   1      52.873  32.703  53.324  0.00  0.00     0.118 A 
ATOM      4  C   UNL d   1      53.087  33.990  53.905  0.00  0.00     0.118 A 
ATOM      5  C   UNL d   1      52.453  34.294  53.487  0.00  0.00     0.031 A 
ATOM      6  C   UNL d   1      52.228  33.016  52.900  0.00  0.00     0.031 A 
ENDROOT
BRANCH   1   7
ATOM      7  C   UNL d   1      51.373  34.128  52.560  0.00  0.00     0.281 C 
ATOM      8  N   UNL d   1      50.625  34.154  52.923  0.00  0.00    -0.179 NA
ATOM      9  O   UNL d   1      51.465  34.408  51.800  0.00  0.00    -0.265 OA
BRANCH   8  10
ATOM     10  C   UNL d   1      49.982  34.468  52.501  0.00  0.00     0.224 C 
ATOM     11  S   UNL d   1      49.759  34.231  51.743  0.00  0.00    -0.037 SA
BRANCH  10  12
ATOM     12  N   UNL d   1      49.561  35.048  52.885  0.00  0.00    -0.214 NA
BRANCH  12  13
ATOM     13  C   UNL d   1      48.796  35.232  52.642  0.00  0.00     0.126 C 
BRANCH  13  14
ATOM     14  C   UNL d   1      48.350  35.794  53.040  0.00  0.00     0.119 A 
ATOM     15  O   UNL d   1      48.547  36.203  53.751  0.00  0.00    -0.304 OA
ATOM     16  C   UNL d   1      47.924  36.709  53.930  0.00  0.00     0.123 A 
ATOM     17  C   UNL d   1      47.350  36.632  53.358  0.00  0.00     0.029 A 
ATOM     18  C   UNL d   1      47.608  36.060  52.796  0.00  0.00     0.028 A 
ENDBRANCH  13  14
ENDBRANCH  12  13
ENDBRANCH  10  12
ENDBRANCH   8  10
ENDBRANCH   1   7
BRANCH   4  19
ATOM     19  O   UNL d   1      53.530  34.482  54.420  0.00  0.00    -0.326 OA
ATOM     20  C   UNL d   1      53.175  35.186  54.712  0.00  0.00     0.181 C 
ENDBRANCH   4  19
BRANCH   3  21
ATOM     21  O   UNL d   1      53.086  31.891  53.240  0.00  0.00    -0.326 OA
ATOM     22  C   UNL d   1      52.561  31.344  52.935  0.00  0.00     0.181 C 
ENDBRANCH   3  21
BRANCH   2  23
ATOM     23  O   UNL d   1      53.961  32.893  54.265  0.00  0.00    -0.324 OA
ATOM     24  C   UNL d   1      54.730  32.912  53.954  0.00  0.00     0.182 C 
ENDBRANCH   2  23
TORSDOF 8
ENDMDL
MODEL 2
REMARK VINA RESULT:      -6.3      2.562      5.317
REMARK  8 active torsions:
REMARK  status: ('A' for Active; 'I' for Inactive)
REMARK       I    between atoms: C_2  and  N_1 
REMARK    1  A    between atoms: C_3  and  N_1 
REMARK    2  A    between atoms: C_4  and  C_2 
REMARK    3  A    between atoms: N_12  and  C_3 
REMARK    4  A    between atoms: O_19  and  C_5 
REMARK    5  A    between atoms: O_20  and  C_6 
REMARK    6  A    between atoms: O_21  and  C_7 
REMARK    7  A    between atoms: C_10  and  C_18 
REMARK    8  A    between atoms: C_18  and  N_12 
ROOT
ATOM      1  C   UNL d   1      53.313  33.173  53.707  0.00  0.00     0.062 A 
ATOM      2  C   UNL d   1      53.180  34.633  54.482  0.00  0.00     0.138 A 
ATOM      3  C   UNL d   1      53.808  34.119  54.668  0.00  0.00     0.118 A 
ATOM      4  C   UNL d   1      52.631  34.400  53.908  0.00  0.00     0.118 A 
ATOM      5  C   UNL d   1      52.696  33.680  53.525  0.00  0.00     0.031 A 
ATOM      6  C   UNL d   1      53.871  33.388  54.276  0.00  0.00     0.031 A 
ENDROOT
BRANCH   1   7
ATOM      7  C   UNL d   1      53.375  32.436  53.311  0.00  0.00     0.281 C 
ATOM      8  N   UNL d   1      53.001  31.768  53.638  0.00  0.00    -0.179 NA
ATOM      9  O   UNL d   1      53.793  32.365  52.615  0.00  0.00    -0.265 OA
BRANCH   8  10
ATOM     10  C   UNL d   1      53.062  31.039  53.246  0.00  0.00     0.224 C 
ATOM     11  S   UNL d   1      52.805  30.898  52.475  0.00  0.00    -0.037 SA
BRANCH  10  12
ATOM     12  N   UNL d   1      53.404  30.438  53.675  0.00  0.00    -0.214 NA
BRANCH  12  13
ATOM     13  C   UNL d   1      53.017  29.714  53.751  0.00  0.00     0.126 C 
BRANCH  13  14
ATOM     14  C   UNL d   1      53.202  29.200  54.364  0.00  0.00     0.119 A 
ATOM     15  O   UNL d   1      52.917  29.218  55.158  0.00  0.00    -0.304 OA
ATOM     16  C   UNL d   1      53.261  28.589  55.561  0.00  0.00     0.123 A 
ATOM     17  C   UNL d   1      53.746  28.183  55.050  0.00  0.00     0.029 A 
ATOM     18  C   UNL d   1      53.715  28.559  54.297  0.00  0.00     0.028 A 
ENDBRANCH  13  14
ENDBRANCH  12  13
ENDBRANCH  10  12
ENDBRANCH   8  10
ENDBRANCH   1   7
BRANCH   4  19
ATOM     19  O   UNL d   1      52.000  34.921  53.725  0.00  0.00    -0.326 OA
ATOM     20  C   UNL d   1      51.353  34.631  53.274  0.00  0.00     0.181 C 
ENDBRANCH   4  19
BRANCH   3  21
ATOM     21  O   UNL d   1      54.376  34.343  55.250  0.00  0.00    -0.326 OA
ATOM     22  C   UNL d   1      54.959  33.824  55.495  0.00  0.00     0.181 C 
ENDBRANCH   3  21
BRANCH   2  23
ATOM     23  O   UNL d   1      53.106  35.373  54.869  0.00  0.00    -0.324 OA
ATOM     24  C   UNL d   1      53.421  36.066  54.538  0.00  0.00     0.182 C 
ENDBRANCH   2  23
TORSDOF 8
ENDMDL
MODEL 3
REMARK VINA RESULT:      -4.9      1.643      2.231
REMARK  8 active torsions:
REMARK  status: ('A' for Active; 'I' for Inactive)
REMARK       I    between atoms: C_2  and  N_1 
REMARK    1  A    between atoms: C_3  and  N_1 
REMARK    2  A    between atoms: C_4  and  C_2 
REMARK    3  A    between atoms: N_12  and  C_3 
REMARK    4  A    between atoms: O_19  and  C_5 
REMARK    5  A    between atoms: O_20  and  C_6 
REMARK    6  A    between atoms: O_21  and  C_7 
REMARK    7  A    between atoms: C_10  and  C_18 
REMARK    8  A    between atoms: C_18  and  N_12 
ROOT
ATOM      1  C   UNL d   1      52.806  32.547  53.302  0.00  0.00     0.062 A 
ATOM      2  C   UNL d   1      53.402  31.132  53.932  0.00  0.00     0.138 A 
ATOM      3  C   UNL d   1      52.957  31.119  53.228  0.00  0.00     0.118 A 
ATOM      4  C   UNL d   1      53.538  31.859  54.304  0.00  0.00     0.118 A 
ATOM      5  C   UNL d   1      53.244  32.557  53.994  0.00  0.00     0.031 A 
ATOM      6  C   UNL d   1      52.660  31.832  52.916  0.00  0.00     0.031 A 
ENDROOT
BRANCH   1   7
ATOM      7  C   UNL d   1      52.507  33.265  52.989  0.00  0.00     0.281 C 
ATOM      8  N   UNL d   1      51.709  33.463  53.120  0.00  0.00    -0.179 NA
ATOM      9  O   UNL d   1      52.984  33.769  52.561  0.00  0.00    -0.265 OA
BRANCH   8  10
ATOM     10  C   UNL d   1      51.414  34.175  52.809  0.00  0.00     0.224 C 
ATOM     11  S   UNL d   1      51.732  34.920  52.963  0.00  0.00    -0.037 SA
BRANCH  10  12
ATOM     12  N   UNL d   1      50.766  34.102  52.323  0.00  0.00    -0.214 NA
BRANCH  12  13
ATOM     13  C   UNL d   1      50.078  34.525  52.487  0.00  0.00     0.126 C 
BRANCH  13  14
ATOM     14  C   UNL d   1      49.481  34.591  51.928  0.00  0.00     0.119 A 
ATOM     15  O   UNL d   1      49.490  34.331  51.126  0.00  0.00    -0.304 OA
ATOM     16  C   UNL d   1      48.763  34.521  50.792  0.00  0.00     0.123 A 
ATOM     17  C   UNL d   1      48.304  34.889  51.354  0.00  0.00     0.029 A 
ATOM     18  C   UNL d   1      48.745  34.937  52.070  0.00  0.00     0.028 A 
ENDBRANCH  13  14
ENDBRANCH  12  13
ENDBRANCH  10  12
ENDBRANCH   8  10
ENDBRANCH   1   7
BRANCH   4  19
ATOM     19  O   UNL d   1      53.987  31.867  55.012  0.00  0.00    -0.326 OA
ATOM     20  C   UNL d   1      54.228  32.606  55.330  0.00  0.00     0.181 C 
ENDBRANCH   4  19
BRANCH   3  21
ATOM     21  O   UNL d   1      52.810  30.387  52.838  0.00  0.00    -0.326 OA
ATOM     22  C   UNL d   1      52.981  30.288  52.044  0.00  0.00     0.181 C 
ENDBRANCH   3  21
BRANCH   2  23
ATOM     23  O   UNL d   1      53.708  30.422  54.257  0.00  0.00    -0.324 OA
ATOM     24  C   UNL d   1      53.216  29.885  54.655  0.00  0.00     0.182 C 
ENDBRANCH   2  23
TORSDOF 8
ENDMDL
MODEL 4
REMARK VINA RESULT:      -4.8     10.397     11.574
REMARK  8 active torsions:
REMARK  status: ('A' for Active; 'I' for Inactive)
REMARK       I    between atoms: C_2  and  N_1 
REMARK    1  A    between atoms: C_3  and  N_1 
REMARK    2  A    between atoms: C_4  and  C_2 
REMARK    3  A    between atoms: N_12  and  C_3 
REMARK    4  A    between atoms: O_19  and  C_5 
REMARK    5  A    between atoms: O_20  and  C_6 
REMARK    6  A    between atoms: O_21  and  C_7 
REMARK    7  A    between atoms: C_10  and  C_18 
REMARK    8  A    between atoms: C_18  and  N_12 
ROOT
ATOM      1  C   UNL d   1      45.053  27.761  57.439  0.00  0.00     0.062 A 
ATOM      2  C   UNL d   1      44.818  29.261  58.106  0.00  0.00     0.138 A 
ATOM      3  C   UNL d   1      44.842  28.587  58.595  0.00  0.00     0.118 A 
ATOM      4  C   UNL d   1      44.913  29.164  57.290  0.00  0.00     0.118 A 
ATOM      5  C   UNL d   1      45.029  28.425  56.959  0.00  0.00     0.031 A 
ATOM      6  C   UNL d   1      44.960  27.837  58.255  0.00  0.00     0.031 A 
ENDROOT
BRANCH   1   7
ATOM      7  C   UNL d   1      45.173  27.005  57.095  0.00  0.00     0.281 C 
ATOM      8  N   UNL d   1      44.553  26.450  57.112  0.00  0.00    -0.179 NA
ATOM      9  O   UNL d   1      45.883  26.809  56.746  0.00  0.00    -0.265 OA
BRANCH   8  10
ATOM     10  C   UNL d   1      44.672  25.702  56.771  0.00  0.00     0.224 C 
ATOM     11  S   UNL d   1      44.690  25.554  55.959  0.00  0.00    -0.037 SA
BRANCH  10  12
ATOM     12  N   UNL d   1      44.775  25.091  57.297  0.00  0.00    -0.214 NA
BRANCH  12  13
ATOM     13  C   UNL d   1      44.474  24.343  57.124  0.00  0.00     0.126 C 
BRANCH  13  14
ATOM     14  C   UNL d   1      44.560  23.721  57.653  0.00  0.00     0.119 A 
ATOM     15  O   UNL d   1      44.893  23.743  58.428  0.00  0.00    -0.304 OA
ATOM     16  C   UNL d   1      44.855  22.982  58.738  0.00  0.00     0.123 A 
ATOM     17  C   UNL d   1      44.512  22.491  58.187  0.00  0.00     0.029 A 
ATOM     18  C   UNL d   1      44.324  22.945  57.504  0.00  0.00     0.028 A 
ENDBRANCH  13  14
ENDBRANCH  12  13
ENDBRANCH  10  12
ENDBRANCH   8  10
ENDBRANCH   1   7
BRANCH   4  19
ATOM     19  O   UNL d   1      44.888  29.846  56.802  0.00  0.00    -0.326 OA
ATOM     20  C   UNL d   1      44.621  29.767  56.009  0.00  0.00     0.181 C 
ENDBRANCH   4  19
BRANCH   3  21
ATOM     21  O   UNL d   1      44.746  28.670  59.428  0.00  0.00    -0.326 OA
ATOM     22  C   UNL d   1      44.530  28.033  59.895  0.00  0.00     0.181 C 
ENDBRANCH   3  21
BRANCH   2  23
ATOM     23  O   UNL d   1      44.699  30.023  58.436  0.00  0.00    -0.324 OA
ATOM     24  C   UNL d   1      45.335  30.471  58.724  0.00  0.00     0.182 C 
ENDBRANCH   2  23
TORSDOF 8
ENDMDL
MODEL 5
REMARK VINA RESULT:      -4.7      1.896      6.189
REMARK  8 active torsions:
REMARK  status: ('A' for Active; 'I' for Inactive)
REMARK       I    between atoms: C_2  and  N_1 
REMARK    1  A    between atoms: C_3  and  N_1 
REMARK    2  A    between atoms: C_4  and  C_2 
REMARK    3  A    between atoms: N_12  and  C_3 
REMARK    4  A    between atoms: O_19  and  C_5 
REMARK    5  A    between atoms: O_20  and  C_6 
REMARK    6  A    between atoms: O_21  and  C_7 
REMARK    7  A    between atoms: C_10  and  C_18 
REMARK    8  A    between atoms: C_18  and  N_12 
ROOT
ATOM      1  C   UNL d   1      46.999  35.871  52.476  0.00  0.00     0.062 A 
ATOM      2  C   UNL d   1      45.666  36.175  53.416  0.00  0.00     0.138 A 
ATOM      3  C   UNL d   1      46.430  36.256  53.738  0.00  0.00     0.118 A 
ATOM      4  C   UNL d   1      45.591  35.943  52.625  0.00  0.00     0.118 A 
ATOM      5  C   UNL d   1      46.247  35.792  52.160  0.00  0.00     0.031 A 
ATOM      6  C   UNL d   1      47.095  36.102  53.262  0.00  0.00     0.031 A 
ENDROOT
BRANCH   1   7
ATOM      7  C   UNL d   1      47.669  35.716  51.995  0.00  0.00     0.281 C 
ATOM      8  N   UNL d   1      48.076  34.997  52.088  0.00  0.00    -0.179 NA
ATOM      9  O   UNL d   1      47.924  36.258  51.441  0.00  0.00    -0.265 OA
BRANCH   8  10
ATOM     10  C   UNL d   1      48.739  34.844  51.612  0.00  0.00     0.224 C 
ATOM     11  S   UNL d   1      48.711  34.707  50.799  0.00  0.00    -0.037 SA
BRANCH  10  12
ATOM     12  N   UNL d   1      49.454  34.834  52.000  0.00  0.00    -0.214 NA
BRANCH  12  13
ATOM     13  C   UNL d   1      49.911  34.148  52.005  0.00  0.00     0.126 C 
BRANCH  13  14
ATOM     14  C   UNL d   1      50.610  34.110  52.434  0.00  0.00     0.119 A 
ATOM     15  O   UNL d   1      51.328  34.528  52.291  0.00  0.00    -0.304 OA
ATOM     16  C   UNL d   1      51.868  34.304  52.870  0.00  0.00     0.123 A 
ATOM     17  C   UNL d   1      51.513  33.764  53.365  0.00  0.00     0.029 A 
ATOM     18  C   UNL d   1      50.724  33.636  53.099  0.00  0.00     0.028 A 
ENDBRANCH  13  14
ENDBRANCH  12  13
ENDBRANCH  10  12
ENDBRANCH   8  10
ENDBRANCH   1   7
BRANCH   4  19
ATOM     19  O   UNL d   1      44.819  35.863  52.306  0.00  0.00    -0.326 OA
ATOM     20  C   UNL d   1      44.700  36.029  51.491  0.00  0.00     0.181 C 
ENDBRANCH   4  19
BRANCH   3  21
ATOM     21  O   UNL d   1      46.524  36.491  54.542  0.00  0.00    -0.326 OA
ATOM     22  C   UNL d   1      47.255  36.708  54.838  0.00  0.00     0.181 C 
ENDBRANCH   3  21
BRANCH   2  23
ATOM     23  O   UNL d   1      44.987  36.326  53.884  0.00  0.00    -0.324 OA
ATOM     24  C   UNL d   1      44.641  35.730  54.346  0.00  0.00     0.182 C 
ENDBRANCH   2  23
TORSDOF 8
ENDMDL
MODEL 6
REMARK VINA RESULT:      -4.7      1.511      5.433
REMARK  8 active torsions:
REMARK  status: ('A' for Active; 'I' for Inactive)
REMARK       I    between atoms: C_2  and  N_1 
REMARK    1  A    between atoms: C_3  and  N_1 
REMARK    2  A    between atoms: C_4  and  C_2 
REMARK    3  A    between atoms: N_12  and  C_3 
REMARK    4  A    between atoms: O_19  and  C_5 
REMARK    5  A    between atoms: O_20  and  C_6 
REMARK    6  A    between atoms: O_21  and  C_7 
REMARK    7  A    between atoms: C_10  and  C_18 
REMARK    8  A    between atoms: C_18  and  N_12 
ROOT
ATOM      1  C   UNL d   1      49.733  34.955  52.842  0.00  0.00     0.062 A 
ATOM      2  C   UNL d   1      48.197  35.359  52.361  0.00  0.00     0.138 A 
ATOM      3  C   UNL d   1      48.470  35.584  53.115  0.00  0.00     0.118 A 
ATOM      4  C   UNL d   1      48.706  34.934  51.865  0.00  0.00     0.118 A 
ATOM      5  C   UNL d   1      49.463  34.734  52.101  0.00  0.00     0.031 A 
ATOM      6  C   UNL d   1      49.241  35.379  53.352  0.00  0.00     0.031 A 
ENDROOT
BRANCH   1   7
ATOM      7  C   UNL d   1      50.510  34.748  53.080  0.00  0.00     0.281 C 
ATOM      8  N   UNL d   1      50.823  34.013  52.846  0.00  0.00    -0.179 NA
ATOM      9  O   UNL d   1      50.961  35.254  53.533  0.00  0.00    -0.265 OA
BRANCH   8  10
ATOM     10  C   UNL d   1      51.592  33.808  53.082  0.00  0.00     0.224 C 
ATOM     11  S   UNL d   1      52.173  34.350  53.305  0.00  0.00    -0.037 SA
BRANCH  10  12
ATOM     12  N   UNL d   1      51.758  33.012  53.083  0.00  0.00    -0.214 NA
BRANCH  12  13
ATOM     13  C   UNL d   1      52.540  32.753  53.057  0.00  0.00     0.126 C 
BRANCH  13  14
ATOM     14  C   UNL d   1      52.719  31.952  53.052  0.00  0.00     0.119 A 
ATOM     15  O   UNL d   1      52.447  31.364  52.513  0.00  0.00    -0.304 OA
ATOM     16  C   UNL d   1      52.780  30.646  52.736  0.00  0.00     0.123 A 
ATOM     17  C   UNL d   1      53.246  30.765  53.392  0.00  0.00     0.029 A 
ATOM     18  C   UNL d   1      53.214  31.581  53.598  0.00  0.00     0.028 A 
ENDBRANCH  13  14
ENDBRANCH  12  13
ENDBRANCH  10  12
ENDBRANCH   8  10
ENDBRANCH   1   7
BRANCH   4  19
ATOM     19  O   UNL d   1      48.426  34.709  51.106  0.00  0.00    -0.326 OA
ATOM     20  C   UNL d   1      48.856  34.132  50.672  0.00  0.00     0.181 C 
ENDBRANCH   4  19
BRANCH   3  21
ATOM     21  O   UNL d   1      47.964  36.017  53.632  0.00  0.00    -0.326 OA
ATOM     22  C   UNL d   1      48.093  36.029  54.439  0.00  0.00     0.181 C 
ENDBRANCH   3  21
BRANCH   2  23
ATOM     23  O   UNL d   1      47.423  35.559  52.109  0.00  0.00    -0.324 OA
ATOM     24  C   UNL d   1      47.227  36.336  51.896  0.00  0.00     0.182 C 
ENDBRANCH   2  23
TORSDOF 8
ENDMDL
MODEL 7
REMARK VINA RESULT:      -4.4      1.416      5.316
REMARK  8 active torsions:
REMARK  status: ('A' for Active; 'I' for Inactive)
REMARK       I    between atoms: C_2  and  N_1 
REMARK    1  A    between atoms: C_3  and  N_1 
REMARK    2  A    between atoms: C_4  and  C_2 
REMARK    3  A    between atoms: N_12  and  C_3 
REMARK    4  A    between atoms: O_19  and  C_5 
REMARK    5  A    between atoms: O_20  and  C_6 
REMARK    6  A    between atoms: O_21  and  C_7 
REMARK    7  A    between atoms: C_10  and  C_18 
REMARK    8  A    between atoms: C_18  and  N_12 
ROOT
ATOM      1  C   UNL d   1      49.352  34.914  52.780  0.00  0.00     0.062 A 
ATOM      2  C   UNL d   1      48.035  35.887  52.512  0.00  0.00     0.138 A 
ATOM      3  C   UNL d   1      48.471  35.962  53.217  0.00  0.00     0.118 A 
ATOM      4  C   UNL d   1      48.273  35.322  51.955  0.00  0.00     0.118 A 
ATOM      5  C   UNL d   1      48.922  34.842  52.087  0.00  0.00     0.031 A 
ATOM      6  C   UNL d   1      49.131  35.471  53.347  0.00  0.00     0.031 A 
ENDROOT
BRANCH   1   7
ATOM      7  C   UNL d   1      50.016  34.419  52.910  0.00  0.00     0.281 C 
ATOM      8  N   UNL d   1      50.776  34.706  52.731  0.00  0.00    -0.179 NA
ATOM      9  O   UNL d   1      49.928  33.665  53.207  0.00  0.00    -0.265 OA
BRANCH   8  10
ATOM     10  C   UNL d   1      51.434  34.215  52.860  0.00  0.00     0.224 C 
ATOM     11  S   UNL d   1      51.599  33.531  52.430  0.00  0.00    -0.037 SA
BRANCH  10  12
ATOM     12  N   UNL d   1      51.934  34.450  53.457  0.00  0.00    -0.214 NA
BRANCH  12  13
ATOM     13  C   UNL d   1      52.725  34.219  53.447  0.00  0.00     0.126 C 
BRANCH  13  14
ATOM     14  C   UNL d   1      53.195  34.296  54.115  0.00  0.00     0.119 A 
ATOM     15  O   UNL d   1      53.162  34.897  54.705  0.00  0.00    -0.304 OA
ATOM     16  C   UNL d   1      53.745  34.734  55.262  0.00  0.00     0.123 A 
ATOM     17  C   UNL d   1      54.137  34.056  55.041  0.00  0.00     0.029 A 
ATOM     18  C   UNL d   1      53.799  33.774  54.323  0.00  0.00     0.028 A 
ENDBRANCH  13  14
ENDBRANCH  12  13
ENDBRANCH  10  12
ENDBRANCH   8  10
ENDBRANCH   1   7
BRANCH   4  19
ATOM     19  O   UNL d   1      47.830  35.251  51.246  0.00  0.00    -0.326 OA
ATOM     20  C   UNL d   1      48.075  34.689  50.672  0.00  0.00     0.181 C 
ENDBRANCH   4  19
BRANCH   3  21
ATOM     21  O   UNL d   1      48.242  36.533  53.793  0.00  0.00    -0.326 OA
ATOM     22  C   UNL d   1      48.349  36.396  54.593  0.00  0.00     0.181 C 
ENDBRANCH   3  21
BRANCH   2  23
ATOM     23  O   UNL d   1      47.369  36.375  52.368  0.00  0.00    -0.324 OA
ATOM     24  C   UNL d   1      46.601  36.121  52.555  0.00  0.00     0.182 C 
ENDBRANCH   2  23
TORSDOF 8
ENDMDL
