MODEL 1
REMARK VINA RESULT:      32.2      0.000      0.000
REMARK  4 active torsions:
REMARK  status: ('A' for Active; 'I' for Inactive)
REMARK    1  A    between atoms: C_6  and  C_1 
REMARK       I    between atoms: N_8  and  C_6 
REMARK    2  A    between atoms: C_17  and  N_8 
REMARK    3  A    between atoms: C_9  and  C_17 
REMARK    4  A    between atoms: O_18  and  C_12 
ROOT
ATOM      1  C   UNL d   1      14.417  13.181  -1.863  0.00  0.00     0.121 A 
ATOM      2  C   UNL d   1      14.281  12.411  -2.093  0.00  0.00     0.305 A 
ATOM      3  O   UNL d   1      13.889  12.249  -2.806  0.00  0.00    -0.271 OA
ATOM      4  C   UNL d   1      14.168  13.811  -2.336  0.00  0.00     0.012 A 
ATOM      5  C   UNL d   1      13.640  12.878  -3.279  0.00  0.00     0.125 A 
ATOM      6  C   UNL d   1      13.776  13.648  -3.050  0.00  0.00     0.025 A 
ATOM      7  O   UNL d   1      14.533  11.779  -1.613  0.00  0.00    -0.259 OA
ATOM      8  C   UNL d   1      13.254  12.720  -3.982  0.00  0.00     0.117 A 
ATOM      9  C   UNL d   1      13.529  14.276  -3.518  0.00  0.00     0.002 A 
ATOM     10  C   UNL d   1      13.136  14.128  -4.235  0.00  0.00     0.002 A 
ATOM     11  C   UNL d   1      12.997  13.346  -4.468  0.00  0.00     0.026 A 
ENDROOT
BRANCH   1  12
ATOM     12  C   UNL d   1      14.807  13.323  -1.153  0.00  0.00     0.284 C 
ATOM     13  N   UNL d   1      15.002  13.982  -0.697  0.00  0.00    -0.204 NA
ATOM     14  O   UNL d   1      15.117  12.686  -0.716  0.00  0.00    -0.265 OA
BRANCH  13  15
ATOM     15  C   UNL d   1      14.781  14.733  -0.959  0.00  0.00     0.127 C 
BRANCH  15  16
ATOM     16  C   UNL d   1      15.161  15.410  -0.668  0.00  0.00     0.119 A 
ATOM     17  O   UNL d   1      15.802  15.422  -0.155  0.00  0.00    -0.304 OA
ATOM     18  C   UNL d   1      15.989  16.205  -0.021  0.00  0.00     0.123 A 
ATOM     19  C   UNL d   1      15.458  16.674  -0.454  0.00  0.00     0.029 A 
ATOM     20  C   UNL d   1      14.949  16.184  -0.853  0.00  0.00     0.028 A 
ENDBRANCH  15  16
ENDBRANCH  13  15
ENDBRANCH   1  12
BRANCH   8  21
ATOM     21  O   UNL d   1      13.117  11.946  -4.213  0.00  0.00    -0.326 OA
ATOM     22  C   UNL d   1      12.846  11.779  -4.968  0.00  0.00     0.181 C 
ENDBRANCH   8  21
TORSDOF 4
ENDMDL
