MODEL 1
REMARK VINA RESULT:      -2.9      0.000      0.000
REMARK  2 active torsions:
REMARK  status: ('A' for Active; 'I' for Inactive)
REMARK       I    between atoms: N_2  and  C_1 
REMARK    1  A    between atoms: C_6  and  C_1 
REMARK    2  A    between atoms: C_4  and  N_2 
ROOT
ATOM      1  C   UNL d   1      30.942  17.105 -24.422  0.00  0.00     0.279 C 
ATOM      2  N   UNL d   1      31.293  17.717 -24.001  0.00  0.00    -0.204 NA
ATOM      3  O   UNL d   1      31.318  16.794 -25.094  0.00  0.00    -0.265 OA
ENDROOT
BRANCH   1   4
ATOM      4  C   UNL d   1      30.216  16.795 -24.180  0.00  0.00     0.058 A 
ATOM      5  C   UNL d   1      29.522  17.167 -24.376  0.00  0.00     0.006 A 
ATOM      6  C   UNL d   1      28.797  16.857 -24.134  0.00  0.00     0.012 A 
ATOM      7  C   UNL d   1      28.757  16.171 -23.693  0.00  0.00     0.058 A 
ATOM      8  C   UNL d   1      29.474  15.778 -23.485  0.00  0.00     0.012 A 
ATOM      9 CL   UNL d   1      28.052  15.870 -23.458  0.00  0.00    -0.082 Cl
ATOM     10  C   UNL d   1      30.199  16.088 -23.727  0.00  0.00     0.006 A 
ENDBRANCH   1   4
BRANCH   2  11
ATOM     11  C   UNL d   1      32.024  18.023 -24.252  0.00  0.00     0.130 A 
ATOM     12  C   UNL d   1      32.619  18.325 -23.779  0.00  0.00     0.243 A 
ATOM     13  S   UNL d   1      33.239  18.563 -24.265  0.00  0.00    -0.044 SA
ATOM     14  O   UNL d   1      32.595  18.379 -22.949  0.00  0.00    -0.278 OA
ATOM     15  C   UNL d   1      33.023  18.406 -25.050  0.00  0.00     0.040 A 
ATOM     16  C   UNL d   1      32.271  18.072 -25.045  0.00  0.00     0.030 A 
ENDBRANCH   2  11
TORSDOF 2
ENDMDL
MODEL 2
REMARK VINA RESULT:      -2.6      3.681      4.745
REMARK  2 active torsions:
REMARK  status: ('A' for Active; 'I' for Inactive)
REMARK       I    between atoms: N_2  and  C_1 
REMARK    1  A    between atoms: C_6  and  C_1 
REMARK    2  A    between atoms: C_4  and  N_2 
ROOT
ATOM      1  C   UNL d   1      33.007  20.475 -22.486  0.00  0.00     0.279 C 
ATOM      2  N   UNL d   1      32.762  20.693 -21.732  0.00  0.00    -0.204 NA
ATOM      3  O   UNL d   1      33.234  21.059 -23.033  0.00  0.00    -0.265 OA
ENDROOT
BRANCH   1   4
ATOM      4  C   UNL d   1      33.029  19.680 -22.704  0.00  0.00     0.058 A 
ATOM      5  C   UNL d   1      33.218  19.108 -22.160  0.00  0.00     0.006 A 
ATOM      6  C   UNL d   1      33.240  18.312 -22.378  0.00  0.00     0.012 A 
ATOM      7  C   UNL d   1      33.073  18.079 -23.142  0.00  0.00     0.058 A 
ATOM      8  C   UNL d   1      32.875  18.668 -23.714  0.00  0.00     0.012 A 
ATOM      9 CL   UNL d   1      33.094  17.306 -23.354  0.00  0.00    -0.082 Cl
ATOM     10  C   UNL d   1      32.853  19.463 -23.496  0.00  0.00     0.006 A 
ENDBRANCH   1   4
BRANCH   2  11
ATOM     11  C   UNL d   1      32.744  21.497 -21.522  0.00  0.00     0.130 A 
ATOM     12  C   UNL d   1      32.251  21.849 -20.972  0.00  0.00     0.243 A 
ATOM     13  S   UNL d   1      32.427  22.653 -20.946  0.00  0.00    -0.044 SA
ATOM     14  O   UNL d   1      31.673  21.458 -20.520  0.00  0.00    -0.278 OA
ATOM     15  C   UNL d   1      33.038  22.799 -21.488  0.00  0.00     0.040 A 
ATOM     16  C   UNL d   1      33.236  22.084 -21.846  0.00  0.00     0.030 A 
ENDBRANCH   2  11
TORSDOF 2
ENDMDL
MODEL 3
REMARK VINA RESULT:      -2.6      2.367      3.790
REMARK  2 active torsions:
REMARK  status: ('A' for Active; 'I' for Inactive)
REMARK       I    between atoms: N_2  and  C_1 
REMARK    1  A    between atoms: C_6  and  C_1 
REMARK    2  A    between atoms: C_4  and  N_2 
ROOT
ATOM      1  C   UNL d   1      30.783  16.969 -24.203  0.00  0.00     0.279 C 
ATOM      2  N   UNL d   1      30.002  17.185 -24.343  0.00  0.00    -0.204 NA
ATOM      3  O   UNL d   1      30.964  16.188 -23.985  0.00  0.00    -0.265 OA
ENDROOT
BRANCH   1   4
ATOM      4  C   UNL d   1      31.389  17.524 -24.278  0.00  0.00     0.058 A 
ATOM      5  C   UNL d   1      31.854  17.717 -23.641  0.00  0.00     0.006 A 
ATOM      6  C   UNL d   1      32.460  18.272 -23.716  0.00  0.00     0.012 A 
ATOM      7  C   UNL d   1      32.608  18.640 -24.430  0.00  0.00     0.058 A 
ATOM      8  C   UNL d   1      32.130  18.445 -25.097  0.00  0.00     0.012 A 
ATOM      9 CL   UNL d   1      33.198  19.179 -24.503  0.00  0.00    -0.082 Cl
ATOM     10  C   UNL d   1      31.524  17.890 -25.022  0.00  0.00     0.006 A 
ENDBRANCH   1   4
BRANCH   2  11
ATOM     11  C   UNL d   1      29.398  16.619 -24.265  0.00  0.00     0.130 A 
ATOM     12  C   UNL d   1      28.650  16.739 -23.958  0.00  0.00     0.243 A 
ATOM     13  S   UNL d   1      28.241  16.026 -23.989  0.00  0.00    -0.044 SA
ATOM     14  O   UNL d   1      28.357  17.461 -23.665  0.00  0.00    -0.278 OA
ATOM     15  C   UNL d   1      28.745  15.457 -24.320  0.00  0.00     0.040 A 
ATOM     16  C   UNL d   1      29.462  15.822 -24.492  0.00  0.00     0.030 A 
ENDBRANCH   2  11
TORSDOF 2
ENDMDL
MODEL 4
REMARK VINA RESULT:      -2.6      3.811      5.274
REMARK  2 active torsions:
REMARK  status: ('A' for Active; 'I' for Inactive)
REMARK       I    between atoms: N_2  and  C_1 
REMARK    1  A    between atoms: C_6  and  C_1 
REMARK    2  A    between atoms: C_4  and  N_2 
ROOT
ATOM      1  C   UNL d   1      32.951  20.279 -21.908  0.00  0.00     0.279 C 
ATOM      2  N   UNL d   1      32.971  20.085 -22.707  0.00  0.00    -0.204 NA
ATOM      3  O   UNL d   1      33.017  19.681 -21.335  0.00  0.00    -0.265 OA
ENDROOT
BRANCH   1   4
ATOM      4  C   UNL d   1      32.867  21.065 -21.671  0.00  0.00     0.058 A 
ATOM      5  C   UNL d   1      33.225  21.662 -22.088  0.00  0.00     0.006 A 
ATOM      6  C   UNL d   1      33.141  22.448 -21.851  0.00  0.00     0.012 A 
ATOM      7  C   UNL d   1      32.697  22.646 -21.195  0.00  0.00     0.058 A 
ATOM      8  C   UNL d   1      32.321  22.030 -20.757  0.00  0.00     0.012 A 
ATOM      9 CL   UNL d   1      32.615  23.410 -20.965  0.00  0.00    -0.082 Cl
ATOM     10  C   UNL d   1      32.405  21.244 -20.994  0.00  0.00     0.006 A 
ENDBRANCH   1   4
BRANCH   2  11
ATOM     11  C   UNL d   1      33.056  19.291 -22.936  0.00  0.00     0.130 A 
ATOM     12  C   UNL d   1      33.033  18.994 -23.698  0.00  0.00     0.243 A 
ATOM     13  S   UNL d   1      33.142  18.179 -23.661  0.00  0.00    -0.044 SA
ATOM     14  O   UNL d   1      32.917  19.444 -24.388  0.00  0.00    -0.278 OA
ATOM     15  C   UNL d   1      33.235  17.970 -22.864  0.00  0.00     0.040 A 
ATOM     16  C   UNL d   1      33.182  18.657 -22.413  0.00  0.00     0.030 A 
ENDBRANCH   2  11
TORSDOF 2
ENDMDL
MODEL 5
REMARK VINA RESULT:      -2.5      4.535      5.835
REMARK  2 active torsions:
REMARK  status: ('A' for Active; 'I' for Inactive)
REMARK       I    between atoms: N_2  and  C_1 
REMARK    1  A    between atoms: C_6  and  C_1 
REMARK    2  A    between atoms: C_4  and  N_2 
ROOT
ATOM      1  C   UNL d   1      32.988  21.221 -21.300  0.00  0.00     0.279 C 
ATOM      2  N   UNL d   1      32.703  21.972 -21.474  0.00  0.00    -0.204 NA
ATOM      3  O   UNL d   1      33.241  21.042 -20.529  0.00  0.00    -0.265 OA
ENDROOT
BRANCH   1   4
ATOM      4  C   UNL d   1      33.027  20.643 -21.888  0.00  0.00     0.058 A 
ATOM      5  C   UNL d   1      32.897  19.862 -21.707  0.00  0.00     0.006 A 
ATOM      6  C   UNL d   1      32.935  19.284 -22.295  0.00  0.00     0.012 A 
ATOM      7  C   UNL d   1      33.103  19.480 -23.069  0.00  0.00     0.058 A 
ATOM      8  C   UNL d   1      33.239  20.289 -23.265  0.00  0.00     0.012 A 
ATOM      9 CL   UNL d   1      33.140  18.918 -23.640  0.00  0.00    -0.082 Cl
ATOM     10  C   UNL d   1      33.201  20.867 -22.677  0.00  0.00     0.006 A 
ENDBRANCH   1   4
BRANCH   2  11
ATOM     11  C   UNL d   1      32.668  22.548 -20.875  0.00  0.00     0.130 A 
ATOM     12  C   UNL d   1      32.133  23.164 -20.817  0.00  0.00     0.243 A 
ATOM     13  S   UNL d   1      32.308  23.593 -20.137  0.00  0.00    -0.044 SA
ATOM     14  O   UNL d   1      31.520  23.324 -21.356  0.00  0.00    -0.278 OA
ATOM     15  C   UNL d   1      32.961  23.237 -19.770  0.00  0.00     0.040 A 
ATOM     16  C   UNL d   1      33.186  22.589 -20.225  0.00  0.00     0.030 A 
ENDBRANCH   2  11
TORSDOF 2
ENDMDL
MODEL 6
REMARK VINA RESULT:      -2.1      2.604      4.112
REMARK  2 active torsions:
REMARK  status: ('A' for Active; 'I' for Inactive)
REMARK       I    between atoms: N_2  and  C_1 
REMARK    1  A    between atoms: C_6  and  C_1 
REMARK    2  A    between atoms: C_4  and  N_2 
ROOT
ATOM      1  C   UNL d   1      32.821  18.413 -23.230  0.00  0.00     0.279 C 
ATOM      2  N   UNL d   1      32.326  18.293 -23.875  0.00  0.00    -0.204 NA
ATOM      3  O   UNL d   1      33.219  17.769 -22.888  0.00  0.00    -0.265 OA
ENDROOT
BRANCH   1   4
ATOM      4  C   UNL d   1      32.927  19.170 -22.920  0.00  0.00     0.058 A 
ATOM      5  C   UNL d   1      32.830  19.308 -22.126  0.00  0.00     0.006 A 
ATOM      6  C   UNL d   1      32.935  20.066 -21.816  0.00  0.00     0.012 A 
ATOM      7  C   UNL d   1      33.139  20.694 -22.296  0.00  0.00     0.058 A 
ATOM      8  C   UNL d   1      33.241  20.558 -23.123  0.00  0.00     0.012 A 
ATOM      9 CL   UNL d   1      33.241  21.430 -21.994  0.00  0.00    -0.082 Cl
ATOM     10  C   UNL d   1      33.136  19.801 -23.433  0.00  0.00     0.006 A 
ENDBRANCH   1   4
BRANCH   2  11
ATOM     11  C   UNL d   1      32.226  17.527 -24.181  0.00  0.00     0.130 A 
ATOM     12  C   UNL d   1      31.530  17.193 -24.451  0.00  0.00     0.243 A 
ATOM     13  S   UNL d   1      31.693  16.426 -24.702  0.00  0.00    -0.044 SA
ATOM     14  O   UNL d   1      30.788  17.569 -24.468  0.00  0.00    -0.278 OA
ATOM     15  C   UNL d   1      32.501  16.284 -24.584  0.00  0.00     0.040 A 
ATOM     16  C   UNL d   1      32.834  16.964 -24.261  0.00  0.00     0.030 A 
ENDBRANCH   2  11
TORSDOF 2
ENDMDL
MODEL 7
REMARK VINA RESULT:      -2.0      6.496      7.706
REMARK  2 active torsions:
REMARK  status: ('A' for Active; 'I' for Inactive)
REMARK       I    between atoms: N_2  and  C_1 
REMARK    1  A    between atoms: C_6  and  C_1 
REMARK    2  A    between atoms: C_4  and  N_2 
ROOT
ATOM      1  C   UNL d   1      32.623  23.144 -20.043  0.00  0.00     0.279 C 
ATOM      2  N   UNL d   1      33.077  22.556 -20.395  0.00  0.00    -0.204 NA
ATOM      3  O   UNL d   1      32.171  23.657 -20.515  0.00  0.00    -0.265 OA
ENDROOT
BRANCH   1   4
ATOM      4  C   UNL d   1      32.613  23.228 -19.222  0.00  0.00     0.058 A 
ATOM      5  C   UNL d   1      32.003  23.618 -18.855  0.00  0.00     0.006 A 
ATOM      6  C   UNL d   1      31.993  23.702 -18.034  0.00  0.00     0.012 A 
ATOM      7  C   UNL d   1      32.593  23.398 -17.571  0.00  0.00     0.058 A 
ATOM      8  C   UNL d   1      33.231  22.991 -17.946  0.00  0.00     0.012 A 
ATOM      9 CL   UNL d   1      32.583  23.480 -16.773  0.00  0.00    -0.082 Cl
ATOM     10  C   UNL d   1      33.241  22.907 -18.767  0.00  0.00     0.006 A 
ENDBRANCH   1   4
BRANCH   2  11
ATOM     11  C   UNL d   1      33.081  22.479 -21.223  0.00  0.00     0.130 A 
ATOM     12  C   UNL d   1      33.024  21.785 -21.651  0.00  0.00     0.243 A 
ATOM     13  S   UNL d   1      33.051  21.973 -22.452  0.00  0.00    -0.044 SA
ATOM     14  O   UNL d   1      32.951  21.021 -21.328  0.00  0.00    -0.278 OA
ATOM     15  C   UNL d   1      33.126  22.796 -22.518  0.00  0.00     0.040 A 
ATOM     16  C   UNL d   1      33.145  23.112 -21.758  0.00  0.00     0.030 A 
ENDBRANCH   2  11
TORSDOF 2
ENDMDL
MODEL 8
REMARK VINA RESULT:      -1.8      5.069      6.481
REMARK  2 active torsions:
REMARK  status: ('A' for Active; 'I' for Inactive)
REMARK       I    between atoms: N_2  and  C_1 
REMARK    1  A    between atoms: C_6  and  C_1 
REMARK    2  A    between atoms: C_4  and  N_2 
ROOT
ATOM      1  C   UNL d   1      32.985  21.805 -21.258  0.00  0.00     0.279 C 
ATOM      2  N   UNL d   1      33.185  21.010 -21.200  0.00  0.00    -0.204 NA
ATOM      3  O   UNL d   1      32.803  22.133 -21.999  0.00  0.00    -0.265 OA
ENDROOT
BRANCH   1   4
ATOM      4  C   UNL d   1      32.963  22.280 -20.584  0.00  0.00     0.058 A 
ATOM      5  C   UNL d   1      33.204  21.988 -19.865  0.00  0.00     0.006 A 
ATOM      6  C   UNL d   1      33.182  22.463 -19.191  0.00  0.00     0.012 A 
ATOM      7  C   UNL d   1      32.920  23.235 -19.227  0.00  0.00     0.058 A 
ATOM      8  C   UNL d   1      32.668  23.546 -19.970  0.00  0.00     0.012 A 
ATOM      9 CL   UNL d   1      32.899  23.697 -18.572  0.00  0.00    -0.082 Cl
ATOM     10  C   UNL d   1      32.689  23.071 -20.644  0.00  0.00     0.006 A 
ENDBRANCH   1   4
BRANCH   2  11
ATOM     11  C   UNL d   1      33.204  20.539 -21.885  0.00  0.00     0.130 A 
ATOM     12  C   UNL d   1      33.228  19.722 -21.919  0.00  0.00     0.243 A 
ATOM     13  S   UNL d   1      33.241  19.498 -22.711  0.00  0.00    -0.044 SA
ATOM     14  O   UNL d   1      33.237  19.211 -21.262  0.00  0.00    -0.278 OA
ATOM     15  C   UNL d   1      33.225  20.186 -23.172  0.00  0.00     0.040 A 
ATOM     16  C   UNL d   1      33.202  20.833 -22.663  0.00  0.00     0.030 A 
ENDBRANCH   2  11
TORSDOF 2
ENDMDL
MODEL 9
REMARK VINA RESULT:      -1.3      6.673      7.920
REMARK  2 active torsions:
REMARK  status: ('A' for Active; 'I' for Inactive)
REMARK       I    between atoms: N_2  and  C_1 
REMARK    1  A    between atoms: C_6  and  C_1 
REMARK    2  A    between atoms: C_4  and  N_2 
ROOT
ATOM      1  C   UNL d   1      32.694  23.110 -19.678  0.00  0.00     0.279 C 
ATOM      2  N   UNL d   1      33.234  22.752 -19.173  0.00  0.00    -0.204 NA
ATOM      3  O   UNL d   1      32.138  23.649 -19.376  0.00  0.00    -0.265 OA
ENDROOT
BRANCH   1   4
ATOM      4  C   UNL d   1      32.700  22.939 -20.485  0.00  0.00     0.058 A 
ATOM      5  C   UNL d   1      32.341  22.268 -20.768  0.00  0.00     0.006 A 
ATOM      6  C   UNL d   1      32.347  22.096 -21.575  0.00  0.00     0.012 A 
ATOM      7  C   UNL d   1      32.713  22.594 -22.109  0.00  0.00     0.058 A 
ATOM      8  C   UNL d   1      33.088  23.294 -21.823  0.00  0.00     0.012 A 
ATOM      9 CL   UNL d   1      32.718  22.428 -22.894  0.00  0.00    -0.082 Cl
ATOM     10  C   UNL d   1      33.082  23.465 -21.016  0.00  0.00     0.006 A 
ENDBRANCH   1   4
BRANCH   2  11
ATOM     11  C   UNL d   1      33.221  22.930 -18.361  0.00  0.00     0.130 A 
ATOM     12  C   UNL d   1      33.209  22.397 -17.741  0.00  0.00     0.243 A 
ATOM     13  S   UNL d   1      33.197  22.822 -17.036  0.00  0.00    -0.044 SA
ATOM     14  O   UNL d   1      33.208  21.569 -17.816  0.00  0.00    -0.278 OA
ATOM     15  C   UNL d   1      33.202  23.630 -17.224  0.00  0.00     0.040 A 
ATOM     16  C   UNL d   1      33.217  23.699 -18.045  0.00  0.00     0.030 A 
ENDBRANCH   2  11
TORSDOF 2
ENDMDL
