MODEL 1
REMARK VINA RESULT:      66.9      0.000      0.000
REMARK  1 active torsions:
REMARK  status: ('A' for Active; 'I' for Inactive)
REMARK    1  A    between atoms: C_2  and  N_1 
ROOT
ATOM      1  C   UNL d   1     -57.892 -98.818 -43.933  0.00  0.00     0.169 A 
ATOM      2  C   UNL d   1     -57.185 -98.861 -44.317  0.00  0.00     0.060 A 
ATOM      3  C   UNL d   1     -57.171 -98.880 -45.165  0.00  0.00     0.115 A 
ATOM      4  S   UNL d   1     -56.392 -98.923 -45.405  0.00  0.00    -0.068 SA
ATOM      5  C   UNL d   1     -56.401 -98.893 -44.076  0.00  0.00     0.011 A 
ATOM      6  N   UNL d   1     -58.593 -98.793 -44.329  0.00  0.00    -0.208 NA
ATOM      7  N   UNL d   1     -57.862 -98.856 -45.576  0.00  0.00    -0.220 NA
ATOM      8  C   UNL d   1     -55.915 -98.931 -44.750  0.00  0.00     0.031 A 
ATOM      9  C   UNL d   1     -58.611 -98.811 -45.187  0.00  0.00     0.165 A 
ATOM     10  C   UNL d   1     -56.054 -98.893 -43.322  0.00  0.00     0.001 A 
ATOM     11  C   UNL d   1     -55.100 -98.969 -44.669  0.00  0.00     0.006 A 
ATOM     12  C   UNL d   1     -59.320 -98.787 -45.615  0.00  0.00     0.042 C 
ATOM     13  C   UNL d   1     -55.232 -98.931 -43.262  0.00  0.00     0.000 A 
ATOM     14  C   UNL d   1     -54.737 -98.970 -43.945  0.00  0.00     0.001 A 
ENDROOT
BRANCH   1  15
ATOM     15  N   UNL d   1     -57.917 -98.799 -43.106  0.00  0.00    -0.193 N 
ATOM     16  N   UNL d   1     -57.261 -98.772 -42.621  0.00  0.00    -0.058 NA
ATOM     17  N   UNL d   1     -57.517 -98.759 -41.824  0.00  0.00    -0.129 NA
ATOM     18  C   UNL d   1     -58.345 -98.777 -41.826  0.00  0.00     0.122 A 
ATOM     19  C   UNL d   1     -58.599 -98.802 -42.597  0.00  0.00     0.105 A 
ATOM     20  C   UNL d   1     -58.871 -98.774 -41.222  0.00  0.00     0.022 A 
ATOM     21  C   UNL d   1     -59.369 -98.824 -42.791  0.00  0.00     0.021 A 
ATOM     22  C   UNL d   1     -59.929 -98.821 -42.185  0.00  0.00     0.002 A 
ATOM     23  C   UNL d   1     -59.670 -98.796 -41.392  0.00  0.00     0.002 A 
ENDBRANCH   1  15
TORSDOF 1
ENDMDL
