MODEL 1
REMARK VINA RESULT:      -8.0      0.000      0.000
REMARK  3 active torsions:
REMARK  status: ('A' for Active; 'I' for Inactive)
REMARK    1  A    between atoms: C_11  and  N_1 
REMARK    2  A    between atoms: C_3  and  C_6 
REMARK    3  A    between atoms: C_6  and  N_5 
ROOT
ATOM      1  N   UNL d   1     -46.514  12.657  23.081  0.00  0.00    -0.301 N 
ATOM      2  N   UNL d   1     -47.672  13.847  22.999  0.00  0.00    -0.300 N 
ATOM      3  C   UNL d   1     -47.265  12.544  23.441  0.00  0.00     0.100 A 
ATOM      4  C   UNL d   1     -46.360  13.365  22.687  0.00  0.00     0.100 A 
ATOM      5  C   UNL d   1     -46.921  13.959  22.639  0.00  0.00     0.100 A 
ATOM      6  C   UNL d   1     -47.843  13.143  23.398  0.00  0.00     0.100 A 
ENDROOT
BRANCH   2   7
ATOM      7  C   UNL d   1     -48.250  14.445  22.957  0.00  0.00     0.080 C 
BRANCH   7   8
ATOM      8  C   UNL d   1     -48.942  14.322  22.525  0.00  0.00     0.019 A 
ATOM      9  C   UNL d   1     -49.645  14.728  22.738  0.00  0.00     0.022 A 
ATOM     10  C   UNL d   1     -50.336  14.605  22.307  0.00  0.00     0.120 A 
ATOM     11  C   UNL d   1     -49.636  15.245  23.374  0.00  0.00     0.003 A 
ATOM     12  N   UNL d   1     -51.028  14.997  22.506  0.00  0.00    -0.241 NA
ATOM     13  C   UNL d   1     -50.334  14.075  21.656  0.00  0.00     0.213 A 
ATOM     14  C   UNL d   1     -51.031  15.528  23.157  0.00  0.00     0.099 A 
ATOM     15  C   UNL d   1     -50.339  15.651  23.588  0.00  0.00     0.021 A 
ATOM     16  C   UNL d   1     -49.635  13.673  21.448  0.00  0.00     0.044 A 
ATOM     17  O   UNL d   1     -51.026  13.952  21.225  0.00  0.00    -0.285 OA
ATOM     18  C   UNL d   1     -48.943  13.796  21.879  0.00  0.00     0.005 A 
ENDBRANCH   7   8
ENDBRANCH   2   7
BRANCH   1  19
ATOM     19  C   UNL d   1     -46.096  11.951  23.239  0.00  0.00     0.064 A 
ATOM     20  C   UNL d   1     -46.297  11.270  23.639  0.00  0.00     0.018 A 
ATOM     21  C   UNL d   1     -45.722  10.645  23.695  0.00  0.00     0.002 A 
ATOM     22  C   UNL d   1     -44.997  10.719  23.364  0.00  0.00     0.000 A 
ATOM     23  C   UNL d   1     -44.802  11.419  22.958  0.00  0.00     0.002 A 
ATOM     24  C   UNL d   1     -45.350  12.029  22.898  0.00  0.00     0.018 A 
ENDBRANCH   1  19
TORSDOF 3
ENDMDL
MODEL 2
REMARK VINA RESULT:      -7.1      1.748      5.065
REMARK  3 active torsions:
REMARK  status: ('A' for Active; 'I' for Inactive)
REMARK    1  A    between atoms: C_11  and  N_1 
REMARK    2  A    between atoms: C_3  and  C_6 
REMARK    3  A    between atoms: C_6  and  N_5 
ROOT
ATOM      1  N   UNL d   1     -48.981  14.052  22.590  0.00  0.00    -0.301 N 
ATOM      2  N   UNL d   1     -47.357  13.753  22.410  0.00  0.00    -0.300 N 
ATOM      3  C   UNL d   1     -48.430  14.353  23.148  0.00  0.00     0.100 A 
ATOM      4  C   UNL d   1     -48.706  13.607  21.952  0.00  0.00     0.100 A 
ATOM      5  C   UNL d   1     -47.908  13.452  21.852  0.00  0.00     0.100 A 
ATOM      6  C   UNL d   1     -47.616  14.201  23.054  0.00  0.00     0.100 A 
ENDROOT
BRANCH   2   7
ATOM      7  C   UNL d   1     -46.543  13.601  22.316  0.00  0.00     0.080 C 
BRANCH   7   8
ATOM      8  C   UNL d   1     -46.205  12.931  22.660  0.00  0.00     0.019 A 
ATOM      9  C   UNL d   1     -45.421  12.708  22.458  0.00  0.00     0.022 A 
ATOM     10  C   UNL d   1     -45.084  12.039  22.801  0.00  0.00     0.120 A 
ATOM     11  C   UNL d   1     -44.999  13.159  21.920  0.00  0.00     0.003 A 
ATOM     12  N   UNL d   1     -44.319  11.812  22.611  0.00  0.00    -0.241 NA
ATOM     13  C   UNL d   1     -45.525  11.584  23.351  0.00  0.00     0.213 A 
ATOM     14  C   UNL d   1     -43.877  12.267  22.060  0.00  0.00     0.099 A 
ATOM     15  C   UNL d   1     -44.215  12.936  21.717  0.00  0.00     0.021 A 
ATOM     16  C   UNL d   1     -46.303  11.808  23.550  0.00  0.00     0.044 A 
ATOM     17  O   UNL d   1     -45.187  10.915  23.695  0.00  0.00    -0.285 OA
ATOM     18  C   UNL d   1     -46.640  12.477  23.207  0.00  0.00     0.005 A 
ENDBRANCH   7   8
ENDBRANCH   2   7
BRANCH   1  19
ATOM     19  C   UNL d   1     -49.725  14.315  22.866  0.00  0.00     0.064 A 
ATOM     20  C   UNL d   1     -50.374  13.920  23.161  0.00  0.00     0.018 A 
ATOM     21  C   UNL d   1     -51.055  14.373  23.395  0.00  0.00     0.002 A 
ATOM     22  C   UNL d   1     -51.064  15.171  23.329  0.00  0.00     0.000 A 
ATOM     23  C   UNL d   1     -50.396  15.564  23.026  0.00  0.00     0.002 A 
ATOM     24  C   UNL d   1     -49.733  15.137  22.797  0.00  0.00     0.018 A 
ENDBRANCH   1  19
TORSDOF 3
ENDMDL
MODEL 3
REMARK VINA RESULT:      -6.6      8.615      9.454
REMARK  3 active torsions:
REMARK  status: ('A' for Active; 'I' for Inactive)
REMARK    1  A    between atoms: C_11  and  N_1 
REMARK    2  A    between atoms: C_3  and  C_6 
REMARK    3  A    between atoms: C_6  and  N_5 
ROOT
ATOM      1  N   UNL d   1     -39.499  14.573  21.632  0.00  0.00    -0.301 N 
ATOM      2  N   UNL d   1     -40.010  15.139  20.155  0.00  0.00    -0.300 N 
ATOM      3  C   UNL d   1     -39.052  15.155  21.223  0.00  0.00     0.100 A 
ATOM      4  C   UNL d   1     -40.194  14.287  21.291  0.00  0.00     0.100 A 
ATOM      5  C   UNL d   1     -40.457  14.558  20.565  0.00  0.00     0.100 A 
ATOM      6  C   UNL d   1     -39.312  15.437  20.482  0.00  0.00     0.100 A 
ENDROOT
BRANCH   2   7
ATOM      7  C   UNL d   1     -40.269  15.421  19.415  0.00  0.00     0.080 C 
BRANCH   7   8
ATOM      8  C   UNL d   1     -40.033  15.041  18.722  0.00  0.00     0.019 A 
ATOM      9  C   UNL d   1     -40.423  15.210  17.998  0.00  0.00     0.022 A 
ATOM     10  C   UNL d   1     -40.187  14.831  17.306  0.00  0.00     0.120 A 
ATOM     11  C   UNL d   1     -41.038  15.752  17.989  0.00  0.00     0.003 A 
ATOM     12  N   UNL d   1     -40.562  14.988  16.594  0.00  0.00    -0.241 NA
ATOM     13  C   UNL d   1     -39.556  14.277  17.327  0.00  0.00     0.213 A 
ATOM     14  C   UNL d   1     -41.193  15.542  16.573  0.00  0.00     0.099 A 
ATOM     15  C   UNL d   1     -41.429  15.922  17.265  0.00  0.00     0.021 A 
ATOM     16  C   UNL d   1     -39.171  14.111  18.047  0.00  0.00     0.044 A 
ATOM     17  O   UNL d   1     -39.320  13.897  16.635  0.00  0.00    -0.285 OA
ATOM     18  C   UNL d   1     -39.407  14.491  18.740  0.00  0.00     0.005 A 
ENDBRANCH   7   8
ENDBRANCH   2   7
BRANCH   1  19
ATOM     19  C   UNL d   1     -39.072  14.436  22.336  0.00  0.00     0.064 A 
ATOM     20  C   UNL d   1     -38.811  14.932  22.928  0.00  0.00     0.018 A 
ATOM     21  C   UNL d   1     -38.381  14.597  23.582  0.00  0.00     0.002 A 
ATOM     22  C   UNL d   1     -38.232  13.811  23.620  0.00  0.00     0.000 A 
ATOM     23  C   UNL d   1     -38.503  13.313  23.010  0.00  0.00     0.002 A 
ATOM     24  C   UNL d   1     -38.919  13.626  22.374  0.00  0.00     0.018 A 
ENDBRANCH   1  19
TORSDOF 3
ENDMDL
MODEL 4
REMARK VINA RESULT:      -6.0      8.698     10.052
REMARK  3 active torsions:
REMARK  status: ('A' for Active; 'I' for Inactive)
REMARK    1  A    between atoms: C_11  and  N_1 
REMARK    2  A    between atoms: C_3  and  C_6 
REMARK    3  A    between atoms: C_6  and  N_5 
ROOT
ATOM      1  N   UNL d   1     -40.354  15.526  18.764  0.00  0.00    -0.301 N 
ATOM      2  N   UNL d   1     -40.034  15.533  20.394  0.00  0.00    -0.300 N 
ATOM      3  C   UNL d   1     -39.674  15.920  19.061  0.00  0.00     0.100 A 
ATOM      4  C   UNL d   1     -40.860  15.143  19.291  0.00  0.00     0.100 A 
ATOM      5  C   UNL d   1     -40.713  15.139  20.097  0.00  0.00     0.100 A 
ATOM      6  C   UNL d   1     -39.517  15.922  19.880  0.00  0.00     0.100 A 
ENDROOT
BRANCH   2   7
ATOM      7  C   UNL d   1     -39.876  15.535  21.213  0.00  0.00     0.080 C 
BRANCH   7   8
ATOM      8  C   UNL d   1     -39.433  14.927  21.550  0.00  0.00     0.019 A 
ATOM      9  C   UNL d   1     -39.027  15.057  22.273  0.00  0.00     0.022 A 
ATOM     10  C   UNL d   1     -38.584  14.449  22.610  0.00  0.00     0.120 A 
ATOM     11  C   UNL d   1     -39.076  15.789  22.637  0.00  0.00     0.003 A 
ATOM     12  N   UNL d   1     -38.183  14.565  23.316  0.00  0.00    -0.241 NA
ATOM     13  C   UNL d   1     -38.540  13.702  22.229  0.00  0.00     0.213 A 
ATOM     14  C   UNL d   1     -38.227  15.312  23.698  0.00  0.00     0.099 A 
ATOM     15  C   UNL d   1     -38.670  15.920  23.361  0.00  0.00     0.021 A 
ATOM     16  C   UNL d   1     -38.944  13.577  21.511  0.00  0.00     0.044 A 
ATOM     17  O   UNL d   1     -38.097  13.095  22.565  0.00  0.00    -0.285 OA
ATOM     18  C   UNL d   1     -39.388  14.184  21.174  0.00  0.00     0.005 A 
ENDBRANCH   7   8
ENDBRANCH   2   7
BRANCH   1  19
ATOM     19  C   UNL d   1     -40.322  15.645  17.938  0.00  0.00     0.064 A 
ATOM     20  C   UNL d   1     -39.701  15.734  17.417  0.00  0.00     0.018 A 
ATOM     21  C   UNL d   1     -39.873  15.848  16.592  0.00  0.00     0.002 A 
ATOM     22  C   UNL d   1     -40.628  15.869  16.326  0.00  0.00     0.000 A 
ATOM     23  C   UNL d   1     -41.255  15.778  16.865  0.00  0.00     0.002 A 
ATOM     24  C   UNL d   1     -41.100  15.667  17.665  0.00  0.00     0.018 A 
ENDBRANCH   1  19
TORSDOF 3
ENDMDL
MODEL 5
REMARK VINA RESULT:      -5.9      8.392     10.398
REMARK  3 active torsions:
REMARK  status: ('A' for Active; 'I' for Inactive)
REMARK    1  A    between atoms: C_11  and  N_1 
REMARK    2  A    between atoms: C_3  and  C_6 
REMARK    3  A    between atoms: C_6  and  N_5 
ROOT
ATOM      1  N   UNL d   1     -38.630  14.163  17.295  0.00  0.00    -0.301 N 
ATOM      2  N   UNL d   1     -38.839  14.186  18.943  0.00  0.00    -0.300 N 
ATOM      3  C   UNL d   1     -38.277  14.768  17.759  0.00  0.00     0.100 A 
ATOM      4  C   UNL d   1     -39.081  13.581  17.668  0.00  0.00     0.100 A 
ATOM      5  C   UNL d   1     -39.192  13.581  18.479  0.00  0.00     0.100 A 
ATOM      6  C   UNL d   1     -38.385  14.776  18.585  0.00  0.00     0.100 A 
ENDROOT
BRANCH   2   7
ATOM      7  C   UNL d   1     -38.947  14.195  19.770  0.00  0.00     0.080 C 
BRANCH   7   8
ATOM      8  C   UNL d   1     -39.568  14.625  20.102  0.00  0.00     0.019 A 
ATOM      9  C   UNL d   1     -39.465  15.001  20.845  0.00  0.00     0.022 A 
ATOM     10  C   UNL d   1     -40.085  15.430  21.177  0.00  0.00     0.120 A 
ATOM     11  C   UNL d   1     -38.746  14.937  21.233  0.00  0.00     0.003 A 
ATOM     12  N   UNL d   1     -39.996  15.802  21.902  0.00  0.00    -0.241 NA
ATOM     13  C   UNL d   1     -40.817  15.489  20.770  0.00  0.00     0.213 A 
ATOM     14  C   UNL d   1     -39.263  15.743  22.309  0.00  0.00     0.099 A 
ATOM     15  C   UNL d   1     -38.643  15.314  21.977  0.00  0.00     0.021 A 
ATOM     16  C   UNL d   1     -40.916  15.114  20.032  0.00  0.00     0.044 A 
ATOM     17  O   UNL d   1     -41.438  15.919  21.102  0.00  0.00    -0.285 OA
ATOM     18  C   UNL d   1     -40.296  14.685  19.701  0.00  0.00     0.005 A 
ENDBRANCH   7   8
ENDBRANCH   2   7
BRANCH   1  19
ATOM     19  C   UNL d   1     -38.402  14.338  16.511  0.00  0.00     0.064 A 
ATOM     20  C   UNL d   1     -38.285  15.042  16.115  0.00  0.00     0.018 A 
ATOM     21  C   UNL d   1     -38.048  15.016  15.298  0.00  0.00     0.002 A 
ATOM     22  C   UNL d   1     -37.940  14.318  14.921  0.00  0.00     0.000 A 
ATOM     23  C   UNL d   1     -38.061  13.606  15.334  0.00  0.00     0.002 A 
ATOM     24  C   UNL d   1     -38.290  13.619  16.123  0.00  0.00     0.018 A 
ENDBRANCH   1  19
TORSDOF 3
ENDMDL
