MODEL 1
REMARK VINA RESULT:      13.2      0.000      0.000
REMARK  4 active torsions:
REMARK  status: ('A' for Active; 'I' for Inactive)
REMARK    1  A    between atoms: C_2  and  C_1 
REMARK    2  A    between atoms: O_6  and  C_3 
REMARK    3  A    between atoms: C_4  and  C_9 
REMARK    4  A    between atoms: C_9  and  O_6 
ROOT
ATOM      1  C   UNL d   1      44.913 -15.815  37.011  0.00  0.00     0.000 A 
ATOM      2  C   UNL d   1      44.289 -15.273  36.909  0.00  0.00     0.091 A 
ATOM      3  C   UNL d   1      45.706 -15.532  36.989  0.00  0.00     0.004 A 
ATOM      4  C   UNL d   1      44.442 -14.471  36.787  0.00  0.00     0.024 A 
ATOM      5  C   UNL d   1      45.850 -14.729  36.867  0.00  0.00     0.035 A 
ATOM      6  C   UNL d   1      45.221 -14.205  36.767  0.00  0.00     0.009 A 
ATOM      7 BR   UNL d   1      46.643 -14.444  36.844  0.00  0.00    -0.049 Br
ENDROOT
BRANCH   2   8
ATOM      8  O   UNL d   1      43.506 -15.558  36.931  0.00  0.00    -0.320 OA
BRANCH   8   9
ATOM      9  C   UNL d   1      42.870 -15.096  36.626  0.00  0.00     0.246 C 
BRANCH   9  10
ATOM     10  C   UNL d   1      42.090 -15.263  36.839  0.00  0.00     0.217 C 
ATOM     11  O   UNL d   1      41.628 -15.743  36.341  0.00  0.00    -0.645 OA
ATOM     12  O   UNL d   1      41.792 -14.949  37.541  0.00  0.00    -0.645 OA
ENDBRANCH   9  10
ENDBRANCH   8   9
ENDBRANCH   2   8
BRANCH   1  13
ATOM     13  C   UNL d   1      44.760 -16.614  37.132  0.00  0.00     0.021 C 
ATOM     14  C   UNL d   1      44.606 -17.417  37.253  0.00  0.00     0.004 C 
ATOM     15  C   UNL d   1      44.894 -16.516  37.946  0.00  0.00     0.004 C 
ATOM     16  C   UNL d   1      44.629 -16.710  36.331  0.00  0.00     0.004 C 
ENDBRANCH   1  13
TORSDOF 4
ENDMDL
MODEL 2
REMARK VINA RESULT:      14.1      7.333      8.092
REMARK  4 active torsions:
REMARK  status: ('A' for Active; 'I' for Inactive)
REMARK    1  A    between atoms: C_2  and  C_1 
REMARK    2  A    between atoms: O_6  and  C_3 
REMARK    3  A    between atoms: C_4  and  C_9 
REMARK    4  A    between atoms: C_9  and  O_6 
ROOT
ATOM      1  C   UNL d   1      45.003 -14.009  44.457  0.00  0.00     0.000 A 
ATOM      2  C   UNL d   1      45.596 -14.527  44.728  0.00  0.00     0.091 A 
ATOM      3  C   UNL d   1      45.170 -13.184  44.417  0.00  0.00     0.004 A 
ATOM      4  C   UNL d   1      46.336 -14.240  44.954  0.00  0.00     0.024 A 
ATOM      5  C   UNL d   1      45.912 -12.907  44.646  0.00  0.00     0.035 A 
ATOM      6  C   UNL d   1      46.489 -13.432  44.912  0.00  0.00     0.009 A 
ATOM      7 BR   UNL d   1      46.081 -12.081  44.607  0.00  0.00    -0.049 Br
ENDROOT
BRANCH   2   8
ATOM      8  O   UNL d   1      45.426 -15.343  44.765  0.00  0.00    -0.320 OA
BRANCH   8   9
ATOM      9  C   UNL d   1      46.047 -15.913  44.756  0.00  0.00     0.246 C 
BRANCH   9  10
ATOM     10  C   UNL d   1      45.890 -16.700  44.562  0.00  0.00     0.217 C 
ATOM     11  O   UNL d   1      46.365 -17.080  43.994  0.00  0.00    -0.645 OA
ATOM     12  O   UNL d   1      45.267 -17.087  44.938  0.00  0.00    -0.645 OA
ENDBRANCH   9  10
ENDBRANCH   8   9
ENDBRANCH   2   8
BRANCH   1  13
ATOM     13  C   UNL d   1      44.266 -14.295  44.231  0.00  0.00     0.021 C 
ATOM     14  C   UNL d   1      43.524 -14.583  44.004  0.00  0.00     0.004 C 
ATOM     15  C   UNL d   1      44.201 -14.699  44.955  0.00  0.00     0.004 C 
ATOM     16  C   UNL d   1      44.330 -13.899  43.520  0.00  0.00     0.004 C 
ENDBRANCH   1  13
TORSDOF 4
ENDMDL
MODEL 3
REMARK VINA RESULT:      15.0      6.581      7.677
REMARK  4 active torsions:
REMARK  status: ('A' for Active; 'I' for Inactive)
REMARK    1  A    between atoms: C_2  and  C_1 
REMARK    2  A    between atoms: O_6  and  C_3 
REMARK    3  A    between atoms: C_4  and  C_9 
REMARK    4  A    between atoms: C_9  and  O_6 
ROOT
ATOM      1  C   UNL d   1      46.252 -18.779  43.953  0.00  0.00     0.000 A 
ATOM      2  C   UNL d   1      46.402 -18.633  43.146  0.00  0.00     0.091 A 
ATOM      3  C   UNL d   1      46.076 -18.128  44.458  0.00  0.00     0.004 A 
ATOM      4  C   UNL d   1      46.378 -17.866  42.845  0.00  0.00     0.024 A 
ATOM      5  C   UNL d   1      46.054 -17.364  44.147  0.00  0.00     0.035 A 
ATOM      6  C   UNL d   1      46.205 -17.237  43.347  0.00  0.00     0.009 A 
ATOM      7 BR   UNL d   1      45.878 -16.711  44.652  0.00  0.00    -0.049 Br
ENDROOT
BRANCH   2   8
ATOM      8  O   UNL d   1      46.576 -19.281  42.650  0.00  0.00    -0.320 OA
BRANCH   8   9
ATOM      9  C   UNL d   1      46.647 -19.178  41.817  0.00  0.00     0.246 C 
BRANCH   9  10
ATOM     10  C   UNL d   1      46.219 -19.657  41.298  0.00  0.00     0.217 C 
ATOM     11  O   UNL d   1      45.415 -19.492  41.162  0.00  0.00    -0.645 OA
ATOM     12  O   UNL d   1      46.603 -20.286  40.929  0.00  0.00    -0.645 OA
ENDBRANCH   9  10
ENDBRANCH   8   9
ENDBRANCH   2   8
BRANCH   1  13
ATOM     13  C   UNL d   1      46.276 -19.544  44.254  0.00  0.00     0.021 C 
ATOM     14  C   UNL d   1      46.300 -20.313  44.556  0.00  0.00     0.004 C 
ATOM     15  C   UNL d   1      45.915 -19.280  44.954  0.00  0.00     0.004 C 
ATOM     16  C   UNL d   1      46.631 -19.803  43.565  0.00  0.00     0.004 C 
ENDBRANCH   1  13
TORSDOF 4
ENDMDL
MODEL 4
REMARK VINA RESULT:      15.4      1.880      2.971
REMARK  4 active torsions:
REMARK  status: ('A' for Active; 'I' for Inactive)
REMARK    1  A    between atoms: C_2  and  C_1 
REMARK    2  A    between atoms: O_6  and  C_3 
REMARK    3  A    between atoms: C_4  and  C_9 
REMARK    4  A    between atoms: C_9  and  O_6 
ROOT
ATOM      1  C   UNL d   1      43.794 -15.953  37.205  0.00  0.00     0.000 A 
ATOM      2  C   UNL d   1      44.178 -15.358  36.767  0.00  0.00     0.091 A 
ATOM      3  C   UNL d   1      42.952 -15.984  37.197  0.00  0.00     0.004 A 
ATOM      4  C   UNL d   1      43.744 -14.807  36.331  0.00  0.00     0.024 A 
ATOM      5  C   UNL d   1      42.526 -15.430  36.759  0.00  0.00     0.035 A 
ATOM      6  C   UNL d   1      42.921 -14.847  36.330  0.00  0.00     0.009 A 
ATOM      7 BR   UNL d   1      41.683 -15.460  36.750  0.00  0.00    -0.049 Br
ENDROOT
BRANCH   2   8
ATOM      8  O   UNL d   1      45.012 -15.330  36.777  0.00  0.00    -0.320 OA
BRANCH   8   9
ATOM      9  C   UNL d   1      45.418 -14.592  36.790  0.00  0.00     0.246 C 
BRANCH   9  10
ATOM     10  C   UNL d   1      46.240 -14.565  36.721  0.00  0.00     0.217 C 
ATOM     11  O   UNL d   1      46.643 -13.869  36.935  0.00  0.00    -0.645 OA
ATOM     12  O   UNL d   1      46.639 -15.230  36.442  0.00  0.00    -0.645 OA
ENDBRANCH   9  10
ENDBRANCH   8   9
ENDBRANCH   2   8
BRANCH   1  13
ATOM     13  C   UNL d   1      44.226 -16.501  37.639  0.00  0.00     0.021 C 
ATOM     14  C   UNL d   1      44.661 -17.052  38.075  0.00  0.00     0.004 C 
ATOM     15  C   UNL d   1      44.365 -16.939  36.946  0.00  0.00     0.004 C 
ATOM     16  C   UNL d   1      44.089 -16.070  38.319  0.00  0.00     0.004 C 
ENDBRANCH   1  13
TORSDOF 4
ENDMDL
