MODEL 1
REMARK VINA RESULT:      57.7      0.000      0.000
REMARK  4 active torsions:
REMARK  status: ('A' for Active; 'I' for Inactive)
REMARK    1  A    between atoms: C_2  and  C_1 
REMARK    2  A    between atoms: O_18  and  C_16 
REMARK    3  A    between atoms: C_17  and  C_19 
REMARK    4  A    between atoms: C_19  and  O_18 
ROOT
ATOM      1  C   UNL d   1     -57.854 -99.167 -45.131  0.00  0.00     0.030 A 
ATOM      2  C   UNL d   1     -58.549 -99.031 -44.706  0.00  0.00     0.027 A 
ATOM      3  C   UNL d   1     -58.585 -99.138 -46.352  0.00  0.00     0.300 A 
ATOM      4  C   UNL d   1     -57.878 -99.220 -45.954  0.00  0.00     0.071 A 
ATOM      5  C   UNL d   1     -59.265 -98.948 -45.110  0.00  0.00     0.103 A 
ATOM      6  O   UNL d   1     -59.288 -99.001 -45.933  0.00  0.00    -0.273 OA
ATOM      7  C   UNL d   1     -58.531 -98.976 -43.874  0.00  0.00     0.027 A 
ATOM      8  O   UNL d   1     -58.604 -99.191 -47.172  0.00  0.00    -0.259 OA
ATOM      9  C   UNL d   1     -59.959 -98.812 -44.686  0.00  0.00     0.027 A 
ATOM     10  C   UNL d   1     -59.222 -98.842 -43.467  0.00  0.00     0.100 A 
ATOM     11  C   UNL d   1     -59.940 -98.759 -43.866  0.00  0.00     0.027 A 
ENDROOT
BRANCH   1  12
ATOM     12  C   UNL d   1     -57.133 -99.250 -44.717  0.00  0.00     0.100 A 
ATOM     13  O   UNL d   1     -56.848 -98.755 -44.126  0.00  0.00    -0.307 OA
ATOM     14  C   UNL d   1     -56.124 -99.049 -43.882  0.00  0.00     0.100 A 
ATOM     15  C   UNL d   1     -55.587 -98.789 -43.313  0.00  0.00     0.025 A 
ATOM     16  C   UNL d   1     -55.951 -99.729 -44.320  0.00  0.00     0.025 A 
ATOM     17  C   UNL d   1     -54.886 -99.207 -43.186  0.00  0.00     0.002 A 
ATOM     18  C   UNL d   1     -54.723 -99.885 -43.628  0.00  0.00     0.000 A 
ATOM     19  C   UNL d   1     -55.262-100.140 -44.195  0.00  0.00     0.002 A 
ATOM     20  C   UNL d   1     -56.584 -99.850 -44.840  0.00  0.00     0.027 A 
ENDBRANCH   1  12
BRANCH  10  21
ATOM     21  O   UNL d   1     -59.202 -98.788 -42.639  0.00  0.00    -0.302 OA
BRANCH  21  22
ATOM     22  C   UNL d   1     -59.881 -98.919 -42.208  0.00  0.00     0.165 C 
BRANCH  22  23
ATOM     23  C   UNL d   1     -59.874 -99.439 -41.574  0.00  0.00     0.220 C 
ATOM     24  O   UNL d   1     -59.865-100.252 -41.712  0.00  0.00    -0.284 OA
ATOM     25  C   UNL d   1     -59.877 -99.156 -40.799  0.00  0.00     0.048 C 
ENDBRANCH  22  23
ENDBRANCH  21  22
ENDBRANCH  10  21
TORSDOF 4
ENDMDL
