MODEL 1
REMARK VINA RESULT:     -10.1      0.000      0.000
REMARK  1 active torsions:
REMARK  status: ('A' for Active; 'I' for Inactive)
REMARK    1  A    between atoms: C_14  and  C_5 
ROOT
ATOM      1  C   UNL d   1     -48.595  14.122  22.745  0.00  0.00     0.111 A 
ATOM      2  C   UNL d   1     -48.127  12.811  23.118  0.00  0.00     0.062 A 
ATOM      3  C   UNL d   1     -47.750  14.378  22.755  0.00  0.00     0.213 A 
ATOM      4  C   UNL d   1     -47.368  13.059  23.122  0.00  0.00     0.101 A 
ATOM      5  C   UNL d   1     -48.743  13.344  22.929  0.00  0.00     0.018 A 
ATOM      6  O   UNL d   1     -47.180  13.842  22.940  0.00  0.00    -0.288 OA
ATOM      7  C   UNL d   1     -48.321  12.021  23.301  0.00  0.00     0.194 A 
ATOM      8  C   UNL d   1     -49.203  14.648  22.559  0.00  0.00     0.105 C 
ATOM      9  N   UNL d   1     -49.830  15.162  22.374  0.00  0.00    -0.191 NA
ATOM     10  C   UNL d   1     -46.761  12.534  23.308  0.00  0.00     0.002 A 
ATOM     11  C   UNL d   1     -46.908  11.755  23.492  0.00  0.00     0.042 A 
ATOM     12  C   UNL d   1     -47.745  11.494  23.485  0.00  0.00     0.019 A 
ATOM     13  O   UNL d   1     -49.139  11.757  23.296  0.00  0.00    -0.287 OA
ATOM     14  N   UNL d   1     -47.513  15.181  22.572  0.00  0.00    -0.120 N 
ATOM     15  C   UNL d   1     -46.094  11.606  23.601  0.00  0.00     0.009 C 
ATOM     16  C   UNL d   1     -46.897  10.964  23.693  0.00  0.00     0.009 C 
ENDROOT
BRANCH   5  17
ATOM     17  C   UNL d   1     -49.505  13.091  22.926  0.00  0.00     0.001 A 
ATOM     18  C   UNL d   1     -49.930  13.136  23.607  0.00  0.00     0.000 A 
ATOM     19  C   UNL d   1     -50.727  12.877  23.622  0.00  0.00     0.000 A 
ATOM     20  C   UNL d   1     -51.064  12.584  22.956  0.00  0.00     0.000 A 
ATOM     21  C   UNL d   1     -50.621  12.539  22.253  0.00  0.00     0.000 A 
ATOM     22  C   UNL d   1     -49.833  12.796  22.242  0.00  0.00     0.000 A 
ENDBRANCH   5  17
TORSDOF 1
ENDMDL
MODEL 2
REMARK VINA RESULT:     -10.0      1.610      3.660
REMARK  1 active torsions:
REMARK  status: ('A' for Active; 'I' for Inactive)
REMARK    1  A    between atoms: C_14  and  C_5 
ROOT
ATOM      1  C   UNL d   1     -48.991  12.325  23.174  0.00  0.00     0.111 A 
ATOM      2  C   UNL d   1     -49.151  13.757  23.187  0.00  0.00     0.062 A 
ATOM      3  C   UNL d   1     -49.845  12.272  23.395  0.00  0.00     0.213 A 
ATOM      4  C   UNL d   1     -49.922  13.691  23.387  0.00  0.00     0.101 A 
ATOM      5  C   UNL d   1     -48.684  13.072  23.081  0.00  0.00     0.018 A 
ATOM      6  O   UNL d   1     -50.267  12.949  23.490  0.00  0.00    -0.288 OA
ATOM      7  C   UNL d   1     -48.798  14.505  23.082  0.00  0.00     0.194 A 
ATOM      8  C   UNL d   1     -48.530  11.649  23.069  0.00  0.00     0.105 C 
ATOM      9  N   UNL d   1     -48.049  10.980  22.959  0.00  0.00    -0.191 NA
ATOM     10  C   UNL d   1     -50.382  14.367  23.492  0.00  0.00     0.002 A 
ATOM     11  C   UNL d   1     -50.076  15.115  23.398  0.00  0.00     0.042 A 
ATOM     12  C   UNL d   1     -49.228  15.175  23.179  0.00  0.00     0.019 A 
ATOM     13  O   UNL d   1     -47.968  14.573  22.868  0.00  0.00    -0.287 OA
ATOM     14  N   UNL d   1     -50.242  11.521  23.511  0.00  0.00    -0.120 N 
ATOM     15  C   UNL d   1     -50.813  15.461  23.581  0.00  0.00     0.009 C 
ATOM     16  C   UNL d   1     -49.915  15.912  23.341  0.00  0.00     0.009 C 
ENDROOT
BRANCH   5  17
ATOM     17  C   UNL d   1     -47.909  13.142  22.880  0.00  0.00     0.001 A 
ATOM     18  C   UNL d   1     -47.360  13.172  23.466  0.00  0.00     0.000 A 
ATOM     19  C   UNL d   1     -46.547  13.244  23.276  0.00  0.00     0.000 A 
ATOM     20  C   UNL d   1     -46.319  13.284  22.508  0.00  0.00     0.000 A 
ATOM     21  C   UNL d   1     -46.891  13.253  21.904  0.00  0.00     0.000 A 
ATOM     22  C   UNL d   1     -47.694  13.181  22.096  0.00  0.00     0.000 A 
ENDBRANCH   5  17
TORSDOF 1
ENDMDL
MODEL 3
REMARK VINA RESULT:      -9.8      1.557      2.291
REMARK  1 active torsions:
REMARK  status: ('A' for Active; 'I' for Inactive)
REMARK    1  A    between atoms: C_14  and  C_5 
ROOT
ATOM      1  C   UNL d   1     -49.328  12.457  23.277  0.00  0.00     0.111 A 
ATOM      2  C   UNL d   1     -48.228  13.346  22.999  0.00  0.00     0.062 A 
ATOM      3  C   UNL d   1     -48.724  11.838  23.457  0.00  0.00     0.213 A 
ATOM      4  C   UNL d   1     -47.695  12.774  23.165  0.00  0.00     0.101 A 
ATOM      5  C   UNL d   1     -49.047  13.187  23.055  0.00  0.00     0.018 A 
ATOM      6  O   UNL d   1     -47.944  12.022  23.394  0.00  0.00    -0.288 OA
ATOM      7  C   UNL d   1     -47.982  14.108  22.767  0.00  0.00     0.194 A 
ATOM      8  C   UNL d   1     -50.136  12.300  23.332  0.00  0.00     0.105 C 
ATOM      9  N   UNL d   1     -50.954  12.162  23.381  0.00  0.00    -0.191 NA
ATOM     10  C   UNL d   1     -46.888  12.931  23.110  0.00  0.00     0.002 A 
ATOM     11  C   UNL d   1     -46.606  13.661  22.888  0.00  0.00     0.042 A 
ATOM     12  C   UNL d   1     -47.201  14.281  22.708  0.00  0.00     0.019 A 
ATOM     13  O   UNL d   1     -48.557  14.720  22.589  0.00  0.00    -0.287 OA
ATOM     14  N   UNL d   1     -48.940  11.044  23.698  0.00  0.00    -0.120 N 
ATOM     15  C   UNL d   1     -45.817  13.400  22.959  0.00  0.00     0.009 C 
ATOM     16  C   UNL d   1     -46.181  14.327  22.684  0.00  0.00     0.009 C 
ENDROOT
BRANCH   5  17
ATOM     17  C   UNL d   1     -49.580  13.764  22.886  0.00  0.00     0.001 A 
ATOM     18  C   UNL d   1     -49.819  14.253  23.477  0.00  0.00     0.000 A 
ATOM     19  C   UNL d   1     -50.375  14.861  23.320  0.00  0.00     0.000 A 
ATOM     20  C   UNL d   1     -50.667  14.952  22.579  0.00  0.00     0.000 A 
ATOM     21  C   UNL d   1     -50.416  14.443  21.969  0.00  0.00     0.000 A 
ATOM     22  C   UNL d   1     -49.867  13.844  22.129  0.00  0.00     0.000 A 
ENDBRANCH   5  17
TORSDOF 1
ENDMDL
MODEL 4
REMARK VINA RESULT:      -9.7      1.087      2.813
REMARK  1 active torsions:
REMARK  status: ('A' for Active; 'I' for Inactive)
REMARK    1  A    between atoms: C_14  and  C_5 
ROOT
ATOM      1  C   UNL d   1     -48.539  14.559  22.777  0.00  0.00     0.111 A 
ATOM      2  C   UNL d   1     -49.030  13.242  23.096  0.00  0.00     0.062 A 
ATOM      3  C   UNL d   1     -49.366  14.847  22.896  0.00  0.00     0.213 A 
ATOM      4  C   UNL d   1     -49.773  13.520  23.199  0.00  0.00     0.101 A 
ATOM      5  C   UNL d   1     -48.412  13.763  22.885  0.00  0.00     0.018 A 
ATOM      6  O   UNL d   1     -49.939  14.322  23.099  0.00  0.00    -0.288 OA
ATOM      7  C   UNL d   1     -48.858  12.433  23.197  0.00  0.00     0.194 A 
ATOM      8  C   UNL d   1     -47.928  15.073  22.569  0.00  0.00     0.105 C 
ATOM      9  N   UNL d   1     -47.299  15.574  22.359  0.00  0.00    -0.191 NA
ATOM     10  C   UNL d   1     -50.383  13.007  23.408  0.00  0.00     0.002 A 
ATOM     11  C   UNL d   1     -50.256  12.210  23.515  0.00  0.00     0.042 A 
ATOM     12  C   UNL d   1     -49.437  11.916  23.400  0.00  0.00     0.019 A 
ATOM     13  O   UNL d   1     -48.059  12.137  23.085  0.00  0.00    -0.287 OA
ATOM     14  N   UNL d   1     -49.580  15.672  22.801  0.00  0.00    -0.120 N 
ATOM     15  C   UNL d   1     -51.061  12.087  23.698  0.00  0.00     0.009 C 
ATOM     16  C   UNL d   1     -50.285  11.407  23.655  0.00  0.00     0.009 C 
ENDROOT
BRANCH   5  17
ATOM     17  C   UNL d   1     -47.667  13.480  22.782  0.00  0.00     0.001 A 
ATOM     18  C   UNL d   1     -47.165  13.479  23.409  0.00  0.00     0.000 A 
ATOM     19  C   UNL d   1     -46.384  13.187  23.321  0.00  0.00     0.000 A 
ATOM     20  C   UNL d   1     -46.139  12.910  22.609  0.00  0.00     0.000 A 
ATOM     21  C   UNL d   1     -46.663  12.914  21.961  0.00  0.00     0.000 A 
ATOM     22  C   UNL d   1     -47.434  13.203  22.053  0.00  0.00     0.000 A 
ENDBRANCH   5  17
TORSDOF 1
ENDMDL
MODEL 5
REMARK VINA RESULT:      -9.2      1.243      2.957
REMARK  1 active torsions:
REMARK  status: ('A' for Active; 'I' for Inactive)
REMARK    1  A    between atoms: C_14  and  C_5 
ROOT
ATOM      1  C   UNL d   1     -47.422  13.836  22.755  0.00  0.00     0.111 A 
ATOM      2  C   UNL d   1     -48.840  13.943  22.989  0.00  0.00     0.062 A 
ATOM      3  C   UNL d   1     -47.407  14.719  22.713  0.00  0.00     0.213 A 
ATOM      4  C   UNL d   1     -48.809  14.741  22.948  0.00  0.00     0.101 A 
ATOM      5  C   UNL d   1     -48.145  13.490  22.892  0.00  0.00     0.018 A 
ATOM      6  O   UNL d   1     -48.093  15.127  22.811  0.00  0.00    -0.288 OA
ATOM      7  C   UNL d   1     -49.561  13.549  23.128  0.00  0.00     0.194 A 
ATOM      8  C   UNL d   1     -46.736  13.389  22.659  0.00  0.00     0.105 C 
ATOM      9  N   UNL d   1     -46.056  12.919  22.565  0.00  0.00    -0.191 NA
ATOM     10  C   UNL d   1     -49.494  15.188  23.044  0.00  0.00     0.002 A 
ATOM     11  C   UNL d   1     -50.218  14.842  23.181  0.00  0.00     0.042 A 
ATOM     12  C   UNL d   1     -50.240  13.966  23.224  0.00  0.00     0.019 A 
ATOM     13  O   UNL d   1     -49.592  12.691  23.170  0.00  0.00    -0.287 OA
ATOM     14  N   UNL d   1     -46.685  15.158  22.572  0.00  0.00    -0.120 N 
ATOM     15  C   UNL d   1     -50.591  15.588  23.212  0.00  0.00     0.009 C 
ATOM     16  C   UNL d   1     -50.997  14.644  23.321  0.00  0.00     0.009 C 
ENDROOT
BRANCH   5  17
ATOM     17  C   UNL d   1     -48.180  12.688  22.933  0.00  0.00     0.001 A 
ATOM     18  C   UNL d   1     -48.030  12.331  23.637  0.00  0.00     0.000 A 
ATOM     19  C   UNL d   1     -48.062  11.495  23.698  0.00  0.00     0.000 A 
ATOM     20  C   UNL d   1     -48.243  11.054  23.053  0.00  0.00     0.000 A 
ATOM     21  C   UNL d   1     -48.397  11.429  22.325  0.00  0.00     0.000 A 
ATOM     22  C   UNL d   1     -48.364  12.255  22.269  0.00  0.00     0.000 A 
ENDBRANCH   5  17
TORSDOF 1
ENDMDL
MODEL 6
REMARK VINA RESULT:      -8.6      1.589      2.619
REMARK  1 active torsions:
REMARK  status: ('A' for Active; 'I' for Inactive)
REMARK    1  A    between atoms: C_14  and  C_5 
ROOT
ATOM      1  C   UNL d   1     -47.624  12.053  23.334  0.00  0.00     0.111 A 
ATOM      2  C   UNL d   1     -47.966  13.388  22.912  0.00  0.00     0.062 A 
ATOM      3  C   UNL d   1     -46.788  12.335  23.394  0.00  0.00     0.213 A 
ATOM      4  C   UNL d   1     -47.205  13.626  22.972  0.00  0.00     0.101 A 
ATOM      5  C   UNL d   1     -48.176  12.600  23.094  0.00  0.00     0.018 A 
ATOM      6  O   UNL d   1     -46.618  13.099  23.213  0.00  0.00    -0.288 OA
ATOM      7  C   UNL d   1     -48.563  13.917  22.670  0.00  0.00     0.194 A 
ATOM      8  C   UNL d   1     -47.831  11.275  23.514  0.00  0.00     0.105 C 
ATOM      9  N   UNL d   1     -48.060  10.496  23.689  0.00  0.00    -0.191 NA
ATOM     10  C   UNL d   1     -46.998  14.403  22.793  0.00  0.00     0.002 A 
ATOM     11  C   UNL d   1     -47.550  14.951  22.553  0.00  0.00     0.042 A 
ATOM     12  C   UNL d   1     -48.382  14.679  22.491  0.00  0.00     0.019 A 
ATOM     13  O   UNL d   1     -49.380  13.659  22.607  0.00  0.00    -0.287 OA
ATOM     14  N   UNL d   1     -46.149  11.819  23.640  0.00  0.00    -0.120 N 
ATOM     15  C   UNL d   1     -46.965  15.542  22.487  0.00  0.00     0.009 C 
ATOM     16  C   UNL d   1     -47.980  15.598  22.305  0.00  0.00     0.009 C 
ENDROOT
BRANCH   5  17
ATOM     17  C   UNL d   1     -48.942  12.364  23.033  0.00  0.00     0.001 A 
ATOM     18  C   UNL d   1     -49.403  12.377  23.691  0.00  0.00     0.000 A 
ATOM     19  C   UNL d   1     -50.204  12.135  23.646  0.00  0.00     0.000 A 
ATOM     20  C   UNL d   1     -50.509  11.891  22.945  0.00  0.00     0.000 A 
ATOM     21  C   UNL d   1     -50.027  11.880  22.266  0.00  0.00     0.000 A 
ATOM     22  C   UNL d   1     -49.236  12.120  22.315  0.00  0.00     0.000 A 
ENDBRANCH   5  17
TORSDOF 1
ENDMDL
MODEL 7
REMARK VINA RESULT:      -7.1      8.918     10.237
REMARK  1 active torsions:
REMARK  status: ('A' for Active; 'I' for Inactive)
REMARK    1  A    between atoms: C_14  and  C_5 
ROOT
ATOM      1  C   UNL d   1     -39.016  14.036  19.254  0.00  0.00     0.111 A 
ATOM      2  C   UNL d   1     -39.979  14.866  18.575  0.00  0.00     0.062 A 
ATOM      3  C   UNL d   1     -38.824  13.690  18.464  0.00  0.00     0.213 A 
ATOM      4  C   UNL d   1     -39.792  14.542  17.869  0.00  0.00     0.101 A 
ATOM      5  C   UNL d   1     -39.590  14.612  19.270  0.00  0.00     0.018 A 
ATOM      6  O   UNL d   1     -39.216  13.955  17.815  0.00  0.00    -0.288 OA
ATOM      7  C   UNL d   1     -40.561  15.459  18.635  0.00  0.00     0.194 A 
ATOM      8  C   UNL d   1     -38.632  13.785  19.940  0.00  0.00     0.105 C 
ATOM      9  N   UNL d   1     -38.256  13.547  20.643  0.00  0.00    -0.191 NA
ATOM     10  C   UNL d   1     -40.176  14.792  17.184  0.00  0.00     0.002 A 
ATOM     11  C   UNL d   1     -40.750  15.368  17.199  0.00  0.00     0.042 A 
ATOM     12  C   UNL d   1     -40.947  15.717  17.980  0.00  0.00     0.019 A 
ATOM     13  O   UNL d   1     -40.760  15.805  19.395  0.00  0.00    -0.287 OA
ATOM     14  N   UNL d   1     -38.231  13.078  18.365  0.00  0.00    -0.120 N 
ATOM     15  C   UNL d   1     -40.856  15.313  16.373  0.00  0.00     0.009 C 
ATOM     16  C   UNL d   1     -41.332  15.922  17.057  0.00  0.00     0.009 C 
ENDROOT
BRANCH   5  17
ATOM     17  C   UNL d   1     -39.779  14.940  19.979  0.00  0.00     0.001 A 
ATOM     18  C   UNL d   1     -40.370  14.609  20.411  0.00  0.00     0.000 A 
ATOM     19  C   UNL d   1     -40.582  14.938  21.153  0.00  0.00     0.000 A 
ATOM     20  C   UNL d   1     -40.193  15.582  21.429  0.00  0.00     0.000 A 
ATOM     21  C   UNL d   1     -39.581  15.922  20.977  0.00  0.00     0.000 A 
ATOM     22  C   UNL d   1     -39.375  15.594  20.245  0.00  0.00     0.000 A 
ENDBRANCH   5  17
TORSDOF 1
ENDMDL
