MODEL 1
REMARK VINA RESULT:      50.7      0.000      0.000
REMARK  3 active torsions:
REMARK  status: ('A' for Active; 'I' for Inactive)
REMARK    1  A    between atoms: C_16  and  N_3 
REMARK    2  A    between atoms: C_10  and  C_5 
REMARK    3  A    between atoms: C_26  and  C_16 
ROOT
ATOM      1  C   UNL d   1      58.211  49.646  50.936  0.00  0.00     0.083 A 
ATOM      2  C   UNL d   1      58.435  49.627  50.144  0.00  0.00     0.161 A 
ATOM      3  N   UNL d   1      57.097  49.622  50.185  0.00  0.00    -0.268 N 
ATOM      4  C   UNL d   1      57.750  49.611  49.675  0.00  0.00     0.288 A 
ATOM      5  C   UNL d   1      57.383  49.643  50.966  0.00  0.00     0.072 A 
ATOM      6  C   UNL d   1      58.780  49.665  51.531  0.00  0.00     0.201 A 
ATOM      7  O   UNL d   1      59.242  49.625  49.944  0.00  0.00    -0.302 OA
ATOM      8  C   UNL d   1      59.580  49.663  51.329  0.00  0.00     0.062 A 
ATOM      9  C   UNL d   1      59.809  49.643  50.538  0.00  0.00     0.103 A 
ATOM     10  O   UNL d   1      57.721  49.589  48.857  0.00  0.00    -0.264 OA
ATOM     11  O   UNL d   1      58.557  49.685  52.323  0.00  0.00    -0.286 OA
ATOM     12  C   UNL d   1      60.155  49.681  51.926  0.00  0.00     0.012 A 
ATOM     13  C   UNL d   1      60.619  49.642  50.344  0.00  0.00     0.025 A 
ATOM     14  C   UNL d   1      60.953  49.680  51.732  0.00  0.00     0.035 A 
ATOM     15  C   UNL d   1      61.186  49.660  50.938  0.00  0.00     0.009 A 
ATOM     16 BR   UNL d   1      61.519  49.698  52.322  0.00  0.00    -0.049 Br
ENDROOT
BRANCH   5  17
ATOM     17  C   UNL d   1      57.155  49.663  51.756  0.00  0.00     0.019 A 
ATOM     18  C   UNL d   1      57.723  49.669  52.358  0.00  0.00     0.031 A 
ATOM     19  C   UNL d   1      57.491  49.689  53.146  0.00  0.00     0.140 A 
ATOM     20  F   UNL d   1      58.061  49.695  53.740  0.00  0.00    -0.204 F 
ATOM     21  C   UNL d   1      56.683  49.703  53.345  0.00  0.00     0.030 A 
ATOM     22  C   UNL d   1      56.115  49.697  52.744  0.00  0.00     0.002 A 
ATOM     23  C   UNL d   1      56.353  49.677  51.948  0.00  0.00     0.002 A 
ENDBRANCH   5  17
BRANCH   3  24
ATOM     24  C   UNL d   1      56.306  49.612  49.961  0.00  0.00     0.129 C 
BRANCH  24  25
ATOM     25  C   UNL d   1      56.087  49.271  49.244  0.00  0.00     0.253 C 
ATOM     26  O   UNL d   1      56.036  48.454  49.176  0.00  0.00    -0.281 OA
ENDBRANCH  24  25
ENDBRANCH   3  24
TORSDOF 3
ENDMDL
