MODEL 1
REMARK VINA RESULT:       0.3      0.000      0.000
REMARK  4 active torsions:
REMARK  status: ('A' for Active; 'I' for Inactive)
REMARK    1  A    between atoms: N_7  and  C_1 
REMARK    2  A    between atoms: C_11  and  C_2 
REMARK    3  A    between atoms: N_6  and  C_12 
REMARK       I    between atoms: C_8  and  N_7 
REMARK    4  A    between atoms: C_14  and  C_8 
REMARK       I    between atoms: N_26  and  C_11 
ROOT
ATOM      1  N   UNL d   1      31.795  19.020 -23.121  0.00  0.00    -0.201 NA
ATOM      2  C   UNL d   1      32.676  19.493 -23.256  0.00  0.00     0.280 C 
ATOM      3  O   UNL d   1      33.241  19.400 -23.687  0.00  0.00    -0.265 OA
ENDROOT
BRANCH   1   4
ATOM      4  C   UNL d   1      31.750  18.423 -23.614  0.00  0.00     0.119 A 
ATOM      5  C   UNL d   1      31.331  18.074 -24.214  0.00  0.00     0.082 A 
ATOM      6  C   UNL d   1      31.722  17.382 -24.433  0.00  0.00     0.013 A 
ATOM      7  C   UNL d   1      31.557  16.810 -25.002  0.00  0.00     0.001 A 
ATOM      8  C   UNL d   1      32.394  17.313 -23.952  0.00  0.00     0.031 A 
ATOM      9  C   UNL d   1      32.063  16.161 -25.097  0.00  0.00     0.000 A 
ATOM     10  C   UNL d   1      32.731  16.097 -24.615  0.00  0.00     0.001 A 
ATOM     11  C   UNL d   1      32.896  16.666 -24.049  0.00  0.00     0.006 A 
ATOM     12  C   UNL d   1      33.241  15.453 -24.703  0.00  0.00     0.000 C 
ATOM     13  S   UNL d   1      32.411  17.955 -23.447  0.00  0.00    -0.068 SA
BRANCH   5  14
ATOM     14  C   UNL d   1      30.634  18.367 -24.543  0.00  0.00     0.281 C 
ATOM     15  O   UNL d   1      30.656  18.990 -25.084  0.00  0.00    -0.265 OA
ATOM     16  N   UNL d   1      29.908  18.034 -24.330  0.00  0.00    -0.205 NA
ATOM     17  C   UNL d   1      29.206  18.321 -24.655  0.00  0.00     0.123 C 
ENDBRANCH   5  14
ENDBRANCH   1   4
BRANCH   2  18
ATOM     18  C   UNL d   1      32.768  20.137 -22.751  0.00  0.00     0.058 A 
ATOM     19  C   UNL d   1      32.806  20.024 -21.937  0.00  0.00     0.006 A 
ATOM     20  C   UNL d   1      32.896  20.664 -21.437  0.00  0.00     0.018 A 
ATOM     21  C   UNL d   1      32.951  21.424 -21.727  0.00  0.00     0.070 A 
ATOM     22  C   UNL d   1      32.913  21.548 -22.554  0.00  0.00     0.018 A 
ATOM     23  C   UNL d   1      32.823  20.917 -23.064  0.00  0.00     0.006 A 
BRANCH  21  24
ATOM     24  N   UNL d   1      33.043  22.066 -21.218  0.00  0.00    -0.242 N 
ATOM     25  C   UNL d   1      33.059  22.859 -21.467  0.00  0.00     0.267 A 
ATOM     26  C   UNL d   1      33.159  23.343 -20.797  0.00  0.00     0.066 A 
ATOM     27  O   UNL d   1      32.986  23.132 -22.266  0.00  0.00    -0.267 OA
ATOM     28  C   UNL d   1      33.204  22.843 -20.146  0.00  0.00     0.066 A 
ATOM     29  C   UNL d   1      33.133  22.070 -20.398  0.00  0.00     0.267 A 
ATOM     30  O   UNL d   1      33.150  21.397 -19.914  0.00  0.00    -0.267 OA
ENDBRANCH  21  24
ENDBRANCH   2  18
TORSDOF 4
ENDMDL
MODEL 2
REMARK VINA RESULT:       2.6      1.316      2.053
REMARK  4 active torsions:
REMARK  status: ('A' for Active; 'I' for Inactive)
REMARK    1  A    between atoms: N_7  and  C_1 
REMARK    2  A    between atoms: C_11  and  C_2 
REMARK    3  A    between atoms: N_6  and  C_12 
REMARK       I    between atoms: C_8  and  N_7 
REMARK    4  A    between atoms: C_14  and  C_8 
REMARK       I    between atoms: N_26  and  C_11 
ROOT
ATOM      1  N   UNL d   1      31.702  18.342 -22.778  0.00  0.00    -0.201 NA
ATOM      2  C   UNL d   1      32.037  19.047 -23.416  0.00  0.00     0.280 C 
ATOM      3  O   UNL d   1      32.130  19.087 -24.125  0.00  0.00    -0.265 OA
ENDROOT
BRANCH   1   4
ATOM      4  C   UNL d   1      31.507  17.708 -23.181  0.00  0.00     0.119 A 
ATOM      5  C   UNL d   1      31.738  16.974 -23.436  0.00  0.00     0.082 A 
ATOM      6  C   UNL d   1      31.124  16.650 -23.881  0.00  0.00     0.013 A 
ATOM      7  C   UNL d   1      31.044  15.931 -24.272  0.00  0.00     0.001 A 
ATOM      8  C   UNL d   1      30.507  17.204 -23.892  0.00  0.00     0.031 A 
ATOM      9  C   UNL d   1      30.345  15.756 -24.682  0.00  0.00     0.000 A 
ATOM     10  C   UNL d   1      29.734  16.312 -24.690  0.00  0.00     0.001 A 
ATOM     11  C   UNL d   1      29.812  17.028 -24.301  0.00  0.00     0.006 A 
ATOM     12  C   UNL d   1      29.034  16.145 -25.097  0.00  0.00     0.000 C 
ATOM     13  S   UNL d   1      30.744  17.857 -23.461  0.00  0.00    -0.068 SA
BRANCH   5  14
ATOM     14  C   UNL d   1      32.465  16.619 -23.275  0.00  0.00     0.281 C 
ATOM     15  O   UNL d   1      33.141  16.840 -23.694  0.00  0.00    -0.265 OA
ATOM     16  N   UNL d   1      32.516  16.037 -22.691  0.00  0.00    -0.205 NA
ATOM     17  C   UNL d   1      33.239  15.677 -22.524  0.00  0.00     0.123 C 
ENDBRANCH   5  14
ENDBRANCH   1   4
BRANCH   2  18
ATOM     18  C   UNL d   1      32.257  19.741 -23.029  0.00  0.00     0.058 A 
ATOM     19  C   UNL d   1      31.746  20.094 -22.489  0.00  0.00     0.006 A 
ATOM     20  C   UNL d   1      31.965  20.782 -22.107  0.00  0.00     0.018 A 
ATOM     21  C   UNL d   1      32.687  21.135 -22.248  0.00  0.00     0.070 A 
ATOM     22  C   UNL d   1      33.212  20.782 -22.797  0.00  0.00     0.018 A 
ATOM     23  C   UNL d   1      33.005  20.095 -23.185  0.00  0.00     0.006 A 
BRANCH  21  24
ATOM     24  N   UNL d   1      32.902  21.830 -21.860  0.00  0.00    -0.242 N 
ATOM     25  C   UNL d   1      33.035  22.555 -22.241  0.00  0.00     0.267 A 
ATOM     26  C   UNL d   1      33.241  23.121 -21.667  0.00  0.00     0.066 A 
ATOM     27  O   UNL d   1      32.971  22.699 -23.075  0.00  0.00    -0.267 OA
ATOM     28  C   UNL d   1      33.233  22.738 -20.941  0.00  0.00     0.066 A 
ATOM     29  C   UNL d   1      33.029  21.955 -21.054  0.00  0.00     0.267 A 
ATOM     30  O   UNL d   1      32.958  21.380 -20.461  0.00  0.00    -0.267 OA
ENDBRANCH  21  24
ENDBRANCH   2  18
TORSDOF 4
ENDMDL
