MODEL 1
REMARK VINA RESULT:       9.0      0.000      0.000
REMARK  4 active torsions:
REMARK  status: ('A' for Active; 'I' for Inactive)
REMARK    1  A    between atoms: C_3  and  S_1 
REMARK       I    between atoms: C_2  and  N_6 
REMARK    2  A    between atoms: C_11  and  C_2 
REMARK    3  A    between atoms: N_6  and  C_12 
REMARK    4  A    between atoms: C_15  and  C_11 
ROOT
ATOM      1  C   UNL d   1      46.481 -19.145  42.773  0.00  0.00     0.107 A 
ATOM      2  C   UNL d   1      46.458 -18.350  42.567  0.00  0.00     0.015 A 
ATOM      3  C   UNL d   1      46.422 -19.368  43.565  0.00  0.00     0.015 A 
ATOM      4  C   UNL d   1      46.316 -17.994  43.941  0.00  0.00     0.085 A 
ATOM      5  C   UNL d   1      46.340 -18.792  44.149  0.00  0.00     0.020 A 
ATOM      6  C   UNL d   1      46.375 -17.774  43.151  0.00  0.00     0.020 A 
ENDROOT
BRANCH   4   7
ATOM      7  N   UNL d   1      46.234 -17.418  44.525  0.00  0.00    -0.208 NA
ATOM      8  C   UNL d   1      45.820 -16.723  44.363  0.00  0.00     0.279 C 
ATOM      9  O   UNL d   1      45.490 -16.604  43.618  0.00  0.00    -0.265 OA
BRANCH   8  10
ATOM     10  C   UNL d   1      45.737 -16.142  44.952  0.00  0.00     0.062 C 
BRANCH  10  11
ATOM     11  C   UNL d   1      45.599 -15.355  44.746  0.00  0.00     0.005 A 
ATOM     12  C   UNL d   1      44.822 -15.099  44.642  0.00  0.00     0.000 A 
ATOM     13  C   UNL d   1      44.681 -14.309  44.436  0.00  0.00     0.000 A 
ATOM     14  C   UNL d   1      45.314 -13.783  44.336  0.00  0.00     0.000 A 
ATOM     15  C   UNL d   1      46.088 -14.048  44.442  0.00  0.00     0.000 A 
ATOM     16  C   UNL d   1      46.232 -14.830  44.647  0.00  0.00     0.000 A 
ENDBRANCH  10  11
ENDBRANCH   8  10
ENDBRANCH   4   7
BRANCH   1  17
ATOM     17  S   UNL d   1      46.564 -19.721  42.188  0.00  0.00     0.302 S 
ATOM     18  O   UNL d   1      46.557 -20.310  42.767  0.00  0.00    -0.197 OA
ATOM     19  O   UNL d   1      46.571 -19.133  41.610  0.00  0.00    -0.197 OA
ATOM     20  N   UNL d   1      46.647 -20.298  41.603  0.00  0.00    -0.043 N 
ENDBRANCH   1  17
TORSDOF 4
ENDMDL
MODEL 2
REMARK VINA RESULT:       9.3      0.212      1.064
REMARK  4 active torsions:
REMARK  status: ('A' for Active; 'I' for Inactive)
REMARK    1  A    between atoms: C_3  and  S_1 
REMARK       I    between atoms: C_2  and  N_6 
REMARK    2  A    between atoms: C_11  and  C_2 
REMARK    3  A    between atoms: N_6  and  C_12 
REMARK    4  A    between atoms: C_15  and  C_11 
ROOT
ATOM      1  C   UNL d   1      46.414 -19.005  42.836  0.00  0.00     0.107 A 
ATOM      2  C   UNL d   1      46.365 -19.226  43.626  0.00  0.00     0.015 A 
ATOM      3  C   UNL d   1      46.346 -18.211  42.624  0.00  0.00     0.015 A 
ATOM      4  C   UNL d   1      46.181 -17.862  43.999  0.00  0.00     0.085 A 
ATOM      5  C   UNL d   1      46.229 -17.639  43.206  0.00  0.00     0.020 A 
ATOM      6  C   UNL d   1      46.249 -18.654  44.208  0.00  0.00     0.020 A 
ENDROOT
BRANCH   4   7
ATOM      7  N   UNL d   1      46.064 -17.290  44.582  0.00  0.00    -0.208 NA
ATOM      8  C   UNL d   1      45.888 -16.513  44.367  0.00  0.00     0.279 C 
ATOM      9  O   UNL d   1      45.828 -16.309  43.571  0.00  0.00    -0.265 OA
BRANCH   8  10
ATOM     10  C   UNL d   1      45.770 -15.936  44.954  0.00  0.00     0.062 C 
BRANCH  10  11
ATOM     11  C   UNL d   1      45.609 -15.155  44.745  0.00  0.00     0.005 A 
ATOM     12  C   UNL d   1      46.235 -14.623  44.667  0.00  0.00     0.000 A 
ATOM     13  C   UNL d   1      46.075 -13.838  44.458  0.00  0.00     0.000 A 
ATOM     14  C   UNL d   1      45.295 -13.590  44.329  0.00  0.00     0.000 A 
ATOM     15  C   UNL d   1      44.675 -14.127  44.409  0.00  0.00     0.000 A 
ATOM     16  C   UNL d   1      44.829 -14.907  44.616  0.00  0.00     0.000 A 
ENDBRANCH  10  11
ENDBRANCH   8  10
ENDBRANCH   4   7
BRANCH   1  17
ATOM     17  S   UNL d   1      46.530 -19.578  42.253  0.00  0.00     0.302 S 
ATOM     18  O   UNL d   1      46.618 -18.983  41.686  0.00  0.00    -0.197 OA
ATOM     19  O   UNL d   1      46.442 -20.172  42.819  0.00  0.00    -0.197 OA
ATOM     20  N   UNL d   1      46.647 -20.151  41.670  0.00  0.00    -0.043 N 
ENDBRANCH   1  17
TORSDOF 4
ENDMDL
MODEL 3
REMARK VINA RESULT:       9.5      2.276      4.814
REMARK  4 active torsions:
REMARK  status: ('A' for Active; 'I' for Inactive)
REMARK    1  A    between atoms: C_3  and  S_1 
REMARK       I    between atoms: C_2  and  N_6 
REMARK    2  A    between atoms: C_11  and  C_2 
REMARK    3  A    between atoms: N_6  and  C_12 
REMARK    4  A    between atoms: C_15  and  C_11 
ROOT
ATOM      1  C   UNL d   1      45.383 -13.978  44.306  0.00  0.00     0.107 A 
ATOM      2  C   UNL d   1      44.719 -14.457  44.382  0.00  0.00     0.015 A 
ATOM      3  C   UNL d   1      46.134 -14.289  44.446  0.00  0.00     0.015 A 
ATOM      4  C   UNL d   1      45.551 -15.559  44.738  0.00  0.00     0.085 A 
ATOM      5  C   UNL d   1      46.218 -15.080  44.662  0.00  0.00     0.020 A 
ATOM      6  C   UNL d   1      44.804 -15.248  44.598  0.00  0.00     0.020 A 
ENDROOT
BRANCH   4   7
ATOM      7  N   UNL d   1      45.636 -16.351  44.955  0.00  0.00    -0.208 NA
ATOM      8  C   UNL d   1      45.852 -16.912  44.389  0.00  0.00     0.279 C 
ATOM      9  O   UNL d   1      45.984 -16.681  43.610  0.00  0.00    -0.265 OA
BRANCH   8  10
ATOM     10  C   UNL d   1      45.937 -17.709  44.607  0.00  0.00     0.062 C 
BRANCH  10  11
ATOM     11  C   UNL d   1      46.172 -18.272  44.052  0.00  0.00     0.005 A 
ATOM     12  C   UNL d   1      46.313 -19.046  44.299  0.00  0.00     0.000 A 
ATOM     13  C   UNL d   1      46.549 -19.612  43.743  0.00  0.00     0.000 A 
ATOM     14  C   UNL d   1      46.642 -19.402  42.946  0.00  0.00     0.000 A 
ATOM     15  C   UNL d   1      46.499 -18.626  42.707  0.00  0.00     0.000 A 
ATOM     16  C   UNL d   1      46.265 -18.062  43.255  0.00  0.00     0.000 A 
ENDBRANCH  10  11
ENDBRANCH   8  10
ENDBRANCH   4   7
BRANCH   1  17
ATOM     17  S   UNL d   1      45.298 -13.186  44.090  0.00  0.00     0.302 S 
ATOM     18  O   UNL d   1      44.905 -13.417  43.401  0.00  0.00    -0.197 OA
ATOM     19  O   UNL d   1      45.690 -12.956  44.778  0.00  0.00    -0.197 OA
ATOM     20  N   UNL d   1      45.213 -12.394  43.873  0.00  0.00    -0.043 N 
ENDBRANCH   1  17
TORSDOF 4
ENDMDL
