MODEL 1
REMARK VINA RESULT:      38.4      0.000      0.000
REMARK  3 active torsions:
REMARK  status: ('A' for Active; 'I' for Inactive)
REMARK    1  A    between atoms: N_2  and  S_1 
REMARK    2  A    between atoms: C_4  and  S_1 
REMARK    3  A    between atoms: C_11  and  C_3 
ROOT
ATOM      1  N   UNL d   1     -58.477 -99.057 -45.168  0.00  0.00    -0.213 N 
ATOM      2  C   UNL d   1     -59.150 -98.886 -44.715  0.00  0.00     0.157 A 
ATOM      3  N   UNL d   1     -59.776 -98.764 -45.240  0.00  0.00    -0.224 NA
ATOM      4  C   UNL d   1     -58.691 -99.040 -45.965  0.00  0.00     0.114 A 
ATOM      5  C   UNL d   1     -59.495 -98.859 -46.007  0.00  0.00     0.120 A 
ENDROOT
BRANCH   1   6
ATOM      6  S   UNL d   1     -57.724 -99.217 -44.871  0.00  0.00     0.273 S 
ATOM      7  O   UNL d   1     -58.057 -99.675 -44.271  0.00  0.00    -0.200 OA
ATOM      8  O   UNL d   1     -57.392 -98.761 -45.468  0.00  0.00    -0.200 OA
BRANCH   6   9
ATOM      9  C   UNL d   1     -56.974 -99.376 -44.576  0.00  0.00     0.104 A 
ATOM     10  C   UNL d   1     -56.697-100.154 -44.535  0.00  0.00     0.015 A 
ATOM     11  C   UNL d   1     -55.944-100.322 -44.240  0.00  0.00     0.028 A 
ATOM     12  C   UNL d   1     -55.674-101.095 -44.201  0.00  0.00     0.002 C 
ATOM     13  C   UNL d   1     -55.463 -99.696 -43.982  0.00  0.00     0.140 A 
ATOM     14  C   UNL d   1     -55.734 -98.924 -44.020  0.00  0.00     0.030 A 
ATOM     15  F   UNL d   1     -54.713 -99.855 -43.687  0.00  0.00    -0.204 F 
ATOM     16  C   UNL d   1     -56.488 -98.764 -44.317  0.00  0.00     0.015 A 
ENDBRANCH   6   9
ENDBRANCH   1   6
BRANCH   2  17
ATOM     17  C   UNL d   1     -59.188 -98.845 -43.893  0.00  0.00     0.035 A 
ATOM     18  C   UNL d   1     -58.492 -98.810 -43.449  0.00  0.00     0.003 A 
ATOM     19  C   UNL d   1     -58.526 -98.769 -42.625  0.00  0.00     0.000 A 
ATOM     20  C   UNL d   1     -59.259 -98.762 -42.248  0.00  0.00     0.000 A 
ATOM     21  C   UNL d   1     -59.955 -98.797 -42.694  0.00  0.00     0.000 A 
ATOM     22  C   UNL d   1     -59.918 -98.838 -43.515  0.00  0.00     0.003 A 
ENDBRANCH   2  17
TORSDOF 3
ENDMDL
