MODEL 1
REMARK VINA RESULT:      45.1      0.000      0.000
REMARK  5 active torsions:
REMARK  status: ('A' for Active; 'I' for Inactive)
REMARK    1  A    between atoms: N_9  and  S_1 
REMARK    2  A    between atoms: C_12  and  S_1 
REMARK    3  A    between atoms: C_6  and  C_15 
REMARK    4  A    between atoms: C_18  and  N_9 
REMARK       I    between atoms: C_16  and  N_17 
REMARK    5  A    between atoms: N_17  and  C_23 
ROOT
ATOM      1  C   UNL d   1      13.485  12.380  -3.141  0.00  0.00     0.021 A 
ATOM      2  C   UNL d   1      13.306  13.328  -4.208  0.00  0.00     0.094 A 
ATOM      3  C   UNL d   1      13.533  13.159  -3.433  0.00  0.00     0.021 A 
ATOM      4  C   UNL d   1      13.209  11.781  -3.632  0.00  0.00     0.002 A 
ATOM      5  C   UNL d   1      12.981  11.938  -4.402  0.00  0.00     0.002 A 
ATOM      6  C   UNL d   1      13.029  12.717  -4.694  0.00  0.00     0.020 A 
ENDROOT
BRANCH   2   7
ATOM      7  N   UNL d   1      13.354  14.095  -4.496  0.00  0.00    -0.158 NA
BRANCH   7   8
ATOM      8  S   UNL d   1      13.724  14.676  -4.050  0.00  0.00     0.285 S 
ATOM      9  O   UNL d   1      14.427  14.529  -4.454  0.00  0.00    -0.198 OA
ATOM     10  O   UNL d   1      13.024  14.830  -3.639  0.00  0.00    -0.198 OA
BRANCH   8  11
ATOM     11  C   UNL d   1      14.097  15.264  -3.598  0.00  0.00     0.105 A 
ATOM     12  C   UNL d   1      14.235  15.122  -2.797  0.00  0.00     0.015 A 
ATOM     13  C   UNL d   1      14.609  15.699  -2.325  0.00  0.00     0.020 A 
ATOM     14  C   UNL d   1      14.841  16.419  -2.670  0.00  0.00     0.085 A 
ATOM     15  C   UNL d   1      14.703  16.560  -3.471  0.00  0.00     0.020 A 
ATOM     16  C   UNL d   1      14.327  15.975  -3.934  0.00  0.00     0.015 A 
BRANCH  14  17
ATOM     17  N   UNL d   1      15.204  16.984  -2.219  0.00  0.00    -0.208 NA
ATOM     18  C   UNL d   1      15.182  16.933  -1.404  0.00  0.00     0.279 C 
ATOM     19  O   UNL d   1      14.791  16.306  -1.038  0.00  0.00    -0.265 OA
ATOM     20  C   UNL d   1      15.546  17.500  -0.950  0.00  0.00     0.068 C 
ENDBRANCH  14  17
ENDBRANCH   8  11
ENDBRANCH   7   8
ENDBRANCH   2   7
BRANCH   1  21
ATOM     21  C   UNL d   1      13.716  12.225  -2.363  0.00  0.00     0.102 A 
ATOM     22  N   UNL d   1      14.531  12.194  -2.191  0.00  0.00    -0.162 NA
ATOM     23  N   UNL d   1      14.773  12.038  -1.406  0.00  0.00    -0.189 N 
ATOM     24  C   UNL d   1      15.516  11.975  -1.074  0.00  0.00     0.224 A 
ATOM     25  C   UNL d   1      14.208  11.916  -0.806  0.00  0.00     0.187 A 
ATOM     26  N   UNL d   1      15.427  11.816  -0.281  0.00  0.00    -0.124 NA
ATOM     27  N   UNL d   1      14.620  11.781  -0.124  0.00  0.00    -0.127 NA
ATOM     28  C   UNL d   1      13.396  11.952  -1.003  0.00  0.00     0.042 A 
ATOM     29  C   UNL d   1      13.156  12.107  -1.782  0.00  0.00     0.024 A 
ENDBRANCH   1  21
TORSDOF 5
ENDMDL
MODEL 2
REMARK VINA RESULT:      47.1      1.345      1.746
REMARK  5 active torsions:
REMARK  status: ('A' for Active; 'I' for Inactive)
REMARK    1  A    between atoms: N_9  and  S_1 
REMARK    2  A    between atoms: C_12  and  S_1 
REMARK    3  A    between atoms: C_6  and  C_15 
REMARK    4  A    between atoms: C_18  and  N_9 
REMARK       I    between atoms: C_16  and  N_17 
REMARK    5  A    between atoms: N_17  and  C_23 
ROOT
ATOM      1  C   UNL d   1      13.559  12.388  -3.125  0.00  0.00     0.021 A 
ATOM      2  C   UNL d   1      13.059  13.245  -4.166  0.00  0.00     0.094 A 
ATOM      3  C   UNL d   1      13.264  13.125  -3.376  0.00  0.00     0.021 A 
ATOM      4  C   UNL d   1      13.645  11.779  -3.671  0.00  0.00     0.002 A 
ATOM      5  C   UNL d   1      13.444  11.888  -4.457  0.00  0.00     0.002 A 
ATOM      6  C   UNL d   1      13.149  12.625  -4.709  0.00  0.00     0.020 A 
ENDROOT
BRANCH   2   7
ATOM      7  N   UNL d   1      12.769  13.971  -4.413  0.00  0.00    -0.158 NA
BRANCH   7   8
ATOM      8  S   UNL d   1      13.280  14.608  -4.497  0.00  0.00     0.285 S 
ATOM      9  O   UNL d   1      13.736  14.164  -5.021  0.00  0.00    -0.198 OA
ATOM     10  O   UNL d   1      12.828  15.060  -3.973  0.00  0.00    -0.198 OA
BRANCH   8  11
ATOM     11  C   UNL d   1      13.796  15.252  -4.581  0.00  0.00     0.105 A 
ATOM     12  C   UNL d   1      13.831  15.642  -5.307  0.00  0.00     0.015 A 
ATOM     13  C   UNL d   1      14.342  16.292  -5.413  0.00  0.00     0.020 A 
ATOM     14  C   UNL d   1      14.818  16.544  -4.778  0.00  0.00     0.085 A 
ATOM     15  C   UNL d   1      14.782  16.153  -4.052  0.00  0.00     0.020 A 
ATOM     16  C   UNL d   1      14.266  15.503  -3.957  0.00  0.00     0.015 A 
BRANCH  14  17
ATOM     17  N   UNL d   1      15.316  17.173  -4.872  0.00  0.00    -0.208 NA
ATOM     18  C   UNL d   1      15.018  17.903  -5.084  0.00  0.00     0.279 C 
ATOM     19  O   UNL d   1      14.208  18.001  -5.203  0.00  0.00    -0.265 OA
ATOM     20  C   UNL d   1      15.518  18.536  -5.179  0.00  0.00     0.068 C 
ENDBRANCH  14  17
ENDBRANCH   8  11
ENDBRANCH   7   8
ENDBRANCH   2   7
BRANCH   1  21
ATOM     21  C   UNL d   1      13.760  12.282  -2.330  0.00  0.00     0.102 A 
ATOM     22  N   UNL d   1      14.483  12.595  -2.060  0.00  0.00    -0.162 NA
ATOM     23  N   UNL d   1      14.694  12.493  -1.257  0.00  0.00    -0.189 N 
ATOM     24  C   UNL d   1      15.353  12.732  -0.839  0.00  0.00     0.224 A 
ATOM     25  C   UNL d   1      14.189  12.085  -0.736  0.00  0.00     0.187 A 
ATOM     26  N   UNL d   1      15.270  12.482  -0.069  0.00  0.00    -0.124 NA
ATOM     27  N   UNL d   1      14.551  12.085  -0.014  0.00  0.00    -0.127 NA
ATOM     28  C   UNL d   1      13.467  11.779  -1.030  0.00  0.00     0.042 A 
ATOM     29  C   UNL d   1      13.259  11.881  -1.827  0.00  0.00     0.024 A 
ENDBRANCH   1  21
TORSDOF 5
ENDMDL
