MODEL 1
REMARK VINA RESULT:      71.3      0.000      0.000
REMARK  6 active torsions:
REMARK  status: ('A' for Active; 'I' for Inactive)
REMARK    1  A    between atoms: S_12  and  C_5 
REMARK    2  A    between atoms: C_14  and  C_6 
REMARK    3  A    between atoms: C_10  and  C_13 
REMARK    4  A    between atoms: C_21  and  S_12 
REMARK    5  A    between atoms: C_15  and  C_21 
REMARK       I    between atoms: N_16  and  C_15 
REMARK    6  A    between atoms: C_18  and  N_16 
ROOT
ATOM      1  C   UNL d   1      13.923  14.310  -3.360  0.00  0.00     0.186 A 
ATOM      2  C   UNL d   1      13.757  14.653  -4.098  0.00  0.00     0.065 A 
ATOM      3  N   UNL d   1      14.251  14.764  -2.756  0.00  0.00    -0.203 NA
ATOM      4  N   UNL d   1      14.248  15.901  -3.629  0.00  0.00    -0.220 NA
ATOM      5  C   UNL d   1      13.922  15.444  -4.222  0.00  0.00     0.116 A 
ATOM      6  C   UNL d   1      14.417  15.566  -2.888  0.00  0.00     0.165 A 
ATOM      7  O   UNL d   1      13.760  13.515  -3.225  0.00  0.00    -0.289 OA
ATOM      8  C   UNL d   1      13.427  14.195  -4.701  0.00  0.00     0.007 A 
ATOM      9  C   UNL d   1      13.428  13.050  -3.829  0.00  0.00     0.102 A 
ATOM     10  C   UNL d   1      13.263  13.391  -4.564  0.00  0.00     0.023 A 
ATOM     11  C   UNL d   1      13.267  12.263  -3.696  0.00  0.00     0.025 A 
ATOM     12  C   UNL d   1      12.936  12.934  -5.161  0.00  0.00     0.002 A 
ATOM     13  C   UNL d   1      12.939  11.796  -4.288  0.00  0.00     0.002 A 
ATOM     14  C   UNL d   1      12.772  12.134  -5.024  0.00  0.00     0.000 A 
ENDROOT
BRANCH   5  15
ATOM     15  S   UNL d   1      13.756  15.787  -4.961  0.00  0.00    -0.062 SA
BRANCH  15  16
ATOM     16  C   UNL d   1      14.297  16.296  -5.309  0.00  0.00     0.099 C 
BRANCH  16  17
ATOM     17  C   UNL d   1      14.039  16.996  -5.652  0.00  0.00     0.286 C 
ATOM     18  N   UNL d   1      14.213  17.724  -5.297  0.00  0.00    -0.208 NA
ATOM     19  O   UNL d   1      13.604  16.985  -6.351  0.00  0.00    -0.265 OA
BRANCH  18  20
ATOM     20  C   UNL d   1      13.955  18.423  -5.640  0.00  0.00     0.085 A 
ATOM     21  C   UNL d   1      14.416  19.094  -5.578  0.00  0.00     0.025 A 
ATOM     22  C   UNL d   1      14.165  19.792  -5.917  0.00  0.00     0.066 A 
ATOM     23  C   UNL d   1      13.441  19.823  -6.325  0.00  0.00     0.006 A 
ATOM     24  C   UNL d   1      12.983  19.144  -6.383  0.00  0.00     0.002 A 
ATOM     25  C   UNL d   1      13.236  18.436  -6.040  0.00  0.00     0.019 A 
BRANCH  22  26
ATOM     26  C   UNL d   1      14.625  20.479  -5.861  0.00  0.00     0.211 C 
ATOM     27  O   UNL d   1      14.458  21.026  -5.269  0.00  0.00    -0.644 OA
ATOM     28  O   UNL d   1      15.241  20.615  -6.388  0.00  0.00    -0.644 OA
ENDBRANCH  22  26
ENDBRANCH  18  20
ENDBRANCH  16  17
ENDBRANCH  15  16
ENDBRANCH   5  15
BRANCH   6  29
ATOM     29  C   UNL d   1      14.747  16.022  -2.283  0.00  0.00     0.036 A 
ATOM     30  C   UNL d   1      14.962  16.802  -2.434  0.00  0.00     0.005 A 
ATOM     31  C   UNL d   1      15.294  17.264  -1.832  0.00  0.00     0.030 A 
ATOM     32  C   UNL d   1      15.408  16.942  -1.079  0.00  0.00     0.140 A 
ATOM     33  C   UNL d   1      15.188  16.150  -0.927  0.00  0.00     0.030 A 
ATOM     34  F   UNL d   1      15.736  17.397  -0.479  0.00  0.00    -0.204 F 
ATOM     35  C   UNL d   1      14.859  15.698  -1.535  0.00  0.00     0.005 A 
ENDBRANCH   6  29
TORSDOF 6
ENDMDL
