MODEL 1
REMARK VINA RESULT:     -10.2      0.000      0.000
REMARK  3 active torsions:
REMARK  status: ('A' for Active; 'I' for Inactive)
REMARK    1  A    between atoms: C_7  and  C_1 
REMARK    2  A    between atoms: C_6  and  C_2 
REMARK    3  A    between atoms: C_3  and  C_6 
REMARK       I    between atoms: N_4  and  C_3 
ROOT
ATOM      1  C   UNL d   1     -47.621  11.899  23.324  0.00  0.00     0.038 A 
ATOM      2  C   UNL d   1     -48.777  12.611  23.363  0.00  0.00     0.043 A 
ATOM      3  C   UNL d   1     -47.917  12.658  23.208  0.00  0.00     0.016 A 
ATOM      4  C   UNL d   1     -46.917  11.455  23.303  0.00  0.00    -0.023 A 
ATOM      5  C   UNL d   1     -48.233  11.352  23.547  0.00  0.00     0.013 A 
ATOM      6  C   UNL d   1     -47.850  11.488  23.453  0.00  0.00    -0.012 A 
ATOM      7  C   UNL d   1     -49.098  11.334  23.697  0.00  0.00     0.023 A 
ATOM      8  C   UNL d   1     -49.381  12.088  23.580  0.00  0.00     0.013 A 
ATOM      9  C   UNL d   1     -48.134  12.179  23.349  0.00  0.00    -0.023 A 
ATOM     10  C   UNL d   1     -48.418  10.969  23.662  0.00  0.00    -0.027 A 
ENDROOT
BRANCH   2  11
ATOM     11  C   UNL d   1     -49.336  13.219  23.324  0.00  0.00     0.038 C 
BRANCH  11  12
ATOM     12  C   UNL d   1     -49.804  13.308  22.651  0.00  0.00     0.261 C 
ATOM     13  N   UNL d   1     -50.200  14.021  22.517  0.00  0.00    -0.268 N 
ATOM     14  C   UNL d   1     -50.668  14.110  21.844  0.00  0.00     0.110 A 
ATOM     15  C   UNL d   1     -50.124  14.644  23.061  0.00  0.00     0.110 A 
ATOM     16  C   UNL d   1     -51.064  14.818  21.708  0.00  0.00     0.142 A 
ATOM     17  O   UNL d   1     -50.995  15.444  22.243  0.00  0.00    -0.300 OA
ATOM     18  C   UNL d   1     -50.527  15.356  22.917  0.00  0.00     0.142 A 
ATOM     19  O   UNL d   1     -49.875  12.685  22.115  0.00  0.00    -0.267 OA
ENDBRANCH  11  12
ENDBRANCH   2  11
BRANCH   1  20
ATOM     20  C   UNL d   1     -47.114  12.516  23.104  0.00  0.00    -0.019 A 
ATOM     21  C   UNL d   1     -46.792  12.997  23.688  0.00  0.00    -0.004 A 
ATOM     22  C   UNL d   1     -46.288  13.611  23.477  0.00  0.00    -0.000 A 
ATOM     23  C   UNL d   1     -46.109  13.743  22.691  0.00  0.00    -0.000 A 
ATOM     24  C   UNL d   1     -46.436  13.255  22.101  0.00  0.00    -0.000 A 
ATOM     25  C   UNL d   1     -45.603  14.358  22.468  0.00  0.00    -0.000 C 
ATOM     26  C   UNL d   1     -46.940  12.641  22.320  0.00  0.00    -0.004 A 
ENDBRANCH   1  20
TORSDOF 3
ENDMDL
MODEL 2
REMARK VINA RESULT:      -8.6      1.395      2.655
REMARK  3 active torsions:
REMARK  status: ('A' for Active; 'I' for Inactive)
REMARK    1  A    between atoms: C_7  and  C_1 
REMARK    2  A    between atoms: C_6  and  C_2 
REMARK    3  A    between atoms: C_3  and  C_6 
REMARK       I    between atoms: N_4  and  C_3 
ROOT
ATOM      1  C   UNL d   1     -46.999  14.367  22.684  0.00  0.00     0.038 A 
ATOM      2  C   UNL d   1     -48.301  14.095  22.409  0.00  0.00     0.043 A 
ATOM      3  C   UNL d   1     -47.528  13.741  22.615  0.00  0.00     0.016 A 
ATOM      4  C   UNL d   1     -46.203  14.543  22.852  0.00  0.00    -0.023 A 
ATOM      5  C   UNL d   1     -47.375  15.116  22.538  0.00  0.00     0.013 A 
ATOM      6  C   UNL d   1     -47.070  14.847  22.629  0.00  0.00    -0.012 A 
ATOM      7  C   UNL d   1     -48.163  15.444  22.331  0.00  0.00     0.023 A 
ATOM      8  C   UNL d   1     -48.678  14.817  22.265  0.00  0.00     0.013 A 
ATOM      9  C   UNL d   1     -47.565  14.281  22.562  0.00  0.00    -0.023 A 
ATOM     10  C   UNL d   1     -47.416  15.553  22.493  0.00  0.00    -0.027 A 
ENDROOT
BRANCH   2  11
ATOM     11  C   UNL d   1     -49.019  13.708  22.277  0.00  0.00     0.038 C 
BRANCH  11  12
ATOM     12  C   UNL d   1     -49.590  13.680  22.872  0.00  0.00     0.261 C 
ATOM     13  N   UNL d   1     -50.031  12.990  22.986  0.00  0.00    -0.268 N 
ATOM     14  C   UNL d   1     -50.602  12.963  23.581  0.00  0.00     0.110 A 
ATOM     15  C   UNL d   1     -49.898  12.330  22.501  0.00  0.00     0.110 A 
ATOM     16  C   UNL d   1     -51.043  12.278  23.698  0.00  0.00     0.142 A 
ATOM     17  O   UNL d   1     -50.917  11.615  23.220  0.00  0.00    -0.300 OA
ATOM     18  C   UNL d   1     -50.347  11.642  22.625  0.00  0.00     0.142 A 
ATOM     19  O   UNL d   1     -49.717  14.340  23.350  0.00  0.00    -0.267 OA
ENDBRANCH  11  12
ENDBRANCH   2  11
BRANCH   1  20
ATOM     20  C   UNL d   1     -46.742  13.589  22.806  0.00  0.00    -0.019 A 
ATOM     21  C   UNL d   1     -46.744  13.283  23.569  0.00  0.00    -0.004 A 
ATOM     22  C   UNL d   1     -46.491  12.512  23.698  0.00  0.00    -0.000 A 
ATOM     23  C   UNL d   1     -46.239  12.053  23.071  0.00  0.00    -0.000 A 
ATOM     24  C   UNL d   1     -46.238  12.365  22.299  0.00  0.00    -0.000 A 
ATOM     25  C   UNL d   1     -45.983  11.275  23.189  0.00  0.00    -0.000 C 
ATOM     26  C   UNL d   1     -46.493  13.139  22.178  0.00  0.00    -0.004 A 
ENDBRANCH   1  20
TORSDOF 3
ENDMDL
MODEL 3
REMARK VINA RESULT:      -7.7      8.877     10.138
REMARK  3 active torsions:
REMARK  status: ('A' for Active; 'I' for Inactive)
REMARK    1  A    between atoms: C_7  and  C_1 
REMARK    2  A    between atoms: C_6  and  C_2 
REMARK    3  A    between atoms: C_3  and  C_6 
REMARK       I    between atoms: N_4  and  C_3 
ROOT
ATOM      1  C   UNL d   1     -40.307  15.261  20.821  0.00  0.00     0.038 A 
ATOM      2  C   UNL d   1     -40.172  14.727  19.579  0.00  0.00     0.043 A 
ATOM      3  C   UNL d   1     -39.868  14.707  20.399  0.00  0.00     0.016 A 
ATOM      4  C   UNL d   1     -40.396  15.593  21.579  0.00  0.00    -0.023 A 
ATOM      5  C   UNL d   1     -40.884  15.647  20.330  0.00  0.00     0.013 A 
ATOM      6  C   UNL d   1     -40.667  15.555  20.675  0.00  0.00    -0.012 A 
ATOM      7  C   UNL d   1     -41.169  15.647  19.499  0.00  0.00     0.023 A 
ATOM      8  C   UNL d   1     -40.729  15.096  19.091  0.00  0.00     0.013 A 
ATOM      9  C   UNL d   1     -40.272  15.050  20.276  0.00  0.00    -0.023 A 
ATOM     10  C   UNL d   1     -41.211  15.922  20.220  0.00  0.00    -0.027 A 
ENDROOT
BRANCH   2  11
ATOM     11  C   UNL d   1     -39.922  14.278  18.932  0.00  0.00     0.038 C 
BRANCH  11  12
ATOM     12  C   UNL d   1     -39.390  14.598  18.388  0.00  0.00     0.261 C 
ATOM     13  N   UNL d   1     -38.944  14.096  17.906  0.00  0.00    -0.268 N 
ATOM     14  C   UNL d   1     -38.412  14.416  17.363  0.00  0.00     0.110 A 
ATOM     15  C   UNL d   1     -39.033  13.274  17.972  0.00  0.00     0.110 A 
ATOM     16  C   UNL d   1     -37.966  13.919  16.881  0.00  0.00     0.142 A 
ATOM     17  O   UNL d   1     -38.048  13.098  16.939  0.00  0.00    -0.300 OA
ATOM     18  C   UNL d   1     -38.580  12.778  17.482  0.00  0.00     0.142 A 
ATOM     19  O   UNL d   1     -39.305  15.416  18.328  0.00  0.00    -0.267 OA
ENDBRANCH  11  12
ENDBRANCH   2  11
BRANCH   1  20
ATOM     20  C   UNL d   1     -39.714  14.822  21.199  0.00  0.00    -0.019 A 
ATOM     21  C   UNL d   1     -39.898  14.079  21.500  0.00  0.00    -0.004 A 
ATOM     22  C   UNL d   1     -39.315  13.638  21.876  0.00  0.00    -0.000 A 
ATOM     23  C   UNL d   1     -38.558  13.936  21.950  0.00  0.00    -0.000 A 
ATOM     24  C   UNL d   1     -38.375  14.689  21.644  0.00  0.00    -0.000 A 
ATOM     25  C   UNL d   1     -37.964  13.501  22.326  0.00  0.00    -0.000 C 
ATOM     26  C   UNL d   1     -38.964  15.125  21.268  0.00  0.00    -0.004 A 
ENDBRANCH   1  20
TORSDOF 3
ENDMDL
MODEL 4
REMARK VINA RESULT:      -7.4      8.216     10.119
REMARK  3 active torsions:
REMARK  status: ('A' for Active; 'I' for Inactive)
REMARK    1  A    between atoms: C_7  and  C_1 
REMARK    2  A    between atoms: C_6  and  C_2 
REMARK    3  A    between atoms: C_3  and  C_6 
REMARK       I    between atoms: N_4  and  C_3 
ROOT
ATOM      1  C   UNL d   1     -39.368  14.026  21.372  0.00  0.00     0.038 A 
ATOM      2  C   UNL d   1     -38.708  14.197  20.197  0.00  0.00     0.043 A 
ATOM      3  C   UNL d   1     -39.425  14.414  20.649  0.00  0.00     0.016 A 
ATOM      4  C   UNL d   1     -39.765  13.916  22.095  0.00  0.00    -0.023 A 
ATOM      5  C   UNL d   1     -38.655  13.564  21.427  0.00  0.00     0.013 A 
ATOM      6  C   UNL d   1     -39.020  13.730  21.544  0.00  0.00    -0.012 A 
ATOM      7  C   UNL d   1     -37.946  13.362  20.951  0.00  0.00     0.023 A 
ATOM      8  C   UNL d   1     -38.012  13.751  20.238  0.00  0.00     0.013 A 
ATOM      9  C   UNL d   1     -39.060  14.081  20.877  0.00  0.00    -0.023 A 
ATOM     10  C   UNL d   1     -38.354  13.294  21.603  0.00  0.00    -0.027 A 
ENDROOT
BRANCH   2  11
ATOM     11  C   UNL d   1     -38.493  14.438  19.436  0.00  0.00     0.038 C 
BRANCH  11  12
ATOM     12  C   UNL d   1     -38.725  13.992  18.781  0.00  0.00     0.261 C 
ATOM     13  N   UNL d   1     -38.821  14.361  18.047  0.00  0.00    -0.268 N 
ATOM     14  C   UNL d   1     -39.053  13.916  17.392  0.00  0.00     0.110 A 
ATOM     15  C   UNL d   1     -38.684  15.176  17.973  0.00  0.00     0.110 A 
ATOM     16  C   UNL d   1     -39.150  14.279  16.660  0.00  0.00     0.142 A 
ATOM     17  O   UNL d   1     -39.015  15.090  16.576  0.00  0.00    -0.300 OA
ATOM     18  C   UNL d   1     -38.784  15.536  17.231  0.00  0.00     0.142 A 
ATOM     19  O   UNL d   1     -38.860  13.182  18.861  0.00  0.00    -0.267 OA
ENDBRANCH  11  12
ENDBRANCH   2  11
BRANCH   1  20
ATOM     20  C   UNL d   1     -40.021  14.507  21.207  0.00  0.00    -0.019 A 
ATOM     21  C   UNL d   1     -40.718  14.157  20.946  0.00  0.00    -0.004 A 
ATOM     22  C   UNL d   1     -41.372  14.628  20.780  0.00  0.00    -0.000 A 
ATOM     23  C   UNL d   1     -41.328  15.438  20.875  0.00  0.00    -0.000 A 
ATOM     24  C   UNL d   1     -40.622  15.790  21.140  0.00  0.00    -0.000 A 
ATOM     25  C   UNL d   1     -41.980  15.920  20.711  0.00  0.00    -0.000 C 
ATOM     26  C   UNL d   1     -39.971  15.312  21.304  0.00  0.00    -0.004 A 
ENDBRANCH   1  20
TORSDOF 3
ENDMDL
