MODEL 1
REMARK VINA RESULT:      -2.7      0.000      0.000
REMARK  5 active torsions:
REMARK  status: ('A' for Active; 'I' for Inactive)
REMARK    1  A    between atoms: C_4  and  C_1 
REMARK    2  A    between atoms: C_5  and  C_2 
REMARK    3  A    between atoms: N_6  and  C_4 
REMARK    4  A    between atoms: C_25  and  N_10 
REMARK    5  A    between atoms: C_21  and  C_25 
ROOT
ATOM      1  N   UNL d   1      60.045  -5.544  28.474  0.00  0.00    -0.191 NA
ATOM      2  C   UNL d   1      60.012  -4.728  28.593  0.00  0.00     0.103 C 
ATOM      3  C   UNL d   1      59.981  -3.915  28.711  0.00  0.00     0.097 C 
ENDROOT
BRANCH   3   4
ATOM      4  C   UNL d   1      59.257  -3.546  28.826  0.00  0.00     0.091 C 
BRANCH   4   5
ATOM      5  N   UNL d   1      59.224  -2.734  28.978  0.00  0.00    -0.299 N 
ATOM      6  C   UNL d   1      58.508  -2.334  28.896  0.00  0.00     0.100 A 
ATOM      7  C   UNL d   1      58.472  -1.523  29.046  0.00  0.00     0.100 A 
ATOM      8  N   UNL d   1      59.150  -1.115  29.278  0.00  0.00    -0.291 N 
ATOM      9  C   UNL d   1      59.869  -1.513  29.361  0.00  0.00     0.100 A 
ATOM     10  C   UNL d   1      59.902  -2.326  29.210  0.00  0.00     0.100 A 
BRANCH   8  11
ATOM     11  C   UNL d   1      59.109  -0.311  29.426  0.00  0.00     0.143 C 
ATOM     12  S   UNL d   1      59.665   0.200  29.095  0.00  0.00    -0.057 SA
BRANCH  11  13
ATOM     13  C   UNL d   1      58.512  -0.007  29.908  0.00  0.00     0.126 A 
ATOM     14  O   UNL d   1      58.467  -0.069  30.728  0.00  0.00    -0.305 OA
ATOM     15  C   UNL d   1      57.779   0.314  30.984  0.00  0.00     0.101 A 
ATOM     16  C   UNL d   1      57.399   0.614  30.312  0.00  0.00     0.027 A 
ATOM     17  C   UNL d   1      57.853   0.415  29.651  0.00  0.00     0.029 A 
BRANCH  15  18
ATOM     18  C   UNL d   1      57.517   0.385  31.762  0.00  0.00     0.034 A 
ATOM     19  C   UNL d   1      58.056   0.570  32.354  0.00  0.00     0.060 A 
ATOM     20  C   UNL d   1      57.800   0.643  33.135  0.00  0.00     0.012 A 
ATOM     21 CL   UNL d   1      58.855   0.682  32.168  0.00  0.00    -0.082 Cl
ATOM     22  C   UNL d   1      56.998   0.530  33.319  0.00  0.00     0.012 A 
ATOM     23  C   UNL d   1      56.460   0.343  32.712  0.00  0.00     0.058 A 
ATOM     24  C   UNL d   1      56.725   0.272  31.937  0.00  0.00     0.014 A 
ATOM     25 CL   UNL d   1      55.660   0.231  32.898  0.00  0.00    -0.082 Cl
ENDBRANCH  15  18
ENDBRANCH  11  13
ENDBRANCH   8  11
ENDBRANCH   4   5
ENDBRANCH   3   4
TORSDOF 5
ENDMDL
