MODEL 1
REMARK VINA RESULT:      17.3      0.000      0.000
REMARK  4 active torsions:
REMARK  status: ('A' for Active; 'I' for Inactive)
REMARK    1  A    between atoms: N_2  and  S_1 
REMARK    2  A    between atoms: N_3  and  S_1 
REMARK    3  A    between atoms: C_8  and  N_3 
REMARK    4  A    between atoms: C_6  and  C_8 
ROOT
ATOM      1  S   UNL d   1      58.442  49.675  50.121  0.00  0.00     0.351 S 
ATOM      2  O   UNL d   1      58.281  49.708  50.930  0.00  0.00    -0.180 OA
ATOM      3  O   UNL d   1      58.603  49.643  49.316  0.00  0.00    -0.180 OA
ENDROOT
BRANCH   1   4
ATOM      4  N   UNL d   1      57.632  49.641  49.965  0.00  0.00    -0.211 N 
ATOM      5  C   UNL d   1      57.125  49.334  50.540  0.00  0.00     0.120 C 
ATOM      6  C   UNL d   1      56.319  49.301  50.384  0.00  0.00     0.142 C 
ATOM      7  O   UNL d   1      56.034  49.465  49.627  0.00  0.00    -0.300 OA
ATOM      8  C   UNL d   1      56.558  49.664  49.027  0.00  0.00     0.142 C 
ATOM      9  C   UNL d   1      57.368  49.697  49.182  0.00  0.00     0.120 C 
ENDBRANCH   1   4
BRANCH   1  10
ATOM     10  N   UNL d   1      59.258  49.706  50.211  0.00  0.00    -0.144 NA
BRANCH  10  11
ATOM     11  C   UNL d   1      59.629  49.330  50.856  0.00  0.00     0.121 C 
BRANCH  11  12
ATOM     12  C   UNL d   1      60.401  49.556  51.094  0.00  0.00     0.185 C 
ATOM     13  O   UNL d   1      61.085  49.095  50.825  0.00  0.00    -0.321 OA
ATOM     14  C   UNL d   1      61.714  49.290  51.319  0.00  0.00     0.117 C 
ATOM     15  C   UNL d   1      61.412  49.633  52.006  0.00  0.00     0.025 C 
ATOM     16  C   UNL d   1      60.588  49.652  51.937  0.00  0.00     0.012 C 
ENDBRANCH  11  12
ENDBRANCH  10  11
ENDBRANCH   1  10
TORSDOF 4
ENDMDL
MODEL 2
REMARK VINA RESULT:      18.6      0.832      3.894
REMARK  4 active torsions:
REMARK  status: ('A' for Active; 'I' for Inactive)
REMARK    1  A    between atoms: N_2  and  S_1 
REMARK    2  A    between atoms: N_3  and  S_1 
REMARK    3  A    between atoms: C_8  and  N_3 
REMARK    4  A    between atoms: C_6  and  C_8 
ROOT
ATOM      1  S   UNL d   1      59.403  49.629  50.649  0.00  0.00     0.351 S 
ATOM      2  O   UNL d   1      59.134  49.603  51.429  0.00  0.00    -0.180 OA
ATOM      3  O   UNL d   1      59.669  49.655  49.872  0.00  0.00    -0.180 OA
ENDROOT
BRANCH   1   4
ATOM      4  N   UNL d   1      60.179  49.553  50.918  0.00  0.00    -0.211 N 
ATOM      5  C   UNL d   1      60.345  49.707  51.712  0.00  0.00     0.120 C 
ATOM      6  C   UNL d   1      61.119  49.630  51.979  0.00  0.00     0.142 C 
ATOM      7  O   UNL d   1      61.735  49.512  51.443  0.00  0.00    -0.300 OA
ATOM      8  C   UNL d   1      61.575  49.471  50.639  0.00  0.00     0.142 C 
ATOM      9  C   UNL d   1      60.799  49.547  50.370  0.00  0.00     0.120 C 
ENDBRANCH   1   4
BRANCH   1  10
ATOM     10  N   UNL d   1      58.654  49.707  50.320  0.00  0.00    -0.144 NA
BRANCH  10  11
ATOM     11  C   UNL d   1      57.981  49.415  50.718  0.00  0.00     0.121 C 
BRANCH  11  12
ATOM     12  C   UNL d   1      57.224  49.458  50.361  0.00  0.00     0.185 C 
ATOM     13  O   UNL d   1      56.703  48.764  50.375  0.00  0.00    -0.321 OA
ATOM     14  C   UNL d   1      56.127  48.885  49.800  0.00  0.00     0.117 C 
ATOM     15  C   UNL d   1      56.396  49.466  49.278  0.00  0.00     0.025 C 
ATOM     16  C   UNL d   1      57.145  49.706  49.532  0.00  0.00     0.012 C 
ENDBRANCH  11  12
ENDBRANCH  10  11
ENDBRANCH   1  10
TORSDOF 4
ENDMDL
