MODEL 1
REMARK VINA RESULT:      24.9      0.000      0.000
REMARK  4 active torsions:
REMARK  status: ('A' for Active; 'I' for Inactive)
REMARK    1  A    between atoms: C_5  and  N_1 
REMARK    2  A    between atoms: C_7  and  C_5 
REMARK    3  A    between atoms: O_10  and  C_8 
REMARK    4  A    between atoms: C_14  and  O_10 
ROOT
ATOM      1  C   UNL d   1      13.880  13.201  -2.714  0.00  0.00     0.086 C 
ENDROOT
BRANCH   1   2
ATOM      2  N   UNL d   1      13.928  12.733  -2.039  0.00  0.00    -0.268 N 
ATOM      3  C   UNL d   1      13.449  12.078  -1.863  0.00  0.00     0.296 A 
ATOM      4  S   UNL d   1      13.692  11.779  -1.132  0.00  0.00    -0.025 SA
ATOM      5  O   UNL d   1      12.840  11.780  -2.332  0.00  0.00    -0.259 OA
ATOM      6  C   UNL d   1      14.315  12.241  -0.857  0.00  0.00     0.050 A 
ATOM      7  C   UNL d   1      14.464  12.834  -1.417  0.00  0.00     0.073 A 
ATOM      8  C   UNL d   1      14.777  12.209  -0.164  0.00  0.00     0.008 A 
ATOM      9  C   UNL d   1      15.060  13.383  -1.291  0.00  0.00     0.018 A 
ATOM     10  C   UNL d   1      15.515  13.347  -0.604  0.00  0.00     0.002 A 
ATOM     11  C   UNL d   1      15.375  12.765  -0.045  0.00  0.00     0.001 A 
ENDBRANCH   1   2
BRANCH   1  12
ATOM     12  C   UNL d   1      13.537  12.893  -3.401  0.00  0.00     0.040 A 
ATOM     13  C   UNL d   1      13.168  13.405  -3.926  0.00  0.00     0.101 A 
ATOM     14  C   UNL d   1      12.828  13.102  -4.605  0.00  0.00     0.025 A 
ATOM     15  C   UNL d   1      12.855  12.285  -4.765  0.00  0.00     0.002 A 
ATOM     16  C   UNL d   1      13.229  11.781  -4.231  0.00  0.00     0.000 A 
ATOM     17  C   UNL d   1      13.572  12.089  -3.543  0.00  0.00     0.004 A 
BRANCH  13  18
ATOM     18  O   UNL d   1      13.157  14.206  -3.741  0.00  0.00    -0.307 OA
BRANCH  18  19
ATOM     19  C   UNL d   1      13.352  14.767  -4.318  0.00  0.00     0.100 C 
ATOM     20  C   UNL d   1      12.835  14.899  -4.952  0.00  0.00     0.027 C 
ATOM     21  C   UNL d   1      14.052  15.190  -4.265  0.00  0.00     0.027 C 
ENDBRANCH  18  19
ENDBRANCH  13  18
ENDBRANCH   1  12
TORSDOF 4
ENDMDL
MODEL 2
REMARK VINA RESULT:      25.2      1.202      3.545
REMARK  4 active torsions:
REMARK  status: ('A' for Active; 'I' for Inactive)
REMARK    1  A    between atoms: C_5  and  N_1 
REMARK    2  A    between atoms: C_7  and  C_5 
REMARK    3  A    between atoms: O_10  and  C_8 
REMARK    4  A    between atoms: C_14  and  O_10 
ROOT
ATOM      1  C   UNL d   1      13.964  13.257  -1.788  0.00  0.00     0.086 C 
ENDROOT
BRANCH   1   2
ATOM      2  N   UNL d   1      13.576  12.771  -2.327  0.00  0.00    -0.268 N 
ATOM      3  C   UNL d   1      13.137  12.090  -2.144  0.00  0.00     0.296 A 
ATOM      4  S   UNL d   1      12.850  11.780  -2.853  0.00  0.00    -0.025 SA
ATOM      5  O   UNL d   1      13.012  11.780  -1.391  0.00  0.00    -0.259 OA
ATOM      6  C   UNL d   1      13.105  12.260  -3.470  0.00  0.00     0.050 A 
ATOM      7  C   UNL d   1      13.557  12.876  -3.147  0.00  0.00     0.073 A 
ATOM      8  C   UNL d   1      12.992  12.227  -4.295  0.00  0.00     0.008 A 
ATOM      9  C   UNL d   1      13.888  13.448  -3.634  0.00  0.00     0.018 A 
ATOM     10  C   UNL d   1      13.772  13.410  -4.450  0.00  0.00     0.002 A 
ATOM     11  C   UNL d   1      13.328  12.805  -4.778  0.00  0.00     0.001 A 
ENDBRANCH   1   2
BRANCH   1  12
ATOM     12  C   UNL d   1      14.434  12.919  -1.197  0.00  0.00     0.040 A 
ATOM     13  C   UNL d   1      14.729  13.398  -0.600  0.00  0.00     0.101 A 
ATOM     14  C   UNL d   1      15.194  13.066  -0.015  0.00  0.00     0.025 A 
ATOM     15  C   UNL d   1      15.368  12.251  -0.023  0.00  0.00     0.002 A 
ATOM     16  C   UNL d   1      15.065  11.780  -0.629  0.00  0.00     0.000 A 
ATOM     17  C   UNL d   1      14.595  12.118  -1.220  0.00  0.00     0.004 A 
BRANCH  13  18
ATOM     18  O   UNL d   1      14.541  14.198  -0.618  0.00  0.00    -0.307 OA
BRANCH  18  19
ATOM     19  C   UNL d   1      15.092  14.760  -0.361  0.00  0.00     0.100 C 
ATOM     20  C   UNL d   1      14.921  15.566  -0.435  0.00  0.00     0.027 C 
ATOM     21  C   UNL d   1      15.805  14.520  -0.036  0.00  0.00     0.027 C 
ENDBRANCH  18  19
ENDBRANCH  13  18
ENDBRANCH   1  12
TORSDOF 4
ENDMDL
