MODEL 1
REMARK VINA RESULT:      27.4      0.000      0.000
REMARK  4 active torsions:
REMARK  status: ('A' for Active; 'I' for Inactive)
REMARK    1  A    between atoms: S_11  and  C_7 
REMARK    2  A    between atoms: C_17  and  C_10 
REMARK    3  A    between atoms: C_16  and  S_11 
REMARK    4  A    between atoms: C_20  and  C_17 
ROOT
ATOM      1  N   UNL d   1      46.618 -19.530  41.362  0.00  0.00    -0.224 N 
ATOM      2  N   UNL d   1      46.567 -18.095  41.312  0.00  0.00    -0.241 N 
ATOM      3  C   UNL d   1      46.595 -18.821  40.923  0.00  0.00     0.343 A 
ATOM      4  C   UNL d   1      46.562 -18.078  42.140  0.00  0.00     0.160 A 
ATOM      5  C   UNL d   1      46.613 -19.506  42.186  0.00  0.00     0.273 A 
ATOM      6  C   UNL d   1      46.585 -18.780  42.575  0.00  0.00     0.115 A 
ATOM      7  C   UNL d   1      46.579 -18.755  43.399  0.00  0.00     0.120 A 
ATOM      8  N   UNL d   1      46.533 -17.347  42.537  0.00  0.00    -0.209 NA
ATOM      9  N   UNL d   1      46.551 -18.033  43.790  0.00  0.00    -0.220 NA
ATOM     10  C   UNL d   1      46.528 -17.323  43.360  0.00  0.00     0.165 A 
ATOM     11  O   UNL d   1      46.601 -18.847  40.096  0.00  0.00    -0.245 OA
ATOM     12  O   UNL d   1      46.636 -20.210  42.617  0.00  0.00    -0.266 OA
ATOM     13  C   UNL d   1      46.647 -20.249  40.969  0.00  0.00     0.107 C 
ATOM     14  C   UNL d   1      46.544 -17.393  40.878  0.00  0.00     0.105 C 
ENDROOT
BRANCH   7  15
ATOM     15  S   UNL d   1      46.602 -19.459  43.831  0.00  0.00    -0.068 SA
BRANCH  15  16
ATOM     16  C   UNL d   1      45.904 -19.784  44.130  0.00  0.00     0.031 A 
ATOM     17  C   UNL d   1      45.205 -19.904  43.711  0.00  0.00     0.006 A 
ATOM     18  C   UNL d   1      44.643 -20.239  44.212  0.00  0.00     0.001 A 
ATOM     19  C   UNL d   1      45.005 -20.327  44.955  0.00  0.00     0.001 A 
ATOM     20  C   UNL d   1      45.786 -20.044  44.901  0.00  0.00     0.006 A 
ENDBRANCH  15  16
ENDBRANCH   7  15
BRANCH  10  21
ATOM     21  C   UNL d   1      46.499 -16.598  43.755  0.00  0.00     0.039 C 
BRANCH  21  22
ATOM     22  C   UNL d   1      45.826 -16.395  44.194  0.00  0.00     0.003 C 
ATOM     23  C   UNL d   1      45.855 -15.795  44.747  0.00  0.00     0.000 C 
ENDBRANCH  21  22
ENDBRANCH  10  21
TORSDOF 4
ENDMDL
