MODEL 1
REMARK VINA RESULT:      45.0      0.000      0.000
REMARK  10 active torsions:
REMARK  status: ('A' for Active; 'I' for Inactive)
REMARK       I    between atoms: C_6  and  N_1 
REMARK    1  A    between atoms: C_7  and  C_3 
REMARK    2  A    between atoms: C_9  and  C_4 
REMARK    3  A    between atoms: C_19  and  C_6 
REMARK    4  A    between atoms: C_10  and  C_25 
REMARK    5  A    between atoms: O_23  and  C_10 
REMARK    6  A    between atoms: S_18  and  C_19 
REMARK    7  A    between atoms: C_25  and  S_18 
REMARK    8  A    between atoms: C_26  and  O_23 
REMARK    9  A    between atoms: C_27  and  C_26 
REMARK   10  A    between atoms: C_28  and  C_27 
ROOT
ATOM      1  N   UNL d   1      44.418 -16.170  37.484  0.00  0.00    -0.195 N 
ATOM      2  N   UNL d   1      45.124 -15.746  37.457  0.00  0.00    -0.162 NA
ATOM      3  C   UNL d   1      45.004 -15.078  37.034  0.00  0.00     0.109 A 
ATOM      4  C   UNL d   1      43.860 -15.738  37.061  0.00  0.00     0.088 A 
ATOM      5  C   UNL d   1      44.218 -15.062  36.782  0.00  0.00     0.041 A 
ATOM      6  C   UNL d   1      44.293 -16.898  37.865  0.00  0.00     0.275 C 
ATOM      7  O   UNL d   1      43.554 -17.257  37.845  0.00  0.00    -0.266 OA
ENDROOT
BRANCH   4   8
ATOM      8  C   UNL d   1      43.074 -15.926  36.927  0.00  0.00     0.018 A 
ATOM      9  C   UNL d   1      42.482 -15.460  37.256  0.00  0.00     0.004 A 
ATOM     10  C   UNL d   1      41.695 -15.649  37.122  0.00  0.00     0.030 A 
ATOM     11  C   UNL d   1      41.489 -16.299  36.662  0.00  0.00     0.140 A 
ATOM     12  C   UNL d   1      42.096 -16.766  36.331  0.00  0.00     0.030 A 
ATOM     13  F   UNL d   1      40.697 -16.480  36.532  0.00  0.00    -0.204 F 
ATOM     14  C   UNL d   1      42.880 -16.581  36.463  0.00  0.00     0.004 A 
ENDBRANCH   4   8
BRANCH   6  15
ATOM     15  C   UNL d   1      44.915 -17.260  38.268  0.00  0.00     0.127 C 
BRANCH  15  16
ATOM     16  S   UNL d   1      44.849 -17.432  39.068  0.00  0.00    -0.089 SA
BRANCH  16  17
ATOM     17  C   UNL d   1      45.504 -17.357  39.557  0.00  0.00     0.103 C 
BRANCH  17  18
ATOM     18  C   UNL d   1      45.754 -17.986  40.025  0.00  0.00     0.307 C 
ATOM     19  O   UNL d   1      46.321 -18.511  39.731  0.00  0.00    -0.258 OA
BRANCH  18  20
ATOM     20  O   UNL d   1      45.443 -18.098  40.786  0.00  0.00    -0.271 OA
BRANCH  20  21
ATOM     21  C   UNL d   1      45.944 -18.146  41.432  0.00  0.00     0.126 C 
BRANCH  21  22
ATOM     22  C   UNL d   1      45.944 -18.831  41.907  0.00  0.00     0.027 C 
BRANCH  22  23
ATOM     23  C   UNL d   1      45.978 -18.763  42.729  0.00  0.00     0.002 C 
ATOM     24  C   UNL d   1      46.441 -19.293  43.156  0.00  0.00     0.000 C 
ENDBRANCH  22  23
ENDBRANCH  21  22
ENDBRANCH  20  21
ENDBRANCH  18  20
ENDBRANCH  17  18
ENDBRANCH  16  17
ENDBRANCH  15  16
ENDBRANCH   6  15
BRANCH   3  25
ATOM     25  C   UNL d   1      45.599 -14.523  36.897  0.00  0.00     0.049 A 
ATOM     26  S   UNL d   1      46.296 -14.510  36.470  0.00  0.00    -0.085 SA
ATOM     27  C   UNL d   1      46.644 -13.771  36.563  0.00  0.00     0.035 A 
ATOM     28  C   UNL d   1      46.160 -13.316  37.054  0.00  0.00     0.007 A 
ATOM     29  C   UNL d   1      45.510 -13.780  37.263  0.00  0.00     0.009 A 
ENDBRANCH   3  25
TORSDOF 10
ENDMDL
