MODEL 1
REMARK VINA RESULT:      18.2      0.000      0.000
REMARK  1 active torsions:
REMARK  status: ('A' for Active; 'I' for Inactive)
REMARK    1  A    between atoms: C_9  and  C_2 
ROOT
ATOM      1  N   UNL d   1      60.314  49.703  52.055  0.00  0.00    -0.204 NA
ATOM      2  C   UNL d   1      59.994  49.704  51.292  0.00  0.00     0.107 A 
ATOM      3  C   UNL d   1      61.140  49.702  52.159  0.00  0.00     0.304 A 
ATOM      4  C   UNL d   1      58.856  49.706  50.424  0.00  0.00     0.020 A 
ATOM      5  O   UNL d   1      61.319  49.705  50.733  0.00  0.00    -0.299 OA
ATOM      6  C   UNL d   1      59.183  49.705  51.191  0.00  0.00     0.023 A 
ATOM      7  C   UNL d   1      60.492  49.706  50.629  0.00  0.00     0.118 A 
ATOM      8  O   UNL d   1      61.461  49.701  52.917  0.00  0.00    -0.263 OA
ATOM      9  C   UNL d   1      59.354  49.708  49.768  0.00  0.00     0.004 A 
ATOM     10  C   UNL d   1      61.639  49.704  51.499  0.00  0.00     0.185 A 
ATOM     11  C   UNL d   1      60.168  49.707  49.870  0.00  0.00     0.026 A 
ENDROOT
BRANCH   4  12
ATOM     12  C   UNL d   1      58.036  49.707  50.330  0.00  0.00     0.090 A 
ATOM     13  N   UNL d   1      57.645  49.707  49.604  0.00  0.00    -0.219 NA
ATOM     14  C   UNL d   1      56.832  49.708  49.763  0.00  0.00     0.215 A 
ATOM     15  S   UNL d   1      56.729  49.707  50.581  0.00  0.00    -0.045 SA
ATOM     16  N   UNL d   1      56.226  49.708  49.196  0.00  0.00    -0.120 N 
ATOM     17  C   UNL d   1      57.478  49.707  50.932  0.00  0.00     0.058 A 
ENDBRANCH   4  12
TORSDOF 1
ENDMDL
