MODEL 1
REMARK VINA RESULT:      72.3      0.000      0.000
REMARK  9 active torsions:
REMARK  status: ('A' for Active; 'I' for Inactive)
REMARK    1  A    between atoms: C_27  and  N_1 
REMARK    2  A    between atoms: S_11  and  C_2 
REMARK    3  A    between atoms: C_28  and  S_11 
REMARK    4  A    between atoms: C_18  and  C_28 
REMARK    5  A    between atoms: C_19  and  C_35 
REMARK       I    between atoms: N_23  and  C_19 
REMARK    6  A    between atoms: C_32  and  N_23 
REMARK    7  A    between atoms: C_34  and  C_27 
REMARK    8  A    between atoms: C_30  and  C_32 
REMARK    9  A    between atoms: C_35  and  C_34 
ROOT
ATOM      1  N   UNL d   1     -50.669  26.906  33.620  0.00  0.00    -0.253 N 
ATOM      2  C   UNL d   1     -51.403  27.213  33.409  0.00  0.00     0.182 A 
ATOM      3  C   UNL d   1     -50.579  26.086  33.726  0.00  0.00     0.268 A 
ATOM      4  C   UNL d   1     -51.222  25.579  33.620  0.00  0.00     0.076 A 
ATOM      5  N   UNL d   1     -52.037  26.694  33.306  0.00  0.00    -0.222 NA
ATOM      6  C   UNL d   1     -51.956  25.885  33.408  0.00  0.00     0.090 A 
ATOM      7  C   UNL d   1     -51.131  24.762  33.725  0.00  0.00     0.033 A 
ATOM      8  C   UNL d   1     -52.594  25.358  33.306  0.00  0.00     0.046 A 
ATOM      9  C   UNL d   1     -51.782  24.236  33.619  0.00  0.00     0.119 A 
ATOM     10  C   UNL d   1     -52.516  24.542  33.408  0.00  0.00     0.121 A 
ATOM     11  O   UNL d   1     -49.845  25.780  33.937  0.00  0.00    -0.267 OA
ATOM     12  O   UNL d   1     -51.868  23.402  33.683  0.00  0.00    -0.300 OA
ATOM     13  O   UNL d   1     -53.041  23.897  33.345  0.00  0.00    -0.299 OA
ATOM     14  C   UNL d   1     -52.649  23.188  33.513  0.00  0.00     0.304 A 
ENDROOT
BRANCH   1  15
ATOM     15  C   UNL d   1     -50.018  27.433  33.726  0.00  0.00     0.085 C 
BRANCH  15  16
ATOM     16  C   UNL d   1     -49.903  27.781  34.454  0.00  0.00     0.024 C 
BRANCH  16  17
ATOM     17  C   UNL d   1     -49.167  28.123  34.629  0.00  0.00     0.064 C 
BRANCH  17  18
ATOM     18  C   UNL d   1     -48.854  28.067  35.388  0.00  0.00     0.279 C 
ATOM     19  N   UNL d   1     -48.157  28.468  35.575  0.00  0.00    -0.206 NA
ATOM     20  O   UNL d   1     -49.232  27.613  35.958  0.00  0.00    -0.265 OA
BRANCH  19  21
ATOM     21  C   UNL d   1     -47.776  28.923  35.004  0.00  0.00     0.102 C 
BRANCH  21  22
ATOM     22  C   UNL d   1     -47.580  29.704  35.171  0.00  0.00     0.021 A 
ATOM     23  C   UNL d   1     -47.816  30.301  34.652  0.00  0.00     0.028 A 
ATOM     24  C   UNL d   1     -47.619  31.080  34.820  0.00  0.00     0.119 A 
ATOM     25  O   UNL d   1     -47.773  31.785  34.417  0.00  0.00    -0.300 OA
ATOM     26  C   UNL d   1     -47.191  31.264  35.498  0.00  0.00     0.119 A 
ATOM     27  C   UNL d   1     -47.438  32.399  34.850  0.00  0.00     0.304 A 
ATOM     28  O   UNL d   1     -47.078  32.079  35.519  0.00  0.00    -0.300 OA
ATOM     29  C   UNL d   1     -46.959  30.660  36.011  0.00  0.00     0.026 A 
ATOM     30  C   UNL d   1     -47.154  29.886  35.846  0.00  0.00     0.004 A 
ENDBRANCH  21  22
ENDBRANCH  19  21
ENDBRANCH  17  18
ENDBRANCH  16  17
ENDBRANCH  15  16
ENDBRANCH   1  15
BRANCH   2  31
ATOM     31  S   UNL d   1     -51.475  28.040  33.307  0.00  0.00    -0.044 SA
BRANCH  31  32
ATOM     32  C   UNL d   1     -50.904  28.543  33.641  0.00  0.00     0.102 C 
BRANCH  32  33
ATOM     33  C   UNL d   1     -50.991  29.362  33.576  0.00  0.00     0.303 C 
ATOM     34  O   UNL d   1     -50.329  29.834  33.449  0.00  0.00    -0.263 OA
ATOM     35  N   UNL d   1     -51.740  29.694  33.639  0.00  0.00    -0.102 N 
ENDBRANCH  32  33
ENDBRANCH  31  32
ENDBRANCH   2  31
TORSDOF 9
ENDMDL
