MODEL 1
REMARK VINA RESULT:      -2.0      0.000      0.000
REMARK  3 active torsions:
REMARK  status: ('A' for Active; 'I' for Inactive)
REMARK    1  A    between atoms: S_7  and  C_1 
REMARK    2  A    between atoms: C_16  and  N_2 
REMARK    3  A    between atoms: C_4  and  S_7 
ROOT
ATOM      1  S   UNL d   1     -41.952-122.964 -49.898  0.00  0.00    -0.028 SA
ENDROOT
BRANCH   1   2
ATOM      2  C   UNL d   1     -41.708-123.015 -50.724  0.00  0.00     0.117 A 
ATOM      3  C   UNL d   1     -41.515-122.330 -51.129  0.00  0.00     0.048 A 
ATOM      4  C   UNL d   1     -41.280-122.379 -51.928  0.00  0.00     0.114 A 
ATOM      5  C   UNL d   1     -41.494-121.532 -50.924  0.00  0.00     0.010 A 
ATOM      6  S   UNL d   1     -41.124-121.609 -52.178  0.00  0.00    -0.068 SA
ATOM      7  N   UNL d   1     -41.246-123.112 -52.293  0.00  0.00    -0.217 NA
ATOM      8  C   UNL d   1     -41.265-121.095 -51.531  0.00  0.00     0.031 A 
ATOM      9  C   UNL d   1     -41.176-120.241 -51.531  0.00  0.00     0.007 C 
ATOM     10  C   UNL d   1     -41.442-123.817 -51.887  0.00  0.00     0.200 A 
ATOM     11  N   UNL d   1     -41.677-123.768 -51.088  0.00  0.00    -0.217 NA
ATOM     12  C   UNL d   1     -41.690-121.203 -50.157  0.00  0.00     0.001 C 
ENDBRANCH   1   2
BRANCH   1  13
ATOM     13  C   UNL d   1     -42.689-123.292 -49.675  0.00  0.00     0.220 A 
ATOM     14  N   UNL d   1     -42.882-123.505 -48.870  0.00  0.00    -0.186 N 
ATOM     15  N   UNL d   1     -43.649-123.809 -48.855  0.00  0.00    -0.038 NA
ATOM     16  N   UNL d   1     -43.938-123.791 -49.630  0.00  0.00    -0.022 NA
ATOM     17  N   UNL d   1     -43.351-123.474 -50.133  0.00  0.00    -0.101 NA
BRANCH  14  18
ATOM     18  C   UNL d   1     -42.305-123.378 -48.281  0.00  0.00     0.087 A 
ATOM     19  C   UNL d   1     -41.791-123.817 -48.213  0.00  0.00     0.019 A 
ATOM     20  C   UNL d   1     -41.229-123.698 -47.643  0.00  0.00     0.002 A 
ATOM     21  C   UNL d   1     -41.255-123.035 -47.115  0.00  0.00     0.000 A 
ATOM     22  C   UNL d   1     -41.752-122.625 -47.193  0.00  0.00     0.002 A 
ATOM     23  C   UNL d   1     -42.331-122.715 -47.753  0.00  0.00     0.019 A 
ENDBRANCH  14  18
ENDBRANCH   1  13
TORSDOF 3
ENDMDL
MODEL 2
REMARK VINA RESULT:      -1.2      1.518      4.155
REMARK  3 active torsions:
REMARK  status: ('A' for Active; 'I' for Inactive)
REMARK    1  A    between atoms: S_7  and  C_1 
REMARK    2  A    between atoms: C_16  and  N_2 
REMARK    3  A    between atoms: C_4  and  S_7 
ROOT
ATOM      1  S   UNL d   1     -41.924-122.442 -51.137  0.00  0.00    -0.028 SA
ENDROOT
BRANCH   1   2
ATOM      2  C   UNL d   1     -42.582-122.406 -50.579  0.00  0.00     0.117 A 
ATOM      3  C   UNL d   1     -42.501-122.753 -49.840  0.00  0.00     0.048 A 
ATOM      4  C   UNL d   1     -43.136-122.718 -49.301  0.00  0.00     0.114 A 
ATOM      5  C   UNL d   1     -41.893-123.163 -49.466  0.00  0.00     0.010 A 
ATOM      6  S   UNL d   1     -42.890-123.109 -48.618  0.00  0.00    -0.068 SA
ATOM      7  N   UNL d   1     -43.829-122.338 -49.519  0.00  0.00    -0.217 NA
ATOM      8  C   UNL d   1     -42.107-123.380 -48.745  0.00  0.00     0.031 A 
ATOM      9  C   UNL d   1     -41.623-123.817 -48.187  0.00  0.00     0.007 C 
ATOM     10  C   UNL d   1     -43.920-121.982 -50.271  0.00  0.00     0.200 A 
ATOM     11  N   UNL d   1     -43.285-122.017 -50.810  0.00  0.00    -0.217 NA
ATOM     12  C   UNL d   1     -41.124-123.341 -49.800  0.00  0.00     0.001 C 
ENDBRANCH   1   2
BRANCH   1  13
ATOM     13  C   UNL d   1     -41.620-121.726 -51.446  0.00  0.00     0.220 A 
ATOM     14  N   UNL d   1     -41.399-121.627 -52.265  0.00  0.00    -0.186 N 
ATOM     15  N   UNL d   1     -41.123-120.856 -52.373  0.00  0.00    -0.038 NA
ATOM     16  N   UNL d   1     -41.168-120.474 -51.640  0.00  0.00    -0.022 NA
ATOM     17  N   UNL d   1     -41.472-121.005 -51.073  0.00  0.00    -0.101 NA
BRANCH  14  18
ATOM     18  C   UNL d   1     -41.492-122.278 -52.779  0.00  0.00     0.087 A 
ATOM     19  C   UNL d   1     -41.125-122.841 -52.678  0.00  0.00     0.019 A 
ATOM     20  C   UNL d   1     -41.212-123.475 -53.173  0.00  0.00     0.002 A 
ATOM     21  C   UNL d   1     -41.752-123.467 -53.827  0.00  0.00     0.000 A 
ATOM     22  C   UNL d   1     -42.094-122.921 -53.909  0.00  0.00     0.002 A 
ATOM     23  C   UNL d   1     -42.031-122.269 -53.432  0.00  0.00     0.019 A 
ENDBRANCH  14  18
ENDBRANCH   1  13
TORSDOF 3
ENDMDL
