MODEL 1
REMARK VINA RESULT:      -3.6      0.000      0.000
REMARK  3 active torsions:
REMARK  status: ('A' for Active; 'I' for Inactive)
REMARK    1  A    between atoms: N_6  and  C_1 
REMARK    2  A    between atoms: C_14  and  N_4 
REMARK    3  A    between atoms: C_7  and  N_6 
ROOT
ATOM      1  C   UNL d   1     -41.381-122.417 -51.935  0.00  0.00     0.157 A 
ATOM      2  C   UNL d   1     -41.659-122.997 -51.416  0.00  0.00     0.298 A 
ATOM      3  N   UNL d   1     -41.678-121.838 -50.834  0.00  0.00    -0.238 N 
ATOM      4  N   UNL d   1     -41.846-122.651 -50.734  0.00  0.00    -0.209 N 
ATOM      5  C   UNL d   1     -41.400-121.762 -51.581  0.00  0.00     0.104 A 
ATOM      6  O   UNL d   1     -41.732-123.810 -51.586  0.00  0.00    -0.263 OA
ATOM      7  C   UNL d   1     -41.767-121.205 -50.293  0.00  0.00     0.120 C 
ATOM      8  C   UNL d   1     -41.173-121.065 -51.901  0.00  0.00     0.022 C 
ENDROOT
BRANCH   1   9
ATOM      9  N   UNL d   1     -41.123-122.521 -52.708  0.00  0.00    -0.239 NA
BRANCH   9  10
ATOM     10  C   UNL d   1     -41.592-122.289 -53.321  0.00  0.00     0.082 A 
ATOM     11  C   UNL d   1     -41.607-122.714 -54.051  0.00  0.00     0.021 A 
ATOM     12  C   UNL d   1     -42.082-122.485 -54.678  0.00  0.00     0.040 A 
ATOM     13  C   UNL d   1     -41.130-123.376 -54.128  0.00  0.00     0.002 A 
ATOM     14  C   UNL d   1     -42.088-122.906 -55.384  0.00  0.00     0.003 A 
ATOM     15  C   UNL d   1     -42.559-121.824 -54.601  0.00  0.00     0.196 A 
ATOM     16  C   UNL d   1     -41.601-123.571 -55.444  0.00  0.00     0.000 A 
ATOM     17  C   UNL d   1     -41.127-123.806 -54.828  0.00  0.00     0.000 A 
ATOM     18  C   UNL d   1     -42.561-121.393 -53.897  0.00  0.00     0.044 A 
ATOM     19  O   UNL d   1     -43.053-121.589 -55.260  0.00  0.00    -0.287 OA
ATOM     20  C   UNL d   1     -42.063-121.637 -53.245  0.00  0.00     0.022 A 
ENDBRANCH   9  10
ENDBRANCH   1   9
BRANCH   4  21
ATOM     21  C   UNL d   1     -42.144-123.025 -50.067  0.00  0.00     0.085 A 
ATOM     22  C   UNL d   1     -41.611-123.318 -49.485  0.00  0.00     0.019 A 
ATOM     23  C   UNL d   1     -41.902-123.698 -48.806  0.00  0.00     0.002 A 
ATOM     24  C   UNL d   1     -42.719-123.798 -48.687  0.00  0.00     0.000 A 
ATOM     25  C   UNL d   1     -43.256-123.510 -49.259  0.00  0.00     0.002 A 
ATOM     26  C   UNL d   1     -42.957-123.130 -49.937  0.00  0.00     0.019 A 
ENDBRANCH   4  21
TORSDOF 3
ENDMDL
MODEL 2
REMARK VINA RESULT:      -0.9      1.376      2.295
REMARK  3 active torsions:
REMARK  status: ('A' for Active; 'I' for Inactive)
REMARK    1  A    between atoms: N_6  and  C_1 
REMARK    2  A    between atoms: C_14  and  N_4 
REMARK    3  A    between atoms: C_7  and  N_6 
ROOT
ATOM      1  C   UNL d   1     -42.277-123.484 -50.382  0.00  0.00     0.157 A 
ATOM      2  C   UNL d   1     -41.936-123.314 -49.650  0.00  0.00     0.298 A 
ATOM      3  N   UNL d   1     -43.220-123.439 -49.521  0.00  0.00    -0.238 N 
ATOM      4  N   UNL d   1     -42.508-123.284 -49.110  0.00  0.00    -0.209 N 
ATOM      5  C   UNL d   1     -43.012-123.551 -50.286  0.00  0.00     0.104 A 
ATOM      6  O   UNL d   1     -41.123-123.195 -49.505  0.00  0.00    -0.263 OA
ATOM      7  C   UNL d   1     -44.005-123.477 -49.230  0.00  0.00     0.120 C 
ATOM      8  C   UNL d   1     -43.535-123.714 -50.867  0.00  0.00     0.022 C 
ENDROOT
BRANCH   1   9
ATOM      9  N   UNL d   1     -41.894-123.568 -51.105  0.00  0.00    -0.239 NA
BRANCH   9  10
ATOM     10  C   UNL d   1     -41.713-122.915 -51.540  0.00  0.00     0.082 A 
ATOM     11  C   UNL d   1     -41.510-122.972 -52.359  0.00  0.00     0.021 A 
ATOM     12  C   UNL d   1     -41.325-122.312 -52.808  0.00  0.00     0.040 A 
ATOM     13  C   UNL d   1     -41.499-123.712 -52.708  0.00  0.00     0.002 A 
ATOM     14  C   UNL d   1     -41.128-122.380 -53.603  0.00  0.00     0.003 A 
ATOM     15  C   UNL d   1     -41.335-121.571 -52.458  0.00  0.00     0.196 A 
ATOM     16  C   UNL d   1     -41.123-123.135 -53.939  0.00  0.00     0.000 A 
ATOM     17  C   UNL d   1     -41.305-123.794 -53.502  0.00  0.00     0.000 A 
ATOM     18  C   UNL d   1     -41.531-121.491 -51.661  0.00  0.00     0.044 A 
ATOM     19  O   UNL d   1     -41.141-120.886 -52.933  0.00  0.00    -0.287 OA
ATOM     20  C   UNL d   1     -41.723-122.184 -51.196  0.00  0.00     0.022 A 
ENDBRANCH   9  10
ENDBRANCH   1   9
BRANCH   4  21
ATOM     21  C   UNL d   1     -42.411-123.130 -48.310  0.00  0.00     0.085 A 
ATOM     22  C   UNL d   1     -42.413-122.334 -48.039  0.00  0.00     0.019 A 
ATOM     23  C   UNL d   1     -42.316-122.167 -47.231  0.00  0.00     0.002 A 
ATOM     24  C   UNL d   1     -42.215-122.778 -46.676  0.00  0.00     0.000 A 
ATOM     25  C   UNL d   1     -42.212-123.572 -46.935  0.00  0.00     0.002 A 
ATOM     26  C   UNL d   1     -42.310-123.732 -47.746  0.00  0.00     0.019 A 
ENDBRANCH   4  21
TORSDOF 3
ENDMDL
