MODEL 1
REMARK VINA RESULT:      -8.6      0.000      0.000
REMARK  9 active torsions:
REMARK  status: ('A' for Active; 'I' for Inactive)
REMARK    1  A    between atoms: C_10  and  N_1 
REMARK    2  A    between atoms: S_13  and  C_2 
REMARK    3  A    between atoms: C_6  and  N_11 
REMARK    4  A    between atoms: C_24  and  C_10 
REMARK       I    between atoms: N_11  and  C_15 
REMARK    5  A    between atoms: C_21  and  S_13 
REMARK    6  A    between atoms: C_15  and  C_21 
REMARK    7  A    between atoms: O_27  and  C_17 
REMARK    8  A    between atoms: O_28  and  C_18 
REMARK    9  A    between atoms: C_23  and  C_24 
ROOT
ATOM      1  N   UNL d   1      52.317  33.956  53.415  0.00  0.00    -0.253 N 
ATOM      2  C   UNL d   1      52.657  33.221  53.515  0.00  0.00     0.182 A 
ATOM      3  C   UNL d   1      52.647  34.626  53.782  0.00  0.00     0.268 A 
ATOM      4  N   UNL d   1      53.334  33.136  53.985  0.00  0.00    -0.222 NA
ATOM      5  C   UNL d   1      53.324  34.535  54.251  0.00  0.00     0.074 A 
ATOM      6  C   UNL d   1      53.664  33.799  54.351  0.00  0.00     0.088 A 
ATOM      7  O   UNL d   1      52.308  35.360  53.682  0.00  0.00    -0.267 OA
ATOM      8  C   UNL d   1      53.656  35.206  54.621  0.00  0.00     0.006 A 
ATOM      9  C   UNL d   1      54.344  33.716  54.823  0.00  0.00     0.019 A 
ATOM     10  C   UNL d   1      54.330  35.112  55.086  0.00  0.00     0.000 A 
ATOM     11  C   UNL d   1      54.670  34.377  55.186  0.00  0.00     0.002 A 
ENDROOT
BRANCH   1  12
ATOM     12  C   UNL d   1      51.633  34.045  52.941  0.00  0.00     0.085 C 
BRANCH  12  13
ATOM     13  C   UNL d   1      50.924  34.303  53.277  0.00  0.00     0.019 C 
BRANCH  13  14
ATOM     14  C   UNL d   1      50.280  34.485  52.793  0.00  0.00     0.004 A 
ATOM     15  C   UNL d   1      49.638  34.904  53.101  0.00  0.00     0.026 A 
ATOM     16  C   UNL d   1      48.998  35.086  52.626  0.00  0.00     0.116 A 
ATOM     17  C   UNL d   1      48.993  34.849  51.828  0.00  0.00     0.116 A 
ATOM     18  C   UNL d   1      49.643  34.427  51.526  0.00  0.00     0.026 A 
ATOM     19  C   UNL d   1      50.282  34.248  52.011  0.00  0.00     0.002 A 
BRANCH  16  20
ATOM     20  O   UNL d   1      48.360  35.503  52.932  0.00  0.00    -0.326 OA
ATOM     21  C   UNL d   1      48.453  35.969  53.595  0.00  0.00     0.181 C 
ENDBRANCH  16  20
BRANCH  17  22
ATOM     22  O   UNL d   1      48.361  35.026  51.350  0.00  0.00    -0.326 OA
ATOM     23  C   UNL d   1      48.202  34.582  50.672  0.00  0.00     0.181 C 
ENDBRANCH  17  22
ENDBRANCH  13  14
ENDBRANCH  12  13
ENDBRANCH   1  12
BRANCH   2  24
ATOM     24  S   UNL d   1      52.325  32.546  53.144  0.00  0.00    -0.044 SA
BRANCH  24  25
ATOM     25  C   UNL d   1      52.812  31.934  52.871  0.00  0.00     0.101 C 
BRANCH  25  26
ATOM     26  C   UNL d   1      52.692  31.166  53.140  0.00  0.00     0.287 C 
ATOM     27  N   UNL d   1      53.326  30.690  53.322  0.00  0.00    -0.186 NA
ATOM     28  O   UNL d   1      51.922  30.879  53.226  0.00  0.00    -0.265 OA
BRANCH  27  29
ATOM     29  C   UNL d   1      53.205  29.922  53.591  0.00  0.00     0.194 A 
ATOM     30  N   UNL d   1      52.796  29.319  53.197  0.00  0.00    -0.107 NA
ATOM     31  O   UNL d   1      52.809  28.645  53.665  0.00  0.00    -0.210 OA
ATOM     32  C   UNL d   1      53.226  28.816  54.356  0.00  0.00     0.128 A 
ATOM     33  C   UNL d   1      53.470  29.603  54.310  0.00  0.00     0.068 A 
ATOM     34  C   UNL d   1      53.369  28.296  54.972  0.00  0.00     0.029 C 
ENDBRANCH  27  29
ENDBRANCH  25  26
ENDBRANCH  24  25
ENDBRANCH   2  24
TORSDOF 9
ENDMDL
MODEL 2
REMARK VINA RESULT:      -6.4      1.272      5.155
REMARK  9 active torsions:
REMARK  status: ('A' for Active; 'I' for Inactive)
REMARK    1  A    between atoms: C_10  and  N_1 
REMARK    2  A    between atoms: S_13  and  C_2 
REMARK    3  A    between atoms: C_6  and  N_11 
REMARK    4  A    between atoms: C_24  and  C_10 
REMARK       I    between atoms: N_11  and  C_15 
REMARK    5  A    between atoms: C_21  and  S_13 
REMARK    6  A    between atoms: C_15  and  C_21 
REMARK    7  A    between atoms: O_27  and  C_17 
REMARK    8  A    between atoms: O_28  and  C_18 
REMARK    9  A    between atoms: C_23  and  C_24 
ROOT
ATOM      1  N   UNL d   1      53.433  32.779  53.851  0.00  0.00    -0.253 N 
ATOM      2  C   UNL d   1      52.867  33.363  53.918  0.00  0.00     0.182 A 
ATOM      3  C   UNL d   1      54.183  32.877  54.199  0.00  0.00     0.268 A 
ATOM      4  N   UNL d   1      53.035  34.060  54.334  0.00  0.00    -0.222 NA
ATOM      5  C   UNL d   1      54.345  33.577  54.613  0.00  0.00     0.074 A 
ATOM      6  C   UNL d   1      53.779  34.160  54.680  0.00  0.00     0.088 A 
ATOM      7  O   UNL d   1      54.748  32.294  54.132  0.00  0.00    -0.267 OA
ATOM      8  C   UNL d   1      55.097  33.676  54.963  0.00  0.00     0.006 A 
ATOM      9  C   UNL d   1      53.949  34.860  55.098  0.00  0.00     0.019 A 
ATOM     10  C   UNL d   1      55.255  34.373  55.374  0.00  0.00     0.000 A 
ATOM     11  C   UNL d   1      54.689  34.957  55.441  0.00  0.00     0.002 A 
ENDROOT
BRANCH   1  12
ATOM     12  C   UNL d   1      53.265  32.074  53.432  0.00  0.00     0.085 C 
BRANCH  12  13
ATOM     13  C   UNL d   1      53.673  31.378  53.608  0.00  0.00     0.019 C 
BRANCH  13  14
ATOM     14  C   UNL d   1      53.320  30.645  53.466  0.00  0.00     0.004 A 
ATOM     15  C   UNL d   1      53.346  30.055  54.043  0.00  0.00     0.026 A 
ATOM     16  C   UNL d   1      52.998  29.329  53.907  0.00  0.00     0.116 A 
ATOM     17  C   UNL d   1      52.615  29.181  53.183  0.00  0.00     0.116 A 
ATOM     18  C   UNL d   1      52.593  29.781  52.606  0.00  0.00     0.026 A 
ATOM     19  C   UNL d   1      52.946  30.509  52.752  0.00  0.00     0.002 A 
BRANCH  16  20
ATOM     20  O   UNL d   1      53.024  28.741  54.481  0.00  0.00    -0.326 OA
ATOM     21  C   UNL d   1      53.405  28.877  55.190  0.00  0.00     0.181 C 
ENDBRANCH  16  20
BRANCH  17  22
ATOM     22  O   UNL d   1      52.266  28.462  53.040  0.00  0.00    -0.326 OA
ATOM     23  C   UNL d   1      52.163  28.185  52.268  0.00  0.00     0.181 C 
ENDBRANCH  17  22
ENDBRANCH  13  14
ENDBRANCH  12  13
ENDBRANCH   1  12
BRANCH   2  24
ATOM     24  S   UNL d   1      52.111  33.264  53.568  0.00  0.00    -0.044 SA
BRANCH  24  25
ATOM     25  C   UNL d   1      51.531  33.851  53.648  0.00  0.00     0.101 C 
BRANCH  25  26
ATOM     26  C   UNL d   1      50.888  33.860  53.135  0.00  0.00     0.287 C 
ATOM     27  N   UNL d   1      50.647  34.558  52.791  0.00  0.00    -0.186 NA
ATOM     28  O   UNL d   1      50.488  33.158  52.968  0.00  0.00    -0.265 OA
BRANCH  27  29
ATOM     29  C   UNL d   1      50.004  34.567  52.279  0.00  0.00     0.194 A 
ATOM     30  N   UNL d   1      49.973  34.234  51.520  0.00  0.00    -0.107 NA
ATOM     31  O   UNL d   1      49.227  34.372  51.204  0.00  0.00    -0.210 OA
ATOM     32  C   UNL d   1      48.783  34.792  51.760  0.00  0.00     0.128 A 
ATOM     33  C   UNL d   1      49.262  34.911  52.421  0.00  0.00     0.068 A 
ATOM     34  C   UNL d   1      48.010  35.041  51.667  0.00  0.00     0.029 C 
ENDBRANCH  27  29
ENDBRANCH  25  26
ENDBRANCH  24  25
ENDBRANCH   2  24
TORSDOF 9
ENDMDL
