MODEL 1
REMARK VINA RESULT:      11.5      0.000      0.000
REMARK  4 active torsions:
REMARK  status: ('A' for Active; 'I' for Inactive)
REMARK    1  A    between atoms: C_9  and  C_2 
REMARK    2  A    between atoms: C_7  and  C_9 
REMARK       I    between atoms: N_13  and  C_7 
REMARK    3  A    between atoms: C_10  and  C_19 
REMARK    4  A    between atoms: C_19  and  N_13 
ROOT
ATOM      1  C   UNL d   1      46.403 -18.937  43.667  0.00  0.00     0.100 A 
ATOM      2  C   UNL d   1      46.180 -17.706  44.125  0.00  0.00     0.032 A 
ATOM      3  O   UNL d   1      46.389 -18.965  44.486  0.00  0.00    -0.305 OA
ATOM      4  C   UNL d   1      46.273 -18.153  43.437  0.00  0.00     0.025 A 
ATOM      5  C   UNL d   1      46.250 -18.200  44.775  0.00  0.00     0.123 A 
ATOM      6  C   UNL d   1      46.517 -19.525  43.099  0.00  0.00     0.023 A 
ATOM      7  C   UNL d   1      46.257 -17.960  42.640  0.00  0.00     0.002 A 
ATOM      8  C   UNL d   1      46.501 -19.327  42.293  0.00  0.00     0.002 A 
ATOM      9  C   UNL d   1      46.371 -18.540  42.067  0.00  0.00     0.000 A 
ATOM     10  C   UNL d   1      46.646 -20.303  43.325  0.00  0.00     0.002 C 
ATOM     11  C   UNL d   1      46.614 -19.906  41.725  0.00  0.00     0.000 C 
ENDROOT
BRANCH   2  12
ATOM     12  C   UNL d   1      46.038 -16.889  44.159  0.00  0.00     0.065 C 
BRANCH  12  13
ATOM     13  C   UNL d   1      45.445 -16.586  44.641  0.00  0.00     0.279 C 
ATOM     14  N   UNL d   1      45.423 -15.783  44.810  0.00  0.00    -0.204 NA
ATOM     15  O   UNL d   1      44.873 -17.089  44.954  0.00  0.00    -0.265 OA
BRANCH  14  16
ATOM     16  C   UNL d   1      45.988 -15.272  44.504  0.00  0.00     0.127 C 
BRANCH  16  17
ATOM     17  C   UNL d   1      45.840 -14.467  44.444  0.00  0.00     0.119 A 
ATOM     18  O   UNL d   1      45.300 -14.109  43.950  0.00  0.00    -0.304 OA
ATOM     19  C   UNL d   1      45.336 -13.290  44.075  0.00  0.00     0.123 A 
ATOM     20  C   UNL d   1      45.907 -13.143  44.654  0.00  0.00     0.029 A 
ATOM     21  C   UNL d   1      46.221 -13.871  44.885  0.00  0.00     0.028 A 
ENDBRANCH  16  17
ENDBRANCH  14  16
ENDBRANCH  12  13
ENDBRANCH   2  12
TORSDOF 4
ENDMDL
