MODEL 1
REMARK VINA RESULT:       1.1      0.000      0.000
REMARK  4 active torsions:
REMARK  status: ('A' for Active; 'I' for Inactive)
REMARK    1  A    between atoms: N_10  and  C_3 
REMARK    2  A    between atoms: C_11  and  C_4 
REMARK    3  A    between atoms: C_17  and  N_10 
REMARK       I    between atoms: C_12  and  N_13 
REMARK    4  A    between atoms: N_13  and  C_18 
ROOT
ATOM      1  C   UNL d   1     -41.781-122.252 -53.449  0.00  0.00     0.168 A 
ATOM      2  N   UNL d   1     -41.813-122.644 -52.705  0.00  0.00    -0.184 N 
ATOM      3  C   UNL d   1     -41.620-122.236 -52.049  0.00  0.00     0.218 A 
ATOM      4  C   UNL d   1     -41.972-122.649 -54.118  0.00  0.00     0.057 A 
ATOM      5  N   UNL d   1     -42.230-123.817 -53.356  0.00  0.00    -0.160 NA
ATOM      6  N   UNL d   1     -41.559-121.480 -53.485  0.00  0.00    -0.227 NA
ATOM      7  C   UNL d   1     -41.394-121.455 -52.076  0.00  0.00     0.071 A 
ATOM      8  C   UNL d   1     -42.199-123.438 -54.076  0.00  0.00     0.124 A 
ATOM      9  C   UNL d   1     -41.363-121.069 -52.808  0.00  0.00     0.087 A 
ATOM     10  C   UNL d   1     -41.128-120.254 -52.846  0.00  0.00     0.021 C 
ENDROOT
BRANCH   3  11
ATOM     11  N   UNL d   1     -41.651-122.627 -51.296  0.00  0.00    -0.383 NA
BRANCH  11  12
ATOM     12  C   UNL d   1     -41.709-122.916 -50.511  0.00  0.00     0.134 A 
ATOM     13  C   UNL d   1     -42.312-122.652 -50.001  0.00  0.00     0.034 A 
ATOM     14  C   UNL d   1     -42.362-122.955 -49.200  0.00  0.00     0.022 A 
ATOM     15  C   UNL d   1     -41.801-123.519 -48.926  0.00  0.00     0.085 A 
ATOM     16  C   UNL d   1     -41.187-123.790 -49.439  0.00  0.00     0.022 A 
ATOM     17  C   UNL d   1     -41.134-123.491 -50.239  0.00  0.00     0.034 A 
BRANCH  15  18
ATOM     18  N   UNL d   1     -41.851-123.816 -48.136  0.00  0.00    -0.208 NA
ATOM     19  C   UNL d   1     -41.555-123.360 -47.490  0.00  0.00     0.279 C 
ATOM     20  O   UNL d   1     -41.603-123.651 -46.708  0.00  0.00    -0.265 OA
ATOM     21  C   UNL d   1     -41.207-122.602 -47.635  0.00  0.00     0.068 C 
ENDBRANCH  15  18
ENDBRANCH  11  12
ENDBRANCH   3  11
BRANCH   4  22
ATOM     22  C   UNL d   1     -41.941-122.269 -54.839  0.00  0.00     0.005 A 
ATOM     23  C   UNL d   1     -42.611-121.955 -55.156  0.00  0.00     0.001 A 
ATOM     24  C   UNL d   1     -42.580-121.576 -55.875  0.00  0.00     0.011 A 
ATOM     25  C   UNL d   1     -41.879-121.517 -56.268  0.00  0.00     0.058 A 
ATOM     26  C   UNL d   1     -41.210-121.837 -55.939  0.00  0.00     0.011 A 
ATOM     27 CL   UNL d   1     -41.847-121.120 -57.022  0.00  0.00    -0.082 Cl
ATOM     28  C   UNL d   1     -41.240-122.210 -55.231  0.00  0.00     0.001 A 
ENDBRANCH   4  22
TORSDOF 4
ENDMDL
MODEL 2
REMARK VINA RESULT:       2.1      2.985      5.915
REMARK  4 active torsions:
REMARK  status: ('A' for Active; 'I' for Inactive)
REMARK    1  A    between atoms: N_10  and  C_3 
REMARK    2  A    between atoms: C_11  and  C_4 
REMARK    3  A    between atoms: C_17  and  N_10 
REMARK       I    between atoms: C_12  and  N_13 
REMARK    4  A    between atoms: N_13  and  C_18 
ROOT
ATOM      1  C   UNL d   1     -41.775-122.460 -50.408  0.00  0.00     0.168 A 
ATOM      2  N   UNL d   1     -41.784-122.479 -51.249  0.00  0.00    -0.184 N 
ATOM      3  C   UNL d   1     -41.577-121.822 -51.648  0.00  0.00     0.218 A 
ATOM      4  C   UNL d   1     -41.981-123.113 -49.991  0.00  0.00     0.057 A 
ATOM      5  N   UNL d   1     -42.208-123.817 -51.202  0.00  0.00    -0.160 NA
ATOM      6  N   UNL d   1     -41.560-121.786 -50.025  0.00  0.00    -0.227 NA
ATOM      7  C   UNL d   1     -41.358-121.136 -51.269  0.00  0.00     0.071 A 
ATOM      8  C   UNL d   1     -42.200-123.800 -50.387  0.00  0.00     0.124 A 
ATOM      9  C   UNL d   1     -41.350-121.118 -50.442  0.00  0.00     0.087 A 
ATOM     10  C   UNL d   1     -41.123-120.406 -50.038  0.00  0.00     0.021 C 
ENDROOT
BRANCH   3  11
ATOM     11  N   UNL d   1     -41.585-121.836 -52.497  0.00  0.00    -0.383 NA
BRANCH  11  12
ATOM     12  C   UNL d   1     -41.699-121.831 -53.328  0.00  0.00     0.134 A 
ATOM     13  C   UNL d   1     -41.341-122.406 -53.812  0.00  0.00     0.034 A 
ATOM     14  C   UNL d   1     -41.465-122.392 -54.661  0.00  0.00     0.022 A 
ATOM     15  C   UNL d   1     -41.949-121.798 -55.008  0.00  0.00     0.085 A 
ATOM     16  C   UNL d   1     -42.315-121.212 -54.520  0.00  0.00     0.022 A 
ATOM     17  C   UNL d   1     -42.194-121.222 -53.674  0.00  0.00     0.034 A 
BRANCH  15  18
ATOM     18  N   UNL d   1     -42.070-121.786 -55.844  0.00  0.00    -0.208 NA
ATOM     19  C   UNL d   1     -42.750-122.157 -56.181  0.00  0.00     0.279 C 
ATOM     20  O   UNL d   1     -42.872-122.146 -57.008  0.00  0.00    -0.265 OA
ATOM     21  C   UNL d   1     -43.311-122.543 -55.679  0.00  0.00     0.068 C 
ENDBRANCH  15  18
ENDBRANCH  11  12
ENDBRANCH   3  11
BRANCH   4  22
ATOM     22  C   UNL d   1     -41.972-123.095 -49.176  0.00  0.00     0.005 A 
ATOM     23  C   UNL d   1     -42.651-122.943 -48.772  0.00  0.00     0.001 A 
ATOM     24  C   UNL d   1     -42.642-122.925 -47.958  0.00  0.00     0.011 A 
ATOM     25  C   UNL d   1     -41.955-123.060 -47.561  0.00  0.00     0.058 A 
ATOM     26  C   UNL d   1     -41.276-123.212 -47.979  0.00  0.00     0.011 A 
ATOM     27 CL   UNL d   1     -41.946-123.041 -46.708  0.00  0.00    -0.082 Cl
ATOM     28  C   UNL d   1     -41.285-123.230 -48.780  0.00  0.00     0.001 A 
ENDBRANCH   4  22
TORSDOF 4
ENDMDL
