MODEL 1
REMARK VINA RESULT:      37.4      0.000      0.000
REMARK  2 active torsions:
REMARK  status: ('A' for Active; 'I' for Inactive)
REMARK    1  A    between atoms: C_3  and  N_1 
REMARK    2  A    between atoms: C_12  and  C_9 
ROOT
ATOM      1  C   UNL d   1      45.819 -14.771  44.213  0.00  0.00     0.187 A 
ATOM      2  N   UNL d   1      46.536 -15.059  43.906  0.00  0.00    -0.129 NA
ATOM      3  N   UNL d   1      46.647 -15.873  43.823  0.00  0.00    -0.147 NA
ATOM      4  C   UNL d   1      45.223 -15.293  44.432  0.00  0.00     0.039 A 
ATOM      5  C   UNL d   1      46.041 -16.397  44.046  0.00  0.00     0.103 A 
ATOM      6  C   UNL d   1      45.334 -16.106  44.348  0.00  0.00     0.022 A 
ATOM      7  C   UNL d   1      44.512 -15.003  44.736  0.00  0.00     0.003 A 
ATOM      8  C   UNL d   1      44.734 -16.630  44.569  0.00  0.00     0.002 A 
ATOM      9  C   UNL d   1      44.028 -16.338  44.871  0.00  0.00     0.000 A 
ATOM     10  C   UNL d   1      43.917 -15.525  44.955  0.00  0.00     0.000 A 
ENDROOT
BRANCH   1  11
ATOM     11  N   UNL d   1      45.708 -13.958  44.297  0.00  0.00    -0.191 N 
ATOM     12  N   UNL d   1      45.646 -13.446  44.954  0.00  0.00    -0.058 NA
ATOM     13  N   UNL d   1      45.537 -12.680  44.705  0.00  0.00    -0.129 NA
ATOM     14  C   UNL d   1      45.526 -12.683  43.875  0.00  0.00     0.122 A 
ATOM     15  C   UNL d   1      45.633 -13.479  43.620  0.00  0.00     0.105 A 
ATOM     16  C   UNL d   1      45.436 -12.080  43.321  0.00  0.00     0.022 A 
ATOM     17  C   UNL d   1      45.646 -13.645  42.814  0.00  0.00     0.021 A 
ATOM     18  C   UNL d   1      45.550 -13.008  42.259  0.00  0.00     0.002 A 
ATOM     19  C   UNL d   1      45.449 -12.249  42.544  0.00  0.00     0.002 A 
ENDBRANCH   1  11
BRANCH   5  20
ATOM     20  C   UNL d   1      46.152 -17.210  43.962  0.00  0.00     0.020 A 
ATOM     21  C   UNL d   1      46.014 -17.572  43.226  0.00  0.00     0.004 A 
ATOM     22  C   UNL d   1      46.125 -18.385  43.142  0.00  0.00     0.030 A 
ATOM     23  C   UNL d   1      46.375 -18.837  43.794  0.00  0.00     0.140 A 
ATOM     24  C   UNL d   1      46.510 -18.474  44.520  0.00  0.00     0.030 A 
ATOM     25  F   UNL d   1      46.486 -19.650  43.711  0.00  0.00    -0.204 F 
ATOM     26  C   UNL d   1      46.399 -17.661  44.603  0.00  0.00     0.004 A 
ENDBRANCH   5  20
TORSDOF 2
ENDMDL
