MODEL 1
REMARK VINA RESULT:      22.6      0.000      0.000
REMARK  0 active torsions:
REMARK  status: ('A' for Active; 'I' for Inactive)
ROOT
ATOM      1  N   UNL d   1     -50.785  25.420  33.311  0.00  0.00    -0.176 N 
ATOM      2  C   UNL d   1     -51.610  25.407  33.312  0.00  0.00     0.167 A 
ATOM      3  N   UNL d   1     -50.368  24.738  33.311  0.00  0.00    -0.150 NA
ATOM      4  C   UNL d   1     -50.390  26.165  33.309  0.00  0.00     0.283 A 
ATOM      5  N   UNL d   1     -52.034  26.139  33.312  0.00  0.00    -0.227 NA
ATOM      6  C   UNL d   1     -50.763  23.999  33.313  0.00  0.00     0.159 A 
ATOM      7  C   UNL d   1     -50.808  26.880  33.308  0.00  0.00     0.076 A 
ATOM      8  C   UNL d   1     -52.012  24.712  33.314  0.00  0.00     0.038 A 
ATOM      9  C   UNL d   1     -51.633  26.868  33.310  0.00  0.00     0.088 A 
ATOM     10  C   UNL d   1     -51.588  23.986  33.315  0.00  0.00     0.033 A 
ATOM     11  O   UNL d   1     -49.559  26.178  33.307  0.00  0.00    -0.265 OA
ATOM     12 CL   UNL d   1     -50.346  23.312  33.313  0.00  0.00    -0.060 Cl
ATOM     13  C   UNL d   1     -50.412  27.597  33.306  0.00  0.00     0.006 A 
ATOM     14  C   UNL d   1     -52.836  24.699  33.316  0.00  0.00     0.003 A 
ATOM     15  C   UNL d   1     -51.989  23.287  33.317  0.00  0.00     0.003 A 
ATOM     16  C   UNL d   1     -52.056  27.571  33.309  0.00  0.00     0.019 A 
ATOM     17  C   UNL d   1     -50.830  28.306  33.306  0.00  0.00     0.000 A 
ATOM     18  C   UNL d   1     -53.238  23.960  33.318  0.00  0.00     0.000 A 
ATOM     19  C   UNL d   1     -52.814  23.274  33.318  0.00  0.00     0.000 A 
ATOM     20  C   UNL d   1     -51.655  28.293  33.307  0.00  0.00     0.002 A 
ENDROOT
TORSDOF 0
ENDMDL
MODEL 2
REMARK VINA RESULT:      25.1      1.529      3.441
REMARK  0 active torsions:
REMARK  status: ('A' for Active; 'I' for Inactive)
ROOT
ATOM      1  N   UNL d   1     -51.778  25.743  33.311  0.00  0.00    -0.176 N 
ATOM      2  C   UNL d   1     -51.232  25.124  33.312  0.00  0.00     0.167 A 
ATOM      3  N   UNL d   1     -51.532  26.503  33.310  0.00  0.00    -0.150 NA
ATOM      4  C   UNL d   1     -52.601  25.559  33.312  0.00  0.00     0.283 A 
ATOM      5  N   UNL d   1     -51.513  24.326  33.313  0.00  0.00    -0.227 NA
ATOM      6  C   UNL d   1     -50.713  26.683  33.309  0.00  0.00     0.159 A 
ATOM      7  C   UNL d   1     -52.873  24.776  33.314  0.00  0.00     0.076 A 
ATOM      8  C   UNL d   1     -50.443  25.271  33.311  0.00  0.00     0.038 A 
ATOM      9  C   UNL d   1     -52.327  24.157  33.314  0.00  0.00     0.088 A 
ATOM     10  C   UNL d   1     -50.167  26.065  33.309  0.00  0.00     0.033 A 
ATOM     11  O   UNL d   1     -53.151  26.181  33.312  0.00  0.00    -0.265 OA
ATOM     12 CL   UNL d   1     -50.463  27.447  33.307  0.00  0.00    -0.060 Cl
ATOM     13  C   UNL d   1     -53.674  24.611  33.315  0.00  0.00     0.006 A 
ATOM     14  C   UNL d   1     -49.897  24.653  33.311  0.00  0.00     0.003 A 
ATOM     15  C   UNL d   1     -49.374  26.215  33.308  0.00  0.00     0.003 A 
ATOM     16  C   UNL d   1     -52.586  23.378  33.316  0.00  0.00     0.019 A 
ATOM     17  C   UNL d   1     -53.942  23.832  33.316  0.00  0.00     0.000 A 
ATOM     18  C   UNL d   1     -49.074  24.828  33.310  0.00  0.00     0.000 A 
ATOM     19  C   UNL d   1     -48.828  25.597  33.309  0.00  0.00     0.000 A 
ATOM     20  C   UNL d   1     -53.396  23.213  33.317  0.00  0.00     0.002 A 
ENDROOT
TORSDOF 0
ENDMDL
