MODEL 1
REMARK VINA RESULT:      20.2      0.000      0.000
REMARK  2 active torsions:
REMARK  status: ('A' for Active; 'I' for Inactive)
REMARK    1  A    between atoms: C_3  and  C_1 
REMARK       I    between atoms: N_7  and  C_3 
REMARK    2  A    between atoms: C_11  and  N_7 
ROOT
ATOM      1  C   UNL d   1      46.209 -17.391  43.807  0.00  0.00     0.121 A 
ATOM      2  C   UNL d   1      46.454 -17.690  43.076  0.00  0.00     0.305 A 
ATOM      3  C   UNL d   1      46.078 -17.910  44.429  0.00  0.00     0.012 A 
ATOM      4  O   UNL d   1      46.569 -18.498  42.964  0.00  0.00    -0.273 OA
ATOM      5  C   UNL d   1      46.189 -18.721  44.332  0.00  0.00     0.023 A 
ATOM      6  C   UNL d   1      46.435 -19.013  43.594  0.00  0.00     0.103 A 
ATOM      7  O   UNL d   1      46.589 -17.163  42.438  0.00  0.00    -0.259 OA
ATOM      8  C   UNL d   1      46.058 -19.244  44.955  0.00  0.00     0.002 A 
ATOM      9  C   UNL d   1      46.548 -19.828  43.490  0.00  0.00     0.025 A 
ATOM     10  C   UNL d   1      46.168 -20.039  44.852  0.00  0.00     0.000 A 
ATOM     11  C   UNL d   1      46.415 -20.330  44.114  0.00  0.00     0.002 A 
ENDROOT
BRANCH   1  12
ATOM     12  C   UNL d   1      46.096 -16.577  43.912  0.00  0.00     0.284 C 
ATOM     13  N   UNL d   1      45.679 -16.308  44.576  0.00  0.00    -0.208 NA
ATOM     14  O   UNL d   1      46.397 -16.055  43.360  0.00  0.00    -0.265 OA
BRANCH  13  15
ATOM     15  C   UNL d   1      45.571 -15.491  44.672  0.00  0.00     0.085 A 
ATOM     16  C   UNL d   1      46.220 -14.979  44.750  0.00  0.00     0.021 A 
ATOM     17  C   UNL d   1      46.101 -14.175  44.844  0.00  0.00     0.031 A 
ATOM     18  C   UNL d   1      45.341 -13.868  44.862  0.00  0.00     0.140 A 
ATOM     19  C   UNL d   1      44.686 -14.373  44.784  0.00  0.00     0.031 A 
ATOM     20  F   UNL d   1      45.223 -13.068  44.955  0.00  0.00    -0.204 F 
ATOM     21  C   UNL d   1      44.804 -15.189  44.689  0.00  0.00     0.021 A 
ENDBRANCH  13  15
ENDBRANCH   1  12
TORSDOF 2
ENDMDL
