MODEL 1
REMARK VINA RESULT:      16.3      0.000      0.000
REMARK  1 active torsions:
REMARK  status: ('A' for Active; 'I' for Inactive)
REMARK    1  A    between atoms: C_8  and  N_3 
ROOT
ATOM      1  C   UNL d   1      57.726  49.640  50.676  0.00  0.00     0.292 A 
ATOM      2  C   UNL d   1      56.962  49.644  50.360  0.00  0.00     0.128 A 
ATOM      3  N   UNL d   1      58.373  49.667  50.176  0.00  0.00    -0.194 N 
ATOM      4  N   UNL d   1      58.271  49.699  49.356  0.00  0.00    -0.160 NA
ATOM      5  C   UNL d   1      56.842  49.675  49.545  0.00  0.00     0.094 A 
ATOM      6  C   UNL d   1      57.507  49.703  49.041  0.00  0.00     0.133 A 
ATOM      7  O   UNL d   1      57.839  49.608  51.512  0.00  0.00    -0.264 OA
ATOM      8 CL   UNL d   1      56.274  49.616  50.867  0.00  0.00    -0.076 Cl
ATOM      9 CL   UNL d   1      56.081  49.679  49.231  0.00  0.00    -0.080 Cl
ENDROOT
BRANCH   3  10
ATOM     10  C   UNL d   1      59.147  49.663  50.496  0.00  0.00     0.086 A 
ATOM     11  C   UNL d   1      59.791  49.621  49.984  0.00  0.00     0.019 A 
ATOM     12  C   UNL d   1      60.573  49.617  50.307  0.00  0.00     0.002 A 
ATOM     13  C   UNL d   1      60.669  49.656  51.124  0.00  0.00     0.000 A 
ATOM     14  C   UNL d   1      60.029  49.697  51.626  0.00  0.00     0.002 A 
ATOM     15  C   UNL d   1      59.247  49.701  51.303  0.00  0.00     0.019 A 
ENDBRANCH   3  10
TORSDOF 1
ENDMDL
MODEL 2
REMARK VINA RESULT:      17.5      1.807      3.036
REMARK  1 active torsions:
REMARK  status: ('A' for Active; 'I' for Inactive)
REMARK    1  A    between atoms: C_8  and  N_3 
ROOT
ATOM      1  C   UNL d   1      59.208  49.686  51.114  0.00  0.00     0.292 A 
ATOM      2  C   UNL d   1      60.033  49.691  51.161  0.00  0.00     0.128 A 
ATOM      3  N   UNL d   1      58.841  49.673  50.383  0.00  0.00    -0.194 N 
ATOM      4  N   UNL d   1      59.289  49.664  49.688  0.00  0.00    -0.160 NA
ATOM      5  C   UNL d   1      60.495  49.682  50.477  0.00  0.00     0.094 A 
ATOM      6  C   UNL d   1      60.114  49.668  49.734  0.00  0.00     0.133 A 
ATOM      7  O   UNL d   1      58.744  49.696  51.820  0.00  0.00    -0.264 OA
ATOM      8 CL   UNL d   1      60.433  49.705  51.916  0.00  0.00    -0.076 Cl
ATOM      9 CL   UNL d   1      61.316  49.686  50.524  0.00  0.00    -0.080 Cl
ENDROOT
BRANCH   3  10
ATOM     10  C   UNL d   1      58.005  49.668  50.336  0.00  0.00     0.086 A 
ATOM     11  C   UNL d   1      57.646  49.697  49.595  0.00  0.00     0.019 A 
ATOM     12  C   UNL d   1      56.801  49.693  49.547  0.00  0.00     0.002 A 
ATOM     13  C   UNL d   1      56.361  49.660  50.243  0.00  0.00     0.000 A 
ATOM     14  C   UNL d   1      56.721  49.631  50.973  0.00  0.00     0.002 A 
ATOM     15  C   UNL d   1      57.566  49.636  51.021  0.00  0.00     0.019 A 
ENDBRANCH   3  10
TORSDOF 1
ENDMDL
