MODEL 1
REMARK VINA RESULT:       2.5      0.000      0.000
REMARK  6 active torsions:
REMARK  status: ('A' for Active; 'I' for Inactive)
REMARK    1  A    between atoms: S_5  and  C_3 
REMARK    2  A    between atoms: C_16  and  S_5 
REMARK    3  A    between atoms: C_20  and  N_6 
REMARK    4  A    between atoms: N_19  and  C_25 
REMARK    5  A    between atoms: C_24  and  C_20 
REMARK    6  A    between atoms: C_25  and  C_24 
ROOT
ATOM      1  C   UNL d   1      58.599  -0.954  29.963  0.00  0.00     0.155 A 
ATOM      2  C   UNL d   1      58.697  -0.390  30.558  0.00  0.00     0.092 A 
ATOM      3  C   UNL d   1      57.480  -0.828  31.168  0.00  0.00     0.124 A 
ATOM      4  N   UNL d   1      59.162  -1.016  29.357  0.00  0.00    -0.210 NA
ATOM      5  N   UNL d   1      57.950  -1.449  29.968  0.00  0.00    -0.273 N 
ATOM      6  C   UNL d   1      57.382  -1.391  30.573  0.00  0.00     0.181 A 
ATOM      7  C   UNL d   1      59.360   0.116  30.552  0.00  0.00     0.269 A 
ATOM      8  N   UNL d   1      59.917   0.051  29.950  0.00  0.00    -0.258 N 
ATOM      9  C   UNL d   1      58.137  -0.321  31.168  0.00  0.00     0.022 A 
ATOM     10  C   UNL d   1      59.821  -0.517  29.347  0.00  0.00     0.152 A 
ATOM     11  N   UNL d   1      56.726  -1.894  30.575  0.00  0.00    -0.128 N 
ATOM     12  C   UNL d   1      60.576   0.554  29.943  0.00  0.00     0.084 A 
ATOM     13  O   UNL d   1      59.452   0.679  31.153  0.00  0.00    -0.266 OA
ATOM     14  C   UNL d   1      60.379  -0.576  28.750  0.00  0.00     0.038 A 
ATOM     15  C   UNL d   1      61.130   0.485  29.339  0.00  0.00     0.019 A 
ATOM     16  C   UNL d   1      61.030  -0.085  28.738  0.00  0.00     0.005 A 
ENDROOT
BRANCH   3  17
ATOM     17  S   UNL d   1      56.916  -0.770  31.768  0.00  0.00     0.213 S 
ATOM     18  O   UNL d   1      56.333  -0.510  31.255  0.00  0.00    -0.217 OA
ATOM     19  O   UNL d   1      57.478  -1.031  32.317  0.00  0.00    -0.217 OA
BRANCH  17  20
ATOM     20  C   UNL d   1      56.355  -0.714  32.371  0.00  0.00     0.088 A 
ATOM     21  C   UNL d   1      56.113   0.031  32.631  0.00  0.00     0.011 A 
ATOM     22  C   UNL d   1      55.555   0.094  33.230  0.00  0.00     0.001 A 
ATOM     23  C   UNL d   1      55.238  -0.586  33.572  0.00  0.00     0.000 A 
ATOM     24  C   UNL d   1      55.482  -1.334  33.309  0.00  0.00     0.001 A 
ATOM     25  C   UNL d   1      56.043  -1.389  32.707  0.00  0.00     0.011 A 
ENDBRANCH  17  20
ENDBRANCH   3  17
BRANCH   5  26
ATOM     26  C   UNL d   1      57.851  -2.015  29.370  0.00  0.00     0.085 C 
BRANCH  26  27
ATOM     27  C   UNL d   1      58.404  -2.623  29.287  0.00  0.00     0.038 C 
BRANCH  27  28
ATOM     28  C   UNL d   1      58.262  -3.240  28.772  0.00  0.00     0.082 C 
BRANCH  28  29
ATOM     29  N   UNL d   1      58.802  -3.857  28.698  0.00  0.00    -0.299 N 
ATOM     30  C   UNL d   1      58.534  -4.618  28.536  0.00  0.00     0.107 A 
ATOM     31  C   UNL d   1      59.061  -5.238  28.461  0.00  0.00     0.142 A 
ATOM     32  O   UNL d   1      59.871  -5.106  28.546  0.00  0.00    -0.300 OA
ATOM     33  C   UNL d   1      60.151  -4.343  28.709  0.00  0.00     0.142 A 
ATOM     34  C   UNL d   1      59.610  -3.713  28.785  0.00  0.00     0.107 A 
ENDBRANCH  28  29
ENDBRANCH  27  28
ENDBRANCH  26  27
ENDBRANCH   5  26
TORSDOF 6
ENDMDL
MODEL 2
REMARK VINA RESULT:       3.5      7.138      8.557
REMARK  6 active torsions:
REMARK  status: ('A' for Active; 'I' for Inactive)
REMARK    1  A    between atoms: S_5  and  C_3 
REMARK    2  A    between atoms: C_16  and  S_5 
REMARK    3  A    between atoms: C_20  and  N_6 
REMARK    4  A    between atoms: N_19  and  C_25 
REMARK    5  A    between atoms: C_24  and  C_20 
REMARK    6  A    between atoms: C_25  and  C_24 
ROOT
ATOM      1  C   UNL d   1      59.018  -9.538  31.525  0.00  0.00     0.155 A 
ATOM      2  C   UNL d   1      58.430  -9.317  32.060  0.00  0.00     0.092 A 
ATOM      3  C   UNL d   1      59.415  -9.209  33.092  0.00  0.00     0.124 A 
ATOM      4  N   UNL d   1      58.818  -9.703  30.738  0.00  0.00    -0.210 NA
ATOM      5  N   UNL d   1      59.796  -9.594  31.768  0.00  0.00    -0.273 N 
ATOM      6  C   UNL d   1      60.003  -9.430  32.557  0.00  0.00     0.181 A 
ATOM      7  C   UNL d   1      57.636  -9.260  31.812  0.00  0.00     0.269 A 
ATOM      8  N   UNL d   1      57.440  -9.424  31.030  0.00  0.00    -0.258 N 
ATOM      9  C   UNL d   1      58.622  -9.150  32.852  0.00  0.00     0.022 A 
ATOM     10  C   UNL d   1      58.032  -9.648  30.486  0.00  0.00     0.152 A 
ATOM     11  N   UNL d   1      60.791  -9.488  32.800  0.00  0.00    -0.128 N 
ATOM     12  C   UNL d   1      56.652  -9.368  30.782  0.00  0.00     0.084 A 
ATOM     13  O   UNL d   1      57.050  -9.037  32.355  0.00  0.00    -0.266 OA
ATOM     14  C   UNL d   1      57.832  -9.811  29.709  0.00  0.00     0.038 A 
ATOM     15  C   UNL d   1      56.462  -9.534  29.999  0.00  0.00     0.019 A 
ATOM     16  C   UNL d   1      57.057  -9.757  29.458  0.00  0.00     0.005 A 
ENDROOT
BRANCH   3  17
ATOM     17  S   UNL d   1      59.620  -9.045  33.875  0.00  0.00     0.213 S 
ATOM     18  O   UNL d   1      59.954  -8.323  33.682  0.00  0.00    -0.217 OA
ATOM     19  O   UNL d   1      59.292  -9.768  34.109  0.00  0.00    -0.217 OA
BRANCH  17  20
ATOM     20  C   UNL d   1      59.823  -8.885  34.658  0.00  0.00     0.088 A 
ATOM     21  C   UNL d   1      59.483  -8.238  35.042  0.00  0.00     0.011 A 
ATOM     22  C   UNL d   1      59.681  -8.074  35.821  0.00  0.00     0.001 A 
ATOM     23  C   UNL d   1      60.220  -8.554  36.221  0.00  0.00     0.000 A 
ATOM     24  C   UNL d   1      60.561  -9.204  35.833  0.00  0.00     0.001 A 
ATOM     25  C   UNL d   1      60.357  -9.363  35.050  0.00  0.00     0.011 A 
ENDBRANCH  17  20
ENDBRANCH   3  17
BRANCH   5  26
ATOM     26  C   UNL d   1      60.387  -9.816  31.231  0.00  0.00     0.085 C 
BRANCH  26  27
ATOM     27  C   UNL d   1      60.915  -9.249  30.946  0.00  0.00     0.038 C 
BRANCH  27  28
ATOM     28  C   UNL d   1      61.132  -9.248  30.159  0.00  0.00     0.082 C 
BRANCH  28  29
ATOM     29  N   UNL d   1      61.126  -8.549  29.723  0.00  0.00    -0.299 N 
ATOM     30  C   UNL d   1      61.115  -8.581  28.900  0.00  0.00     0.107 A 
ATOM     31  C   UNL d   1      61.109  -7.894  28.458  0.00  0.00     0.142 A 
ATOM     32  O   UNL d   1      61.114  -7.159  28.833  0.00  0.00    -0.300 OA
ATOM     33  C   UNL d   1      61.125  -7.117  29.661  0.00  0.00     0.142 A 
ATOM     34  C   UNL d   1      61.131  -7.820  30.109  0.00  0.00     0.107 A 
ENDBRANCH  28  29
ENDBRANCH  27  28
ENDBRANCH  26  27
ENDBRANCH   5  26
TORSDOF 6
ENDMDL
