MODEL 1
REMARK VINA RESULT:      62.7      0.000      0.000
REMARK  1 active torsions:
REMARK  status: ('A' for Active; 'I' for Inactive)
REMARK    1  A    between atoms: C_3  and  C_1 
REMARK       I    between atoms: N_2  and  C_3 
ROOT
ATOM      1  N   UNL d   1     -56.534 -99.725 -44.549  0.00  0.00    -0.303 N 
ATOM      2  C   UNL d   1     -57.124 -99.160 -44.758  0.00  0.00     0.244 C 
ATOM      3  C   UNL d   1     -56.662-100.138 -43.827  0.00  0.00     0.088 A 
ATOM      4  C   UNL d   1     -55.232-100.317 -45.029  0.00  0.00     0.037 A 
ATOM      5  C   UNL d   1     -55.890 -99.809 -45.087  0.00  0.00     0.051 A 
ATOM      6  C   UNL d   1     -55.817-100.471 -44.212  0.00  0.00     0.028 A 
ATOM      7  C   UNL d   1     -55.471-101.051 -43.733  0.00  0.00     0.002 A 
ATOM      8  C   UNL d   1     -56.183-100.727 -43.471  0.00  0.00     0.023 A 
ATOM      9  O   UNL d   1     -57.040 -98.755 -45.424  0.00  0.00    -0.271 OA
ATOM     10  C   UNL d   1     -55.058-100.858 -44.430  0.00  0.00     0.006 A 
ATOM     11  C   UNL d   1     -54.712-100.222 -45.696  0.00  0.00     0.006 C 
ATOM     12  C   UNL d   1     -54.756-101.478 -43.850  0.00  0.00     0.000 C 
ATOM     13  C   UNL d   1     -55.600-101.463 -43.011  0.00  0.00     0.000 C 
ENDROOT
BRANCH   2  14
ATOM     14  C   UNL d   1     -57.745 -99.051 -44.281  0.00  0.00     0.111 A 
ATOM     15  C   UNL d   1     -59.162 -98.862 -43.942  0.00  0.00     0.025 A 
ATOM     16  C   UNL d   1     -58.384 -98.940 -43.818  0.00  0.00     0.074 A 
ATOM     17  C   UNL d   1     -59.654 -98.856 -44.570  0.00  0.00     0.002 C 
ATOM     18  C   UNL d   1     -59.644 -98.756 -43.320  0.00  0.00     0.002 C 
ATOM     19  C   UNL d   1     -58.866 -98.837 -43.212  0.00  0.00     0.012 C 
ATOM     20  C   UNL d   1     -57.906 -98.944 -43.189  0.00  0.00    -0.023 A 
ATOM     21  C   UNL d   1     -58.480 -98.993 -44.602  0.00  0.00     0.172 A 
ATOM     22  C   UNL d   1     -57.279 -99.053 -43.654  0.00  0.00    -0.018 A 
ATOM     23  C   UNL d   1     -57.846 -99.103 -45.072  0.00  0.00     0.024 A 
ATOM     24  O   UNL d   1     -59.100 -98.961 -45.094  0.00  0.00    -0.291 OA
ENDBRANCH   2  14
TORSDOF 1
ENDMDL
MODEL 2
REMARK VINA RESULT:      64.2      0.878      1.509
REMARK  1 active torsions:
REMARK  status: ('A' for Active; 'I' for Inactive)
REMARK    1  A    between atoms: C_3  and  C_1 
REMARK       I    between atoms: N_2  and  C_3 
ROOT
ATOM      1  N   UNL d   1     -56.445 -99.761 -44.056  0.00  0.00    -0.303 N 
ATOM      2  C   UNL d   1     -57.019 -99.167 -43.887  0.00  0.00     0.244 C 
ATOM      3  C   UNL d   1     -56.552-100.178 -44.779  0.00  0.00     0.088 A 
ATOM      4  C   UNL d   1     -55.199-100.401 -43.498  0.00  0.00     0.037 A 
ATOM      5  C   UNL d   1     -55.835 -99.864 -43.483  0.00  0.00     0.051 A 
ATOM      6  C   UNL d   1     -55.744-100.542 -44.344  0.00  0.00     0.028 A 
ATOM      7  C   UNL d   1     -55.399-101.144 -44.795  0.00  0.00     0.002 A 
ATOM      8  C   UNL d   1     -56.081-100.793 -45.100  0.00  0.00     0.023 A 
ATOM      9  O   UNL d   1     -56.953 -98.756 -43.223  0.00  0.00    -0.271 OA
ATOM     10  C   UNL d   1     -55.017-100.959 -44.079  0.00  0.00     0.006 A 
ATOM     11  C   UNL d   1     -54.711-100.319 -42.805  0.00  0.00     0.006 C 
ATOM     12  C   UNL d   1     -54.711-101.600 -44.635  0.00  0.00     0.000 C 
ATOM     13  C   UNL d   1     -55.507-101.560 -45.518  0.00  0.00     0.000 C 
ENDROOT
BRANCH   2  14
ATOM     14  C   UNL d   1     -57.608 -99.038 -44.398  0.00  0.00     0.111 A 
ATOM     15  C   UNL d   1     -59.005 -98.914 -44.836  0.00  0.00     0.025 A 
ATOM     16  C   UNL d   1     -58.216 -98.911 -44.898  0.00  0.00     0.074 A 
ATOM     17  C   UNL d   1     -59.544 -99.042 -44.261  0.00  0.00     0.002 C 
ATOM     18  C   UNL d   1     -59.444 -98.756 -45.478  0.00  0.00     0.002 C 
ATOM     19  C   UNL d   1     -58.656 -98.757 -45.524  0.00  0.00     0.012 C 
ATOM     20  C   UNL d   1     -57.691 -98.782 -45.474  0.00  0.00    -0.023 A 
ATOM     21  C   UNL d   1     -58.368 -99.087 -44.141  0.00  0.00     0.172 A 
ATOM     22  C   UNL d   1     -57.096 -98.909 -44.974  0.00  0.00    -0.018 A 
ATOM     23  C   UNL d   1     -57.766 -99.215 -43.636  0.00  0.00     0.024 A 
ATOM     24  O   UNL d   1     -59.025 -99.180 -43.709  0.00  0.00    -0.291 OA
ENDBRANCH   2  14
TORSDOF 1
ENDMDL
MODEL 3
REMARK VINA RESULT:      64.8      1.045      3.458
REMARK  1 active torsions:
REMARK  status: ('A' for Active; 'I' for Inactive)
REMARK    1  A    between atoms: C_3  and  C_1 
REMARK       I    between atoms: N_2  and  C_3 
ROOT
ATOM      1  N   UNL d   1     -57.369 -99.199 -44.909  0.00  0.00    -0.303 N 
ATOM      2  C   UNL d   1     -56.553 -99.345 -45.067  0.00  0.00     0.244 C 
ATOM      3  C   UNL d   1     -57.595 -99.228 -44.099  0.00  0.00     0.088 A 
ATOM      4  C   UNL d   1     -58.674 -98.881 -45.595  0.00  0.00     0.037 A 
ATOM      5  C   UNL d   1     -57.857 -99.042 -45.579  0.00  0.00     0.051 A 
ATOM      6  C   UNL d   1     -58.404 -99.022 -44.625  0.00  0.00     0.028 A 
ATOM      7  C   UNL d   1     -59.070 -98.935 -44.141  0.00  0.00     0.002 A 
ATOM      8  C   UNL d   1     -58.356 -99.109 -43.766  0.00  0.00     0.023 A 
ATOM      9  O   UNL d   1     -56.304 -99.326 -45.810  0.00  0.00    -0.271 OA
ATOM     10  C   UNL d   1     -59.197 -98.836 -44.957  0.00  0.00     0.006 A 
ATOM     11  C   UNL d   1     -58.946 -98.755 -46.392  0.00  0.00     0.006 C 
ATOM     12  C   UNL d   1     -59.864 -98.760 -44.356  0.00  0.00     0.000 C 
ATOM     13  C   UNL d   1     -59.295 -98.964 -43.331  0.00  0.00     0.000 C 
ENDROOT
BRANCH   2  14
ATOM     14  C   UNL d   1     -56.061 -99.496 -44.468  0.00  0.00     0.111 A 
ATOM     15  C   UNL d   1     -55.172-100.315 -43.632  0.00  0.00     0.025 A 
ATOM     16  C   UNL d   1     -55.563 -99.669 -43.869  0.00  0.00     0.074 A 
ATOM     17  C   UNL d   1     -55.096-101.072 -43.874  0.00  0.00     0.002 C 
ATOM     18  C   UNL d   1     -54.711-100.272 -42.987  0.00  0.00     0.002 C 
ATOM     19  C   UNL d   1     -55.107 -99.637 -43.236  0.00  0.00     0.012 C 
ATOM     20  C   UNL d   1     -55.631 -98.922 -43.622  0.00  0.00    -0.023 A 
ATOM     21  C   UNL d   1     -55.755-100.235 -44.388  0.00  0.00     0.172 A 
ATOM     22  C   UNL d   1     -56.122 -98.759 -44.216  0.00  0.00    -0.018 A 
ATOM     23  C   UNL d   1     -56.253-100.070 -44.988  0.00  0.00     0.024 A 
ATOM     24  O   UNL d   1     -55.566-100.999 -44.479  0.00  0.00    -0.291 OA
ENDBRANCH   2  14
TORSDOF 1
ENDMDL
