MODEL 1
REMARK VINA RESULT:      66.5      0.000      0.000
REMARK  5 active torsions:
REMARK  status: ('A' for Active; 'I' for Inactive)
REMARK    1  A    between atoms: N_6  and  S_1 
REMARK    2  A    between atoms: C_11  and  S_1 
REMARK    3  A    between atoms: N_2  and  C_16 
REMARK       I    between atoms: C_9  and  N_8 
REMARK    4  A    between atoms: C_10  and  C_9 
REMARK    5  A    between atoms: C_16  and  C_10 
ROOT
ATOM      1  N   UNL d   1     -50.978  26.870  33.612  0.00  0.00    -0.226 N 
ATOM      2  N   UNL d   1     -50.234  28.335  33.707  0.00  0.00    -0.269 N 
ATOM      3  C   UNL d   1     -49.854  29.066  33.759  0.00  0.00     0.267 C 
ATOM      4  C   UNL d   1     -50.233  26.932  33.957  0.00  0.00     0.111 A 
ATOM      5  C   UNL d   1     -51.362  27.549  33.306  0.00  0.00     0.111 A 
ATOM      6  C   UNL d   1     -49.860  27.667  34.005  0.00  0.00     0.103 A 
ATOM      7  C   UNL d   1     -50.990  28.283  33.354  0.00  0.00     0.103 A 
ATOM      8  O   UNL d   1     -50.224  29.741  33.461  0.00  0.00    -0.267 OA
ENDROOT
BRANCH   3   9
ATOM      9  C   UNL d   1     -49.110  29.120  34.106  0.00  0.00     0.082 C 
BRANCH   9  10
ATOM     10  C   UNL d   1     -48.824  29.857  34.340  0.00  0.00     0.105 C 
BRANCH  10  11
ATOM     11  N   UNL d   1     -48.241  29.901  34.927  0.00  0.00    -0.228 N 
ATOM     12  N   UNL d   1     -48.002  29.293  35.430  0.00  0.00    -0.165 NA
ATOM     13  C   UNL d   1     -47.409  29.578  35.927  0.00  0.00     0.103 A 
ATOM     14  C   UNL d   1     -47.012  29.152  36.518  0.00  0.00     0.022 C 
ATOM     15  C   UNL d   1     -47.276  30.369  35.733  0.00  0.00     0.037 A 
ATOM     16  C   UNL d   1     -47.790  30.572  35.115  0.00  0.00     0.084 A 
ATOM     17  C   UNL d   1     -46.730  30.870  36.090  0.00  0.00     0.003 C 
ATOM     18  C   UNL d   1     -47.837  31.314  34.755  0.00  0.00     0.021 C 
ENDBRANCH  10  11
ENDBRANCH   9  10
ENDBRANCH   3   9
BRANCH   1  19
ATOM     19  S   UNL d   1     -51.352  26.132  33.563  0.00  0.00     0.271 S 
ATOM     20  O   UNL d   1     -50.612  25.753  33.610  0.00  0.00    -0.200 OA
ATOM     21  O   UNL d   1     -52.086  26.508  33.517  0.00  0.00    -0.200 OA
BRANCH  19  22
ATOM     22  C   UNL d   1     -51.729  25.390  33.515  0.00  0.00     0.104 A 
ATOM     23  C   UNL d   1     -52.539  25.340  33.626  0.00  0.00     0.014 A 
ATOM     24  C   UNL d   1     -52.916  24.608  33.579  0.00  0.00     0.012 A 
ATOM     25  C   UNL d   1     -52.475  23.922  33.419  0.00  0.00     0.058 A 
ATOM     26  C   UNL d   1     -51.650  23.974  33.306  0.00  0.00     0.012 A 
ATOM     27 CL   UNL d   1     -52.848  23.188  33.372  0.00  0.00    -0.082 Cl
ATOM     28  C   UNL d   1     -51.274  24.715  33.355  0.00  0.00     0.014 A 
ENDBRANCH  19  22
ENDBRANCH   1  19
TORSDOF 5
ENDMDL
