MODEL 1
REMARK VINA RESULT:      41.6      0.000      0.000
REMARK  3 active torsions:
REMARK  status: ('A' for Active; 'I' for Inactive)
REMARK    1  A    between atoms: N_3  and  C_1 
REMARK    2  A    between atoms: C_5  and  C_2 
REMARK       I    between atoms: C_4  and  N_3 
REMARK    3  A    between atoms: C_10  and  C_4 
ROOT
ATOM      1  N   UNL d   1     -47.641  31.073  35.051  0.00  0.00    -0.201 NA
ATOM      2  C   UNL d   1     -47.410  31.865  35.085  0.00  0.00     0.280 C 
ATOM      3  O   UNL d   1     -46.941  32.133  35.707  0.00  0.00    -0.265 OA
ENDROOT
BRANCH   1   4
ATOM      4  C   UNL d   1     -47.401  30.551  35.643  0.00  0.00     0.119 A 
ATOM      5  C   UNL d   1     -47.588  29.745  35.686  0.00  0.00     0.084 A 
ATOM      6  C   UNL d   1     -47.231  29.435  36.373  0.00  0.00     0.014 A 
ATOM      7  C   UNL d   1     -46.827  30.053  36.745  0.00  0.00     0.037 A 
ATOM      8  S   UNL d   1     -46.934  30.736  36.293  0.00  0.00    -0.067 SA
BRANCH   5   9
ATOM      9  C   UNL d   1     -48.047  29.319  35.149  0.00  0.00     0.299 C 
ATOM     10  O   UNL d   1     -48.771  29.631  34.889  0.00  0.00    -0.264 OA
ATOM     11  N   UNL d   1     -47.788  28.584  34.871  0.00  0.00    -0.102 N 
ENDBRANCH   5   9
ENDBRANCH   1   4
BRANCH   2  12
ATOM     12  C   UNL d   1     -47.652  32.381  34.494  0.00  0.00     0.058 A 
ATOM     13  C   UNL d   1     -47.095  32.687  33.969  0.00  0.00     0.005 A 
ATOM     14  C   UNL d   1     -47.346  33.208  33.374  0.00  0.00     0.000 A 
ATOM     15  C   UNL d   1     -48.139  33.416  33.309  0.00  0.00     0.000 A 
ATOM     16  C   UNL d   1     -48.688  33.105  33.839  0.00  0.00     0.000 A 
ATOM     17  C   UNL d   1     -48.446  32.585  34.435  0.00  0.00     0.005 A 
ENDBRANCH   2  12
TORSDOF 3
ENDMDL
MODEL 2
REMARK VINA RESULT:      44.2      1.475      3.543
REMARK  3 active torsions:
REMARK  status: ('A' for Active; 'I' for Inactive)
REMARK    1  A    between atoms: N_3  and  C_1 
REMARK    2  A    between atoms: C_5  and  C_2 
REMARK       I    between atoms: C_4  and  N_3 
REMARK    3  A    between atoms: C_10  and  C_4 
ROOT
ATOM      1  N   UNL d   1     -47.644  31.772  34.277  0.00  0.00    -0.201 NA
ATOM      2  C   UNL d   1     -47.219  31.589  34.961  0.00  0.00     0.280 C 
ATOM      3  O   UNL d   1     -46.677  32.127  35.269  0.00  0.00    -0.265 OA
ENDROOT
BRANCH   1   4
ATOM      4  C   UNL d   1     -47.524  32.497  33.903  0.00  0.00     0.119 A 
ATOM      5  C   UNL d   1     -48.116  33.021  33.655  0.00  0.00     0.084 A 
ATOM      6  C   UNL d   1     -47.744  33.681  33.306  0.00  0.00     0.014 A 
ATOM      7  C   UNL d   1     -46.928  33.557  33.343  0.00  0.00     0.037 A 
ATOM      8  S   UNL d   1     -46.797  32.829  33.710  0.00  0.00    -0.067 SA
BRANCH   5   9
ATOM      9  C   UNL d   1     -48.930  32.915  33.736  0.00  0.00     0.299 C 
ATOM     10  O   UNL d   1     -49.358  33.406  34.251  0.00  0.00    -0.264 OA
ATOM     11  N   UNL d   1     -49.318  32.324  33.307  0.00  0.00    -0.102 N 
ENDBRANCH   5   9
ENDBRANCH   1   4
BRANCH   2  12
ATOM     12  C   UNL d   1     -47.342  30.865  35.330  0.00  0.00     0.058 A 
ATOM     13  C   UNL d   1     -47.638  30.232  34.895  0.00  0.00     0.005 A 
ATOM     14  C   UNL d   1     -47.760  29.504  35.274  0.00  0.00     0.000 A 
ATOM     15  C   UNL d   1     -47.588  29.416  36.074  0.00  0.00     0.000 A 
ATOM     16  C   UNL d   1     -47.292  30.057  36.500  0.00  0.00     0.000 A 
ATOM     17  C   UNL d   1     -47.168  30.785  36.130  0.00  0.00     0.005 A 
ENDBRANCH   2  12
TORSDOF 3
ENDMDL
