MODEL 1
REMARK VINA RESULT:      -4.3      0.000      0.000
REMARK  4 active torsions:
REMARK  status: ('A' for Active; 'I' for Inactive)
REMARK    1  A    between atoms: N_3  and  C_1 
REMARK    2  A    between atoms: C_6  and  C_2 
REMARK    3  A    between atoms: C_13  and  N_8 
REMARK    4  A    between atoms: C_16  and  C_13 
ROOT
ATOM      1  N   UNL d   1      58.450   0.095  30.267  0.00  0.00    -0.286 N 
ATOM      2  N   UNL d   1      57.556   0.487  31.613  0.00  0.00    -0.300 N 
ATOM      3  C   UNL d   1      58.798   0.070  31.014  0.00  0.00     0.101 A 
ATOM      4  C   UNL d   1      57.651   0.316  30.180  0.00  0.00     0.101 A 
ATOM      5  C   UNL d   1      57.210   0.510  30.848  0.00  0.00     0.100 A 
ATOM      6  C   UNL d   1      58.351   0.265  31.686  0.00  0.00     0.100 A 
ENDROOT
BRANCH   1   7
ATOM      7  C   UNL d   1      59.076  -0.134  29.772  0.00  0.00     0.149 A 
ATOM      8  C   UNL d   1      59.062  -0.893  29.423  0.00  0.00     0.056 A 
ATOM      9  C   UNL d   1      59.682  -1.120  28.933  0.00  0.00     0.006 A 
ATOM     10  C   UNL d   1      59.685  -1.873  28.577  0.00  0.00     0.000 C 
ATOM     11  C   UNL d   1      60.314  -0.593  28.792  0.00  0.00     0.019 A 
ATOM     12  C   UNL d   1      60.318   0.161  29.144  0.00  0.00     0.083 A 
ATOM     13  N   UNL d   1      59.696   0.384  29.633  0.00  0.00    -0.228 NA
ATOM     14  C   UNL d   1      60.946   0.682  29.001  0.00  0.00     0.021 C 
BRANCH   8  15
ATOM     15  C   UNL d   1      58.437  -1.407  29.567  0.00  0.00     0.125 C 
ATOM     16  N   UNL d   1      58.508  -2.205  29.377  0.00  0.00    -0.146 N 
ENDBRANCH   8  15
ENDBRANCH   1   7
BRANCH   2  17
ATOM     17  C   UNL d   1      57.107   0.682  32.277  0.00  0.00     0.080 C 
BRANCH  17  18
ATOM     18  C   UNL d   1      56.559   0.145  32.581  0.00  0.00     0.018 A 
ATOM     19  C   UNL d   1      55.845   0.418  32.882  0.00  0.00     0.002 A 
ATOM     20  C   UNL d   1      55.298  -0.119  33.187  0.00  0.00     0.000 A 
ATOM     21  C   UNL d   1      55.472  -0.920  33.186  0.00  0.00     0.000 A 
ATOM     22  C   UNL d   1      56.189  -1.196  32.884  0.00  0.00     0.000 A 
ATOM     23  C   UNL d   1      56.733  -0.655  32.580  0.00  0.00     0.002 A 
ENDBRANCH  17  18
ENDBRANCH   2  17
TORSDOF 4
ENDMDL
MODEL 2
REMARK VINA RESULT:      -4.2      0.986      4.717
REMARK  4 active torsions:
REMARK  status: ('A' for Active; 'I' for Inactive)
REMARK    1  A    between atoms: N_3  and  C_1 
REMARK    2  A    between atoms: C_6  and  C_2 
REMARK    3  A    between atoms: C_13  and  N_8 
REMARK    4  A    between atoms: C_16  and  C_13 
ROOT
ATOM      1  N   UNL d   1      57.376  -0.243  31.416  0.00  0.00    -0.286 N 
ATOM      2  N   UNL d   1      58.119  -0.580  29.966  0.00  0.00    -0.300 N 
ATOM      3  C   UNL d   1      57.378  -1.013  31.123  0.00  0.00     0.101 A 
ATOM      4  C   UNL d   1      57.745   0.371  30.990  0.00  0.00     0.101 A 
ATOM      5  C   UNL d   1      58.112   0.202  30.273  0.00  0.00     0.100 A 
ATOM      6  C   UNL d   1      57.749  -1.182  30.399  0.00  0.00     0.100 A 
ENDROOT
BRANCH   1   7
ATOM      7  C   UNL d   1      56.958  -0.325  32.128  0.00  0.00     0.149 A 
ATOM      8  C   UNL d   1      57.176   0.145  32.784  0.00  0.00     0.056 A 
ATOM      9  C   UNL d   1      56.762   0.064  33.490  0.00  0.00     0.006 A 
ATOM     10  C   UNL d   1      56.964   0.523  34.154  0.00  0.00     0.000 C 
ATOM     11  C   UNL d   1      56.134  -0.484  33.542  0.00  0.00     0.019 A 
ATOM     12  C   UNL d   1      55.926  -0.947  32.883  0.00  0.00     0.083 A 
ATOM     13  N   UNL d   1      56.342  -0.863  32.179  0.00  0.00    -0.228 NA
ATOM     14  C   UNL d   1      55.302  -1.490  32.938  0.00  0.00     0.021 C 
BRANCH   8  15
ATOM     15  C   UNL d   1      57.795   0.682  32.725  0.00  0.00     0.125 C 
ATOM     16  N   UNL d   1      58.395   0.682  33.289  0.00  0.00    -0.146 N 
ENDBRANCH   8  15
ENDBRANCH   1   7
BRANCH   2  17
ATOM     17  C   UNL d   1      58.490  -0.740  29.247  0.00  0.00     0.080 C 
BRANCH  17  18
ATOM     18  C   UNL d   1      59.301  -0.886  29.220  0.00  0.00     0.018 A 
ATOM     19  C   UNL d   1      59.578  -1.658  29.243  0.00  0.00     0.002 A 
ATOM     20  C   UNL d   1      60.389  -1.804  29.216  0.00  0.00     0.000 A 
ATOM     21  C   UNL d   1      60.912  -1.175  29.166  0.00  0.00     0.000 A 
ATOM     22  C   UNL d   1      60.637  -0.397  29.143  0.00  0.00     0.000 A 
ATOM     23  C   UNL d   1      59.824  -0.256  29.170  0.00  0.00     0.002 A 
ENDBRANCH  17  18
ENDBRANCH   2  17
TORSDOF 4
ENDMDL
MODEL 3
REMARK VINA RESULT:      -4.1      0.697      1.659
REMARK  4 active torsions:
REMARK  status: ('A' for Active; 'I' for Inactive)
REMARK    1  A    between atoms: N_3  and  C_1 
REMARK    2  A    between atoms: C_6  and  C_2 
REMARK    3  A    between atoms: C_13  and  N_8 
REMARK    4  A    between atoms: C_16  and  C_13 
ROOT
ATOM      1  N   UNL d   1      58.860  -0.290  30.229  0.00  0.00    -0.286 N 
ATOM      2  N   UNL d   1      57.600   0.337  31.116  0.00  0.00    -0.300 N 
ATOM      3  C   UNL d   1      58.086  -0.517  30.062  0.00  0.00     0.101 A 
ATOM      4  C   UNL d   1      59.018   0.253  30.841  0.00  0.00     0.101 A 
ATOM      5  C   UNL d   1      58.393   0.562  31.279  0.00  0.00     0.100 A 
ATOM      6  C   UNL d   1      57.456  -0.203  30.505  0.00  0.00     0.100 A 
ENDROOT
BRANCH   1   7
ATOM      7  C   UNL d   1      59.296  -0.722  29.671  0.00  0.00     0.149 A 
ATOM      8  C   UNL d   1      59.999  -0.394  29.360  0.00  0.00     0.056 A 
ATOM      9  C   UNL d   1      60.431  -0.822  28.807  0.00  0.00     0.006 A 
ATOM     10  C   UNL d   1      61.133  -0.511  28.486  0.00  0.00     0.000 C 
ATOM     11  C   UNL d   1      60.163  -1.575  28.565  0.00  0.00     0.019 A 
ATOM     12  C   UNL d   1      59.463  -1.893  28.881  0.00  0.00     0.083 A 
ATOM     13  N   UNL d   1      59.033  -1.462  29.433  0.00  0.00    -0.228 NA
ATOM     14  C   UNL d   1      59.200  -2.641  28.638  0.00  0.00     0.021 C 
BRANCH   8  15
ATOM     15  C   UNL d   1      60.256   0.348  29.603  0.00  0.00     0.125 C 
ATOM     16  N   UNL d   1      61.041   0.569  29.492  0.00  0.00    -0.146 N 
ENDBRANCH   8  15
ENDBRANCH   1   7
BRANCH   2  17
ATOM     17  C   UNL d   1      56.981   0.652  31.560  0.00  0.00     0.080 C 
BRANCH  17  18
ATOM     18  C   UNL d   1      56.672   0.232  32.199  0.00  0.00     0.018 A 
ATOM     19  C   UNL d   1      56.665   0.573  32.946  0.00  0.00     0.002 A 
ATOM     20  C   UNL d   1      56.356   0.153  33.585  0.00  0.00     0.000 A 
ATOM     21  C   UNL d   1      56.058  -0.601  33.469  0.00  0.00     0.000 A 
ATOM     22  C   UNL d   1      56.064  -0.947  32.719  0.00  0.00     0.000 A 
ATOM     23  C   UNL d   1      56.374  -0.523  32.082  0.00  0.00     0.002 A 
ENDBRANCH  17  18
ENDBRANCH   2  17
TORSDOF 4
ENDMDL
MODEL 4
REMARK VINA RESULT:      -3.8      1.352      4.743
REMARK  4 active torsions:
REMARK  status: ('A' for Active; 'I' for Inactive)
REMARK    1  A    between atoms: N_3  and  C_1 
REMARK    2  A    between atoms: C_6  and  C_2 
REMARK    3  A    between atoms: C_13  and  N_8 
REMARK    4  A    between atoms: C_16  and  C_13 
ROOT
ATOM      1  N   UNL d   1      57.053   0.036  32.333  0.00  0.00    -0.286 N 
ATOM      2  N   UNL d   1      57.535   0.058  30.741  0.00  0.00    -0.300 N 
ATOM      3  C   UNL d   1      57.495   0.670  32.045  0.00  0.00     0.101 A 
ATOM      4  C   UNL d   1      56.845  -0.596  31.831  0.00  0.00     0.101 A 
ATOM      5  C   UNL d   1      57.085  -0.583  31.043  0.00  0.00     0.100 A 
ATOM      6  C   UNL d   1      57.736   0.681  31.250  0.00  0.00     0.100 A 
ENDROOT
BRANCH   1   7
ATOM      7  C   UNL d   1      56.937   0.248  33.127  0.00  0.00     0.149 A 
ATOM      8  C   UNL d   1      56.158   0.343  33.413  0.00  0.00     0.056 A 
ATOM      9  C   UNL d   1      56.043   0.552  34.200  0.00  0.00     0.006 A 
ATOM     10  C   UNL d   1      55.274   0.651  34.504  0.00  0.00     0.000 C 
ATOM     11  C   UNL d   1      56.703   0.666  34.700  0.00  0.00     0.019 A 
ATOM     12  C   UNL d   1      57.475   0.568  34.404  0.00  0.00     0.083 A 
ATOM     13  N   UNL d   1      57.585   0.359  33.617  0.00  0.00    -0.228 NA
ATOM     14  C   UNL d   1      58.126   0.682  34.903  0.00  0.00     0.021 C 
BRANCH   8  15
ATOM     15  C   UNL d   1      55.514   0.229  32.916  0.00  0.00     0.125 C 
ATOM     16  N   UNL d   1      54.749   0.348  33.198  0.00  0.00    -0.146 N 
ENDBRANCH   8  15
ENDBRANCH   1   7
BRANCH   2  17
ATOM     17  C   UNL d   1      57.771   0.062  29.951  0.00  0.00     0.080 C 
BRANCH  17  18
ATOM     18  C   UNL d   1      58.503  -0.251  29.733  0.00  0.00     0.018 A 
ATOM     19  C   UNL d   1      58.554  -1.031  29.480  0.00  0.00     0.002 A 
ATOM     20  C   UNL d   1      59.285  -1.343  29.262  0.00  0.00     0.000 A 
ATOM     21  C   UNL d   1      59.955  -0.872  29.300  0.00  0.00     0.000 A 
ATOM     22  C   UNL d   1      59.906  -0.088  29.554  0.00  0.00     0.000 A 
ATOM     23  C   UNL d   1      59.172   0.221  29.771  0.00  0.00     0.002 A 
ENDBRANCH  17  18
ENDBRANCH   2  17
TORSDOF 4
ENDMDL
MODEL 5
REMARK VINA RESULT:      -3.5      9.383      9.800
REMARK  4 active torsions:
REMARK  status: ('A' for Active; 'I' for Inactive)
REMARK    1  A    between atoms: N_3  and  C_1 
REMARK    2  A    between atoms: C_6  and  C_2 
REMARK    3  A    between atoms: C_13  and  N_8 
REMARK    4  A    between atoms: C_16  and  C_13 
ROOT
ATOM      1  N   UNL d   1      59.302  -9.777  32.573  0.00  0.00    -0.286 N 
ATOM      2  N   UNL d   1      59.856  -9.761  34.141  0.00  0.00    -0.300 N 
ATOM      3  C   UNL d   1      60.113  -9.785  32.723  0.00  0.00     0.101 A 
ATOM      4  C   UNL d   1      58.756  -9.760  33.202  0.00  0.00     0.101 A 
ATOM      5  C   UNL d   1      59.033  -9.753  33.978  0.00  0.00     0.100 A 
ATOM      6  C   UNL d   1      60.389  -9.777  33.507  0.00  0.00     0.100 A 
ENDROOT
BRANCH   1   7
ATOM      7  C   UNL d   1      59.276  -9.788  31.743  0.00  0.00     0.149 A 
ATOM      8  C   UNL d   1      58.534  -9.797  31.360  0.00  0.00     0.056 A 
ATOM      9  C   UNL d   1      58.508  -9.808  30.538  0.00  0.00     0.006 A 
ATOM     10  C   UNL d   1      57.778  -9.817  30.138  0.00  0.00     0.000 C 
ATOM     11  C   UNL d   1      59.219  -9.812  30.101  0.00  0.00     0.019 A 
ATOM     12  C   UNL d   1      59.953  -9.803  30.492  0.00  0.00     0.083 A 
ATOM     13  N   UNL d   1      59.975  -9.792  31.314  0.00  0.00    -0.228 NA
ATOM     14  C   UNL d   1      60.656  -9.807  30.055  0.00  0.00     0.021 C 
BRANCH   8  15
ATOM     15  C   UNL d   1      57.838  -9.793  31.797  0.00  0.00     0.125 C 
ATOM     16  N   UNL d   1      57.120  -9.628  31.429  0.00  0.00    -0.146 N 
ENDBRANCH   8  15
ENDBRANCH   1   7
BRANCH   2  17
ATOM     17  C   UNL d   1      60.124  -9.753  34.921  0.00  0.00     0.080 C 
BRANCH  17  18
ATOM     18  C   UNL d   1      60.228  -9.038  35.319  0.00  0.00     0.018 A 
ATOM     19  C   UNL d   1      60.944  -8.640  35.263  0.00  0.00     0.002 A 
ATOM     20  C   UNL d   1      61.047  -7.925  35.661  0.00  0.00     0.000 A 
ATOM     21  C   UNL d   1      60.433  -7.617  36.108  0.00  0.00     0.000 A 
ATOM     22  C   UNL d   1      59.712  -8.015  36.166  0.00  0.00     0.000 A 
ATOM     23  C   UNL d   1      59.613  -8.731  35.766  0.00  0.00     0.002 A 
ENDBRANCH  17  18
ENDBRANCH   2  17
TORSDOF 4
ENDMDL
MODEL 6
REMARK VINA RESULT:      -1.3      1.127      2.207
REMARK  4 active torsions:
REMARK  status: ('A' for Active; 'I' for Inactive)
REMARK    1  A    between atoms: N_3  and  C_1 
REMARK    2  A    between atoms: C_6  and  C_2 
REMARK    3  A    between atoms: C_13  and  N_8 
REMARK    4  A    between atoms: C_16  and  C_13 
ROOT
ATOM      1  N   UNL d   1      57.342  -0.452  31.117  0.00  0.00    -0.286 N 
ATOM      2  N   UNL d   1      56.137  -0.491  32.263  0.00  0.00    -0.300 N 
ATOM      3  C   UNL d   1      57.046  -1.175  31.379  0.00  0.00     0.101 A 
ATOM      4  C   UNL d   1      57.041   0.263  31.423  0.00  0.00     0.101 A 
ATOM      5  C   UNL d   1      56.445   0.241  31.990  0.00  0.00     0.100 A 
ATOM      6  C   UNL d   1      56.444  -1.194  31.952  0.00  0.00     0.100 A 
ENDROOT
BRANCH   1   7
ATOM      7  C   UNL d   1      57.916  -0.684  30.565  0.00  0.00     0.149 A 
ATOM      8  C   UNL d   1      58.537  -0.158  30.377  0.00  0.00     0.056 A 
ATOM      9  C   UNL d   1      59.106  -0.388  29.829  0.00  0.00     0.006 A 
ATOM     10  C   UNL d   1      59.732   0.123  29.629  0.00  0.00     0.000 C 
ATOM     11  C   UNL d   1      59.055  -1.141  29.471  0.00  0.00     0.019 A 
ATOM     12  C   UNL d   1      58.433  -1.658  29.666  0.00  0.00     0.083 A 
ATOM     13  N   UNL d   1      57.866  -1.424  30.213  0.00  0.00    -0.228 NA
ATOM     14  C   UNL d   1      58.386  -2.404  29.308  0.00  0.00     0.021 C 
BRANCH   8  15
ATOM     15  C   UNL d   1      58.580   0.581  30.733  0.00  0.00     0.125 C 
ATOM     16  N   UNL d   1      59.021   0.682  31.422  0.00  0.00    -0.146 N 
ENDBRANCH   8  15
ENDBRANCH   1   7
BRANCH   2  17
ATOM     17  C   UNL d   1      55.540  -0.503  32.832  0.00  0.00     0.080 C 
BRANCH  17  18
ATOM     18  C   UNL d   1      55.652  -0.135  33.562  0.00  0.00     0.018 A 
ATOM     19  C   UNL d   1      56.367  -0.219  33.956  0.00  0.00     0.002 A 
ATOM     20  C   UNL d   1      56.479   0.149  34.685  0.00  0.00     0.000 A 
ATOM     21  C   UNL d   1      55.874   0.596  35.011  0.00  0.00     0.000 A 
ATOM     22  C   UNL d   1      55.153   0.682  34.616  0.00  0.00     0.000 A 
ATOM     23  C   UNL d   1      55.046   0.312  33.886  0.00  0.00     0.002 A 
ENDBRANCH  17  18
ENDBRANCH   2  17
TORSDOF 4
ENDMDL
