MODEL 1
REMARK VINA RESULT:      -3.5      0.000      0.000
REMARK  7 active torsions:
REMARK  status: ('A' for Active; 'I' for Inactive)
REMARK    1  A    between atoms: S_8  and  C_3 
REMARK    2  A    between atoms: C_4  and  C_15 
REMARK       I    between atoms: N_7  and  C_4 
REMARK    3  A    between atoms: C_13  and  C_5 
REMARK    4  A    between atoms: C_6  and  C_9 
REMARK    5  A    between atoms: C_9  and  N_7 
REMARK    6  A    between atoms: C_15  and  S_8 
REMARK    7  A    between atoms: O_17  and  C_11 
ROOT
ATOM      1  S   UNL d   1      33.238  18.844 -22.778  0.00  0.00    -0.061 SA
ENDROOT
BRANCH   1   2
ATOM      2  C   UNL d   1      33.159  19.608 -22.455  0.00  0.00     0.133 A 
ATOM      3  N   UNL d   1      33.018  20.259 -22.943  0.00  0.00    -0.141 NA
ATOM      4  N   UNL d   1      32.941  21.017 -22.609  0.00  0.00    -0.148 NA
ATOM      5  C   UNL d   1      33.006  21.118 -21.794  0.00  0.00     0.103 A 
ATOM      6  C   UNL d   1      33.148  20.467 -21.306  0.00  0.00     0.023 A 
ATOM      7  C   UNL d   1      33.224  19.715 -21.633  0.00  0.00     0.029 A 
BRANCH   5   8
ATOM      8  C   UNL d   1      32.929  21.871 -21.466  0.00  0.00     0.022 A 
ATOM      9  C   UNL d   1      33.237  22.525 -21.863  0.00  0.00     0.022 A 
ATOM     10  C   UNL d   1      33.160  23.281 -21.535  0.00  0.00     0.099 A 
ATOM     11  N   UNL d   1      32.774  23.380 -20.807  0.00  0.00    -0.242 NA
ATOM     12  C   UNL d   1      32.466  22.722 -20.410  0.00  0.00     0.099 A 
ATOM     13  C   UNL d   1      32.543  21.970 -20.738  0.00  0.00     0.022 A 
ENDBRANCH   5   8
ENDBRANCH   1   2
BRANCH   1  14
ATOM     14  C   UNL d   1      32.953  18.679 -23.536  0.00  0.00     0.099 C 
BRANCH  14  15
ATOM     15  C   UNL d   1      32.635  17.937 -23.701  0.00  0.00     0.286 C 
ATOM     16  N   UNL d   1      31.826  17.860 -23.885  0.00  0.00    -0.206 NA
ATOM     17  O   UNL d   1      33.120  17.266 -23.684  0.00  0.00    -0.265 OA
BRANCH  16  18
ATOM     18  C   UNL d   1      31.508  17.118 -24.051  0.00  0.00     0.104 C 
BRANCH  18  19
ATOM     19  C   UNL d   1      30.708  17.045 -24.261  0.00  0.00     0.042 A 
ATOM     20  C   UNL d   1      30.254  16.433 -23.948  0.00  0.00     0.096 A 
ATOM     21  C   UNL d   1      29.458  16.360 -24.157  0.00  0.00     0.024 A 
ATOM     22  C   UNL d   1      29.117  16.900 -24.679  0.00  0.00     0.002 A 
ATOM     23  C   UNL d   1      29.572  17.512 -24.991  0.00  0.00     0.000 A 
ATOM     24  C   UNL d   1      30.367  17.584 -24.782  0.00  0.00     0.004 A 
BRANCH  20  25
ATOM     25  O   UNL d   1      30.606  15.884 -23.416  0.00  0.00    -0.328 OA
ATOM     26  C   UNL d   1      30.132  15.455 -22.895  0.00  0.00     0.181 C 
ENDBRANCH  20  25
ENDBRANCH  18  19
ENDBRANCH  16  18
ENDBRANCH  14  15
ENDBRANCH   1  14
TORSDOF 7
ENDMDL
MODEL 2
REMARK VINA RESULT:      -1.9      0.978      1.494
REMARK  7 active torsions:
REMARK  status: ('A' for Active; 'I' for Inactive)
REMARK    1  A    between atoms: S_8  and  C_3 
REMARK    2  A    between atoms: C_4  and  C_15 
REMARK       I    between atoms: N_7  and  C_4 
REMARK    3  A    between atoms: C_13  and  C_5 
REMARK    4  A    between atoms: C_6  and  C_9 
REMARK    5  A    between atoms: C_9  and  N_7 
REMARK    6  A    between atoms: C_15  and  S_8 
REMARK    7  A    between atoms: O_17  and  C_11 
ROOT
ATOM      1  S   UNL d   1      33.128  19.501 -22.752  0.00  0.00    -0.061 SA
ENDROOT
BRANCH   1   2
ATOM      2  C   UNL d   1      33.109  20.165 -22.248  0.00  0.00     0.133 A 
ATOM      3  N   UNL d   1      33.098  20.930 -22.559  0.00  0.00    -0.141 NA
ATOM      4  N   UNL d   1      33.079  21.584 -22.046  0.00  0.00    -0.148 NA
ATOM      5  C   UNL d   1      33.070  21.470 -21.230  0.00  0.00     0.103 A 
ATOM      6  C   UNL d   1      33.080  20.705 -20.919  0.00  0.00     0.023 A 
ATOM      7  C   UNL d   1      33.099  20.054 -21.424  0.00  0.00     0.029 A 
BRANCH   5   8
ATOM      8  C   UNL d   1      33.051  22.122 -20.724  0.00  0.00     0.022 A 
ATOM      9  C   UNL d   1      32.845  22.863 -21.018  0.00  0.00     0.022 A 
ATOM     10  C   UNL d   1      32.825  23.518 -20.512  0.00  0.00     0.099 A 
ATOM     11  N   UNL d   1      33.013  23.426 -19.709  0.00  0.00    -0.242 NA
ATOM     12  C   UNL d   1      33.220  22.680 -19.416  0.00  0.00     0.099 A 
ATOM     13  C   UNL d   1      33.239  22.030 -19.921  0.00  0.00     0.022 A 
ENDBRANCH   5   8
ENDBRANCH   1   2
BRANCH   1  14
ATOM     14  C   UNL d   1      33.241  19.597 -23.565  0.00  0.00     0.099 C 
BRANCH  14  15
ATOM     15  C   UNL d   1      32.894  19.067 -24.092  0.00  0.00     0.286 C 
ATOM     16  N   UNL d   1      32.443  18.427 -23.805  0.00  0.00    -0.206 NA
ATOM     17  O   UNL d   1      32.993  19.170 -24.907  0.00  0.00    -0.265 OA
BRANCH  16  18
ATOM     18  C   UNL d   1      32.096  17.897 -24.332  0.00  0.00     0.104 C 
BRANCH  18  19
ATOM     19  C   UNL d   1      31.783  17.180 -24.055  0.00  0.00     0.042 A 
ATOM     20  C   UNL d   1      31.011  16.965 -24.247  0.00  0.00     0.096 A 
ATOM     21  C   UNL d   1      30.699  16.252 -23.972  0.00  0.00     0.024 A 
ATOM     22  C   UNL d   1      31.159  15.753 -23.504  0.00  0.00     0.002 A 
ATOM     23  C   UNL d   1      31.931  15.968 -23.312  0.00  0.00     0.000 A 
ATOM     24  C   UNL d   1      32.243  16.682 -23.587  0.00  0.00     0.004 A 
BRANCH  20  25
ATOM     25  O   UNL d   1      30.544  17.478 -24.725  0.00  0.00    -0.328 OA
ATOM     26  C   UNL d   1      29.793  17.240 -24.969  0.00  0.00     0.181 C 
ENDBRANCH  20  25
ENDBRANCH  18  19
ENDBRANCH  16  18
ENDBRANCH  14  15
ENDBRANCH   1  14
TORSDOF 7
ENDMDL
MODEL 3
REMARK VINA RESULT:      -1.8      1.551      5.846
REMARK  7 active torsions:
REMARK  status: ('A' for Active; 'I' for Inactive)
REMARK    1  A    between atoms: S_8  and  C_3 
REMARK    2  A    between atoms: C_4  and  C_15 
REMARK       I    between atoms: N_7  and  C_4 
REMARK    3  A    between atoms: C_13  and  C_5 
REMARK    4  A    between atoms: C_6  and  C_9 
REMARK    5  A    between atoms: C_9  and  N_7 
REMARK    6  A    between atoms: C_15  and  S_8 
REMARK    7  A    between atoms: O_17  and  C_11 
ROOT
ATOM      1  S   UNL d   1      33.234  18.701 -23.117  0.00  0.00    -0.061 SA
ENDROOT
BRANCH   1   2
ATOM      2  C   UNL d   1      32.600  18.280 -23.456  0.00  0.00     0.133 A 
ATOM      3  N   UNL d   1      32.389  18.400 -24.246  0.00  0.00    -0.141 NA
ATOM      4  N   UNL d   1      31.754  17.973 -24.573  0.00  0.00    -0.148 NA
ATOM      5  C   UNL d   1      31.337  17.434 -24.112  0.00  0.00     0.103 A 
ATOM      6  C   UNL d   1      31.547  17.315 -23.322  0.00  0.00     0.023 A 
ATOM      7  C   UNL d   1      32.175  17.735 -22.994  0.00  0.00     0.029 A 
BRANCH   5   8
ATOM      8  C   UNL d   1      30.707  17.013 -24.439  0.00  0.00     0.022 A 
ATOM      9  C   UNL d   1      29.998  17.398 -24.604  0.00  0.00     0.022 A 
ATOM     10  C   UNL d   1      29.366  16.977 -24.933  0.00  0.00     0.099 A 
ATOM     11  N   UNL d   1      29.448  16.167 -25.097  0.00  0.00    -0.242 NA
ATOM     12  C   UNL d   1      30.161  15.783 -24.931  0.00  0.00     0.099 A 
ATOM     13  C   UNL d   1      30.789  16.203 -24.603  0.00  0.00     0.022 A 
ENDBRANCH   5   8
ENDBRANCH   1   2
BRANCH   1  14
ATOM     14  C   UNL d   1      33.240  19.527 -23.128  0.00  0.00     0.099 C 
BRANCH  14  15
ATOM     15  C   UNL d   1      33.229  19.946 -22.418  0.00  0.00     0.286 C 
ATOM     16  N   UNL d   1      33.212  20.780 -22.425  0.00  0.00    -0.206 NA
ATOM     17  O   UNL d   1      33.234  19.539 -21.698  0.00  0.00    -0.265 OA
BRANCH  16  18
ATOM     18  C   UNL d   1      33.200  21.199 -21.716  0.00  0.00     0.104 C 
BRANCH  18  19
ATOM     19  C   UNL d   1      32.925  21.982 -21.699  0.00  0.00     0.042 A 
ATOM     20  C   UNL d   1      32.716  22.331 -20.983  0.00  0.00     0.096 A 
ATOM     21  C   UNL d   1      32.442  23.110 -20.966  0.00  0.00     0.024 A 
ATOM     22  C   UNL d   1      32.377  23.540 -21.666  0.00  0.00     0.002 A 
ATOM     23  C   UNL d   1      32.586  23.191 -22.383  0.00  0.00     0.000 A 
ATOM     24  C   UNL d   1      32.860  22.411 -22.399  0.00  0.00     0.004 A 
BRANCH  20  25
ATOM     25  O   UNL d   1      32.783  21.888 -20.270  0.00  0.00    -0.328 OA
ATOM     26  C   UNL d   1      32.737  22.273 -19.542  0.00  0.00     0.181 C 
ENDBRANCH  20  25
ENDBRANCH  18  19
ENDBRANCH  16  18
ENDBRANCH  14  15
ENDBRANCH   1  14
TORSDOF 7
ENDMDL
