MODEL 1
REMARK VINA RESULT:       0.3      0.000      0.000
REMARK  5 active torsions:
REMARK  status: ('A' for Active; 'I' for Inactive)
REMARK    1  A    between atoms: C_10  and  N_6 
REMARK    2  A    between atoms: N_13  and  C_9 
REMARK    3  A    between atoms: C_14  and  C_10 
REMARK    4  A    between atoms: C_21  and  N_13 
REMARK    5  A    between atoms: C_24  and  C_21 
ROOT
ATOM      1  C   UNL d   1      29.506  17.535 -24.122  0.00  0.00     0.176 A 
ATOM      2  C   UNL d   1      29.571  16.751 -24.261  0.00  0.00     0.159 A 
ATOM      3  N   UNL d   1      30.093  18.041 -24.322  0.00  0.00    -0.181 NA
ATOM      4  N   UNL d   1      28.836  17.831 -23.774  0.00  0.00    -0.240 N 
ATOM      5  N   UNL d   1      28.306  16.548 -23.709  0.00  0.00    -0.223 N 
ATOM      6  N   UNL d   1      30.824  16.951 -24.808  0.00  0.00    -0.258 N 
ATOM      7  C   UNL d   1      28.240  17.345 -23.568  0.00  0.00     0.343 A 
ATOM      8  C   UNL d   1      28.967  16.258 -24.052  0.00  0.00     0.287 A 
ATOM      9  C   UNL d   1      30.746  17.758 -24.660  0.00  0.00     0.292 A 
ATOM     10  O   UNL d   1      27.570  17.636 -23.221  0.00  0.00    -0.245 OA
ATOM     11  O   UNL d   1      29.034  15.453 -24.194  0.00  0.00    -0.265 OA
ATOM     12  C   UNL d   1      28.770  18.623 -23.634  0.00  0.00     0.105 C 
ATOM     13  C   UNL d   1      27.685  16.032 -23.495  0.00  0.00     0.107 C 
ENDROOT
BRANCH   6  14
ATOM     14  C   UNL d   1      31.262  16.315 -25.096  0.00  0.00     0.084 C 
BRANCH  14  15
ATOM     15  C   UNL d   1      31.919  16.026 -24.673  0.00  0.00     0.018 A 
ATOM     16  C   UNL d   1      31.890  16.025 -23.849  0.00  0.00     0.002 A 
ATOM     17  C   UNL d   1      32.547  15.736 -23.425  0.00  0.00     0.000 A 
ATOM     18  C   UNL d   1      32.728  15.644 -22.613  0.00  0.00     0.000 C 
ATOM     19  C   UNL d   1      33.221  15.453 -23.833  0.00  0.00     0.000 A 
ATOM     20  C   UNL d   1      33.224  15.466 -24.659  0.00  0.00     0.000 A 
ATOM     21  C   UNL d   1      32.574  15.752 -25.078  0.00  0.00     0.002 A 
ENDBRANCH  14  15
ENDBRANCH   6  14
BRANCH   9  22
ATOM     22  N   UNL d   1      31.342  18.245 -24.866  0.00  0.00    -0.365 NA
BRANCH  22  23
ATOM     23  C   UNL d   1      31.802  18.910 -25.074  0.00  0.00     0.164 C 
BRANCH  23  24
ATOM     24  C   UNL d   1      32.417  19.169 -24.566  0.00  0.00     0.035 C 
ATOM     25  C   UNL d   1      33.118  19.490 -24.882  0.00  0.00     0.003 C 
ENDBRANCH  23  24
ENDBRANCH  22  23
ENDBRANCH   9  22
TORSDOF 5
ENDMDL
MODEL 2
REMARK VINA RESULT:       1.3      3.137      4.563
REMARK  5 active torsions:
REMARK  status: ('A' for Active; 'I' for Inactive)
REMARK    1  A    between atoms: C_10  and  N_6 
REMARK    2  A    between atoms: N_13  and  C_9 
REMARK    3  A    between atoms: C_14  and  C_10 
REMARK    4  A    between atoms: C_21  and  N_13 
REMARK    5  A    between atoms: C_24  and  C_21 
ROOT
ATOM      1  C   UNL d   1      33.240  20.459 -22.559  0.00  0.00     0.176 A 
ATOM      2  C   UNL d   1      33.241  19.665 -22.646  0.00  0.00     0.159 A 
ATOM      3  N   UNL d   1      33.240  20.945 -23.195  0.00  0.00    -0.181 NA
ATOM      4  N   UNL d   1      33.240  20.787 -21.817  0.00  0.00    -0.240 N 
ATOM      5  N   UNL d   1      33.241  19.514 -21.259  0.00  0.00    -0.223 N 
ATOM      6  N   UNL d   1      33.240  19.814 -24.019  0.00  0.00    -0.258 N 
ATOM      7  C   UNL d   1      33.240  20.321 -21.171  0.00  0.00     0.343 A 
ATOM      8  C   UNL d   1      33.241  19.193 -21.991  0.00  0.00     0.287 A 
ATOM      9  C   UNL d   1      33.240  20.632 -23.918  0.00  0.00     0.292 A 
ATOM     10  O   UNL d   1      33.240  20.644 -20.430  0.00  0.00    -0.245 OA
ATOM     11  O   UNL d   1      33.241  18.378 -22.079  0.00  0.00    -0.265 OA
ATOM     12  C   UNL d   1      33.240  21.589 -21.730  0.00  0.00     0.105 C 
ATOM     13  C   UNL d   1      33.241  19.019 -20.585  0.00  0.00     0.107 C 
ENDROOT
BRANCH   6  14
ATOM     14  C   UNL d   1      33.241  19.154 -24.513  0.00  0.00     0.084 C 
BRANCH  14  15
ATOM     15  C   UNL d   1      32.542  18.718 -24.637  0.00  0.00     0.018 A 
ATOM     16  C   UNL d   1      32.563  17.898 -24.544  0.00  0.00     0.002 A 
ATOM     17  C   UNL d   1      31.864  17.462 -24.668  0.00  0.00     0.000 A 
ATOM     18  C   UNL d   1      31.663  16.651 -24.630  0.00  0.00     0.000 C 
ATOM     19  C   UNL d   1      31.155  17.853 -24.882  0.00  0.00     0.000 A 
ATOM     20  C   UNL d   1      31.161  18.674 -24.968  0.00  0.00     0.000 A 
ATOM     21  C   UNL d   1      31.853  19.106 -24.846  0.00  0.00     0.002 A 
ENDBRANCH  14  15
ENDBRANCH   6  14
BRANCH   9  22
ATOM     22  N   UNL d   1      33.240  21.098 -24.565  0.00  0.00    -0.365 NA
BRANCH  22  23
ATOM     23  C   UNL d   1      33.222  21.749 -25.086  0.00  0.00     0.164 C 
BRANCH  23  24
ATOM     24  C   UNL d   1      32.741  22.414 -24.910  0.00  0.00     0.035 C 
ATOM     25  C   UNL d   1      33.012  23.185 -25.070  0.00  0.00     0.003 C 
ENDBRANCH  23  24
ENDBRANCH  22  23
ENDBRANCH   9  22
TORSDOF 5
ENDMDL
MODEL 3
REMARK VINA RESULT:       1.3      1.202      2.685
REMARK  5 active torsions:
REMARK  status: ('A' for Active; 'I' for Inactive)
REMARK    1  A    between atoms: C_10  and  N_6 
REMARK    2  A    between atoms: N_13  and  C_9 
REMARK    3  A    between atoms: C_14  and  C_10 
REMARK    4  A    between atoms: C_21  and  N_13 
REMARK    5  A    between atoms: C_24  and  C_21 
ROOT
ATOM      1  C   UNL d   1      30.102  16.497 -23.714  0.00  0.00     0.176 A 
ATOM      2  C   UNL d   1      30.169  17.075 -24.261  0.00  0.00     0.159 A 
ATOM      3  N   UNL d   1      30.746  16.108 -23.441  0.00  0.00    -0.181 NA
ATOM      4  N   UNL d   1      29.372  16.294 -23.425  0.00  0.00    -0.240 N 
ATOM      5  N   UNL d   1      28.786  17.256 -24.239  0.00  0.00    -0.223 N 
ATOM      6  N   UNL d   1      31.539  16.896 -24.282  0.00  0.00    -0.258 N 
ATOM      7  C   UNL d   1      28.718  16.668 -23.683  0.00  0.00     0.343 A 
ATOM      8  C   UNL d   1      29.506  17.455 -24.522  0.00  0.00     0.287 A 
ATOM      9  C   UNL d   1      31.458  16.301 -23.718  0.00  0.00     0.292 A 
ATOM     10  O   UNL d   1      27.988  16.469 -23.398  0.00  0.00    -0.245 OA
ATOM     11  O   UNL d   1      29.575  18.049 -25.083  0.00  0.00    -0.265 OA
ATOM     12  C   UNL d   1      29.304  15.709 -22.873  0.00  0.00     0.105 C 
ATOM     13  C   UNL d   1      28.104  17.653 -24.515  0.00  0.00     0.107 C 
ENDROOT
BRANCH   6  14
ATOM     14  C   UNL d   1      32.014  17.356 -24.774  0.00  0.00     0.084 C 
BRANCH  14  15
ATOM     15  C   UNL d   1      32.348  18.067 -24.497  0.00  0.00     0.018 A 
ATOM     16  C   UNL d   1      32.378  18.201 -23.684  0.00  0.00     0.002 A 
ATOM     17  C   UNL d   1      32.712  18.912 -23.406  0.00  0.00     0.000 A 
ATOM     18  C   UNL d   1      32.842  19.245 -22.649  0.00  0.00     0.000 C 
ATOM     19  C   UNL d   1      33.011  19.478 -23.947  0.00  0.00     0.000 A 
ATOM     20  C   UNL d   1      32.967  19.319 -24.757  0.00  0.00     0.000 A 
ATOM     21  C   UNL d   1      32.637  18.615 -25.031  0.00  0.00     0.002 A 
ENDBRANCH  14  15
ENDBRANCH   6  14
BRANCH   9  22
ATOM     22  N   UNL d   1      32.112  15.927 -23.460  0.00  0.00    -0.365 NA
BRANCH  22  23
ATOM     23  C   UNL d   1      32.821  15.490 -23.410  0.00  0.00     0.164 C 
BRANCH  23  24
ATOM     24  C   UNL d   1      33.241  15.453 -22.685  0.00  0.00     0.035 C 
ATOM     25  C   UNL d   1      32.831  15.471 -21.959  0.00  0.00     0.003 C 
ENDBRANCH  23  24
ENDBRANCH  22  23
ENDBRANCH   9  22
TORSDOF 5
ENDMDL
MODEL 4
REMARK VINA RESULT:       3.0      2.161      4.140
REMARK  5 active torsions:
REMARK  status: ('A' for Active; 'I' for Inactive)
REMARK    1  A    between atoms: C_10  and  N_6 
REMARK    2  A    between atoms: N_13  and  C_9 
REMARK    3  A    between atoms: C_14  and  C_10 
REMARK    4  A    between atoms: C_21  and  N_13 
REMARK    5  A    between atoms: C_24  and  C_21 
ROOT
ATOM      1  C   UNL d   1      32.563  18.548 -23.332  0.00  0.00     0.176 A 
ATOM      2  C   UNL d   1      32.228  18.837 -23.997  0.00  0.00     0.159 A 
ATOM      3  N   UNL d   1      32.572  17.762 -23.180  0.00  0.00    -0.181 NA
ATOM      4  N   UNL d   1      32.902  19.053 -22.795  0.00  0.00    -0.240 N 
ATOM      5  N   UNL d   1      32.563  20.133 -23.603  0.00  0.00    -0.223 N 
ATOM      6  N   UNL d   1      31.896  17.554 -24.387  0.00  0.00    -0.258 N 
ATOM      7  C   UNL d   1      32.904  19.839 -22.927  0.00  0.00     0.343 A 
ATOM      8  C   UNL d   1      32.230  19.633 -24.130  0.00  0.00     0.287 A 
ATOM      9  C   UNL d   1      32.245  17.267 -23.698  0.00  0.00     0.292 A 
ATOM     10  O   UNL d   1      33.241  20.346 -22.395  0.00  0.00    -0.245 OA
ATOM     11  O   UNL d   1      31.886  19.930 -24.813  0.00  0.00    -0.265 OA
ATOM     12  C   UNL d   1      33.241  18.762 -22.123  0.00  0.00     0.105 C 
ATOM     13  C   UNL d   1      32.561  20.956 -23.748  0.00  0.00     0.107 C 
ENDROOT
BRANCH   6  14
ATOM     14  C   UNL d   1      31.498  17.421 -25.097  0.00  0.00     0.084 C 
BRANCH  14  15
ATOM     15  C   UNL d   1      30.696  17.195 -25.096  0.00  0.00     0.018 A 
ATOM     16  C   UNL d   1      30.118  17.784 -25.097  0.00  0.00     0.002 A 
ATOM     17  C   UNL d   1      29.316  17.558 -25.096  0.00  0.00     0.000 A 
ATOM     18  C   UNL d   1      28.589  17.972 -25.096  0.00  0.00     0.000 C 
ATOM     19  C   UNL d   1      29.105  16.747 -25.095  0.00  0.00     0.000 A 
ATOM     20  C   UNL d   1      29.705  16.179 -25.095  0.00  0.00     0.000 A 
ATOM     21  C   UNL d   1      30.498  16.402 -25.095  0.00  0.00     0.002 A 
ENDBRANCH  14  15
ENDBRANCH   6  14
BRANCH   9  22
ATOM     22  N   UNL d   1      32.243  16.481 -23.566  0.00  0.00    -0.365 NA
BRANCH  22  23
ATOM     23  C   UNL d   1      32.466  15.690 -23.421  0.00  0.00     0.164 C 
BRANCH  23  24
ATOM     24  C   UNL d   1      33.191  15.524 -23.032  0.00  0.00     0.035 C 
ATOM     25  C   UNL d   1      33.232  15.517 -22.200  0.00  0.00     0.003 C 
ENDBRANCH  23  24
ENDBRANCH  22  23
ENDBRANCH   9  22
TORSDOF 5
ENDMDL
