MODEL 1
REMARK VINA RESULT:      -8.1      0.000      0.000
REMARK  5 active torsions:
REMARK  status: ('A' for Active; 'I' for Inactive)
REMARK    1  A    between atoms: N_2  and  S_1 
REMARK    2  A    between atoms: C_5  and  S_1 
REMARK    3  A    between atoms: S_6  and  C_3 
REMARK    4  A    between atoms: C_15  and  S_6 
REMARK    5  A    between atoms: C_14  and  C_15 
ROOT
ATOM      1  N   UNL d   1     -49.705  12.605  22.519  0.00  0.00    -0.208 N 
ATOM      2  C   UNL d   1     -49.262  12.129  23.034  0.00  0.00     0.189 A 
ATOM      3  N   UNL d   1     -49.787  11.705  23.510  0.00  0.00    -0.219 NA
ATOM      4  C   UNL d   1     -50.510  12.473  22.678  0.00  0.00     0.114 A 
ATOM      5  C   UNL d   1     -50.556  11.920  23.288  0.00  0.00     0.121 A 
ENDROOT
BRANCH   1   6
ATOM      6  S   UNL d   1     -49.396  13.119  21.947  0.00  0.00     0.273 S 
ATOM      7  O   UNL d   1     -49.003  13.414  21.281  0.00  0.00    -0.200 OA
ATOM      8  O   UNL d   1     -49.087  12.460  21.573  0.00  0.00    -0.200 OA
BRANCH   6   9
ATOM      9  C   UNL d   1     -49.699  13.796  22.310  0.00  0.00     0.104 A 
ATOM     10  C   UNL d   1     -49.208  14.249  22.787  0.00  0.00     0.013 A 
ATOM     11  C   UNL d   1     -49.516  14.926  23.149  0.00  0.00     0.001 A 
ATOM     12  C   UNL d   1     -50.306  15.141  23.032  0.00  0.00     0.000 A 
ATOM     13  C   UNL d   1     -50.792  14.677  22.550  0.00  0.00     0.001 A 
ATOM     14  C   UNL d   1     -50.610  15.817  23.396  0.00  0.00     0.000 C 
ATOM     15  C   UNL d   1     -50.484  14.000  22.188  0.00  0.00     0.013 A 
ENDBRANCH   6   9
ENDBRANCH   1   6
BRANCH   2  16
ATOM     16  S   UNL d   1     -48.431  12.086  23.065  0.00  0.00    -0.049 SA
BRANCH  16  17
ATOM     17  C   UNL d   1     -48.066  11.672  23.676  0.00  0.00     0.040 C 
BRANCH  17  18
ATOM     18  C   UNL d   1     -47.252  11.550  23.658  0.00  0.00     0.026 A 
ATOM     19  C   UNL d   1     -46.732  12.206  23.597  0.00  0.00     0.099 A 
ATOM     20  N   UNL d   1     -45.918  12.100  23.578  0.00  0.00    -0.242 NA
ATOM     21  C   UNL d   1     -45.619  11.334  23.619  0.00  0.00     0.099 A 
ATOM     22  C   UNL d   1     -46.124  10.688  23.678  0.00  0.00     0.021 A 
ATOM     23  C   UNL d   1     -46.941  10.798  23.698  0.00  0.00     0.004 A 
ENDBRANCH  17  18
ENDBRANCH  16  17
ENDBRANCH   2  16
TORSDOF 5
ENDMDL
MODEL 2
REMARK VINA RESULT:      -7.9      1.446      2.353
REMARK  5 active torsions:
REMARK  status: ('A' for Active; 'I' for Inactive)
REMARK    1  A    between atoms: N_2  and  S_1 
REMARK    2  A    between atoms: C_5  and  S_1 
REMARK    3  A    between atoms: S_6  and  C_3 
REMARK    4  A    between atoms: C_15  and  S_6 
REMARK    5  A    between atoms: C_14  and  C_15 
ROOT
ATOM      1  N   UNL d   1     -48.798  13.719  22.141  0.00  0.00    -0.208 N 
ATOM      2  C   UNL d   1     -48.052  13.914  22.448  0.00  0.00     0.189 A 
ATOM      3  N   UNL d   1     -48.139  14.574  22.937  0.00  0.00    -0.219 NA
ATOM      4  C   UNL d   1     -49.349  14.263  22.443  0.00  0.00     0.114 A 
ATOM      5  C   UNL d   1     -48.940  14.786  22.932  0.00  0.00     0.121 A 
ENDROOT
BRANCH   1   6
ATOM      6  S   UNL d   1     -48.961  13.092  21.624  0.00  0.00     0.273 S 
ATOM      7  O   UNL d   1     -48.958  12.594  20.964  0.00  0.00    -0.200 OA
ATOM      8  O   UNL d   1     -48.442  13.440  21.096  0.00  0.00    -0.200 OA
BRANCH   6   9
ATOM      9  C   UNL d   1     -49.487  12.726  22.144  0.00  0.00     0.104 A 
ATOM     10  C   UNL d   1     -49.225  12.099  22.604  0.00  0.00     0.013 A 
ATOM     11  C   UNL d   1     -49.756  11.735  23.124  0.00  0.00     0.001 A 
ATOM     12  C   UNL d   1     -50.537  11.999  23.177  0.00  0.00     0.000 A 
ATOM     13  C   UNL d   1     -50.791  12.631  22.708  0.00  0.00     0.001 A 
ATOM     14  C   UNL d   1     -51.064  11.633  23.697  0.00  0.00     0.000 C 
ATOM     15  C   UNL d   1     -50.261  12.995  22.189  0.00  0.00     0.013 A 
ENDBRANCH   6   9
ENDBRANCH   1   6
BRANCH   2  16
ATOM     16  S   UNL d   1     -47.340  13.514  22.290  0.00  0.00    -0.049 SA
BRANCH  16  17
ATOM     17  C   UNL d   1     -46.671  13.675  22.742  0.00  0.00     0.040 C 
BRANCH  17  18
ATOM     18  C   UNL d   1     -45.966  13.280  22.586  0.00  0.00     0.026 A 
ATOM     19  C   UNL d   1     -45.385  13.637  22.099  0.00  0.00     0.099 A 
ATOM     20  N   UNL d   1     -44.677  13.255  21.934  0.00  0.00    -0.242 NA
ATOM     21  C   UNL d   1     -44.548  12.509  22.257  0.00  0.00     0.099 A 
ATOM     22  C   UNL d   1     -45.115  12.154  22.736  0.00  0.00     0.021 A 
ATOM     23  C   UNL d   1     -45.824  12.541  22.899  0.00  0.00     0.004 A 
ENDBRANCH  17  18
ENDBRANCH  16  17
ENDBRANCH   2  16
TORSDOF 5
ENDMDL
MODEL 3
REMARK VINA RESULT:      -6.4      9.917     10.809
REMARK  5 active torsions:
REMARK  status: ('A' for Active; 'I' for Inactive)
REMARK    1  A    between atoms: N_2  and  S_1 
REMARK    2  A    between atoms: C_5  and  S_1 
REMARK    3  A    between atoms: S_6  and  C_3 
REMARK    4  A    between atoms: C_15  and  S_6 
REMARK    5  A    between atoms: C_14  and  C_15 
ROOT
ATOM      1  N   UNL d   1     -38.700  14.621  18.214  0.00  0.00    -0.208 N 
ATOM      2  C   UNL d   1     -38.454  14.787  18.989  0.00  0.00     0.189 A 
ATOM      3  N   UNL d   1     -37.986  15.467  18.971  0.00  0.00    -0.219 NA
ATOM      4  C   UNL d   1     -38.381  15.204  17.715  0.00  0.00     0.114 A 
ATOM      5  C   UNL d   1     -37.943  15.721  18.184  0.00  0.00     0.121 A 
ENDROOT
BRANCH   1   6
ATOM      6  S   UNL d   1     -39.179  13.985  17.983  0.00  0.00     0.273 S 
ATOM      7  O   UNL d   1     -39.465  13.220  17.853  0.00  0.00    -0.200 OA
ATOM      8  O   UNL d   1     -38.603  13.489  18.284  0.00  0.00    -0.200 OA
BRANCH   6   9
ATOM      9  C   UNL d   1     -39.771  14.471  17.674  0.00  0.00     0.104 A 
ATOM     10  C   UNL d   1     -39.693  14.759  16.909  0.00  0.00     0.013 A 
ATOM     11  C   UNL d   1     -40.289  15.244  16.603  0.00  0.00     0.001 A 
ATOM     12  C   UNL d   1     -40.950  15.437  17.061  0.00  0.00     0.000 A 
ATOM     13  C   UNL d   1     -41.017  15.141  17.830  0.00  0.00     0.001 A 
ATOM     14  C   UNL d   1     -41.542  15.922  16.751  0.00  0.00     0.000 C 
ATOM     15  C   UNL d   1     -40.423  14.655  18.136  0.00  0.00     0.013 A 
ENDBRANCH   6   9
ENDBRANCH   1   6
BRANCH   2  16
ATOM     16  S   UNL d   1     -38.646  14.344  19.667  0.00  0.00    -0.049 SA
BRANCH  16  17
ATOM     17  C   UNL d   1     -38.315  14.544  20.394  0.00  0.00     0.040 C 
BRANCH  17  18
ATOM     18  C   UNL d   1     -38.525  14.123  21.069  0.00  0.00     0.026 A 
ATOM     19  C   UNL d   1     -38.007  13.540  21.377  0.00  0.00     0.099 A 
ATOM     20  N   UNL d   1     -38.203  13.112  22.049  0.00  0.00    -0.242 NA
ATOM     21  C   UNL d   1     -38.923  13.267  22.419  0.00  0.00     0.099 A 
ATOM     22  C   UNL d   1     -39.435  13.837  22.121  0.00  0.00     0.021 A 
ATOM     23  C   UNL d   1     -39.234  14.265  21.445  0.00  0.00     0.004 A 
ENDBRANCH  17  18
ENDBRANCH  16  17
ENDBRANCH   2  16
TORSDOF 5
ENDMDL
MODEL 4
REMARK VINA RESULT:      -6.4      1.610      2.441
REMARK  5 active torsions:
REMARK  status: ('A' for Active; 'I' for Inactive)
REMARK    1  A    between atoms: N_2  and  S_1 
REMARK    2  A    between atoms: C_5  and  S_1 
REMARK    3  A    between atoms: S_6  and  C_3 
REMARK    4  A    between atoms: C_15  and  S_6 
REMARK    5  A    between atoms: C_14  and  C_15 
ROOT
ATOM      1  N   UNL d   1     -48.632  13.254  23.168  0.00  0.00    -0.208 N 
ATOM      2  C   UNL d   1     -47.867  13.567  23.085  0.00  0.00     0.189 A 
ATOM      3  N   UNL d   1     -47.912  14.386  23.185  0.00  0.00    -0.219 NA
ATOM      4  C   UNL d   1     -49.151  13.885  23.320  0.00  0.00     0.114 A 
ATOM      5  C   UNL d   1     -48.705  14.578  23.329  0.00  0.00     0.121 A 
ENDROOT
BRANCH   1   6
ATOM      6  S   UNL d   1     -48.837  12.453  23.110  0.00  0.00     0.273 S 
ATOM      7  O   UNL d   1     -48.866  11.636  23.233  0.00  0.00    -0.200 OA
ATOM      8  O   UNL d   1     -48.287  12.307  23.698  0.00  0.00    -0.200 OA
BRANCH   6   9
ATOM      9  C   UNL d   1     -49.396  12.581  22.516  0.00  0.00     0.104 A 
ATOM     10  C   UNL d   1     -50.164  12.778  22.725  0.00  0.00     0.013 A 
ATOM     11  C   UNL d   1     -50.721  12.905  22.127  0.00  0.00     0.001 A 
ATOM     12  C   UNL d   1     -50.505  12.836  21.332  0.00  0.00     0.000 A 
ATOM     13  C   UNL d   1     -49.728  12.638  21.133  0.00  0.00     0.001 A 
ATOM     14  C   UNL d   1     -51.064  12.964  20.738  0.00  0.00     0.000 C 
ATOM     15  C   UNL d   1     -49.171  12.510  21.730  0.00  0.00     0.013 A 
ENDBRANCH   6   9
ENDBRANCH   1   6
BRANCH   2  16
ATOM     16  S   UNL d   1     -47.177  13.131  22.929  0.00  0.00    -0.049 SA
BRANCH  16  17
ATOM     17  C   UNL d   1     -46.446  13.511  22.919  0.00  0.00     0.040 C 
BRANCH  17  18
ATOM     18  C   UNL d   1     -45.774  13.100  22.682  0.00  0.00     0.026 A 
ATOM     19  C   UNL d   1     -45.538  12.409  23.095  0.00  0.00     0.099 A 
ATOM     20  N   UNL d   1     -44.871  11.988  22.871  0.00  0.00    -0.242 NA
ATOM     21  C   UNL d   1     -44.433  12.258  22.227  0.00  0.00     0.099 A 
ATOM     22  C   UNL d   1     -44.659  12.935  21.818  0.00  0.00     0.021 A 
ATOM     23  C   UNL d   1     -45.331  13.355  22.047  0.00  0.00     0.004 A 
ENDBRANCH  17  18
ENDBRANCH  16  17
ENDBRANCH   2  16
TORSDOF 5
ENDMDL
MODEL 5
REMARK VINA RESULT:      -6.2      9.354     10.642
REMARK  5 active torsions:
REMARK  status: ('A' for Active; 'I' for Inactive)
REMARK    1  A    between atoms: N_2  and  S_1 
REMARK    2  A    between atoms: C_5  and  S_1 
REMARK    3  A    between atoms: S_6  and  C_3 
REMARK    4  A    between atoms: C_15  and  S_6 
REMARK    5  A    between atoms: C_14  and  C_15 
ROOT
ATOM      1  N   UNL d   1     -40.406  14.792  18.102  0.00  0.00    -0.208 N 
ATOM      2  C   UNL d   1     -40.437  15.072  18.883  0.00  0.00     0.189 A 
ATOM      3  N   UNL d   1     -40.878  15.771  18.890  0.00  0.00    -0.219 NA
ATOM      4  C   UNL d   1     -40.832  15.322  17.624  0.00  0.00     0.114 A 
ATOM      5  C   UNL d   1     -41.120  15.922  18.112  0.00  0.00     0.121 A 
ENDROOT
BRANCH   1   6
ATOM      6  S   UNL d   1     -40.018  14.105  17.849  0.00  0.00     0.273 S 
ATOM      7  O   UNL d   1     -39.799  13.313  17.752  0.00  0.00    -0.200 OA
ATOM      8  O   UNL d   1     -40.526  13.684  18.333  0.00  0.00    -0.200 OA
BRANCH   6   9
ATOM      9  C   UNL d   1     -39.498  14.514  17.355  0.00  0.00     0.104 A 
ATOM     10  C   UNL d   1     -39.749  14.738  16.606  0.00  0.00     0.013 A 
ATOM     11  C   UNL d   1     -39.224  15.147  16.115  0.00  0.00     0.001 A 
ATOM     12  C   UNL d   1     -38.460  15.326  16.374  0.00  0.00     0.000 A 
ATOM     13  C   UNL d   1     -38.218  15.095  17.130  0.00  0.00     0.001 A 
ATOM     14  C   UNL d   1     -37.940  15.735  15.881  0.00  0.00     0.000 C 
ATOM     15  C   UNL d   1     -38.742  14.686  17.622  0.00  0.00     0.013 A 
ENDBRANCH   6   9
ENDBRANCH   1   6
BRANCH   2  16
ATOM     16  S   UNL d   1     -40.084  14.711  19.545  0.00  0.00    -0.049 SA
BRANCH  16  17
ATOM     17  C   UNL d   1     -40.193  15.035  20.294  0.00  0.00     0.040 C 
BRANCH  17  18
ATOM     18  C   UNL d   1     -39.759  14.747  20.931  0.00  0.00     0.026 A 
ATOM     19  C   UNL d   1     -40.025  14.069  21.346  0.00  0.00     0.099 A 
ATOM     20  N   UNL d   1     -39.604  13.770  21.984  0.00  0.00    -0.242 NA
ATOM     21  C   UNL d   1     -38.909  14.149  22.210  0.00  0.00     0.099 A 
ATOM     22  C   UNL d   1     -38.642  14.815  21.806  0.00  0.00     0.021 A 
ATOM     23  C   UNL d   1     -39.069  15.112  21.166  0.00  0.00     0.004 A 
ENDBRANCH  17  18
ENDBRANCH  16  17
ENDBRANCH   2  16
TORSDOF 5
ENDMDL
MODEL 6
REMARK VINA RESULT:      -6.0      8.969     10.686
REMARK  5 active torsions:
REMARK  status: ('A' for Active; 'I' for Inactive)
REMARK    1  A    between atoms: N_2  and  S_1 
REMARK    2  A    between atoms: C_5  and  S_1 
REMARK    3  A    between atoms: S_6  and  C_3 
REMARK    4  A    between atoms: C_15  and  S_6 
REMARK    5  A    between atoms: C_14  and  C_15 
ROOT
ATOM      1  N   UNL d   1     -39.826  14.910  20.475  0.00  0.00    -0.208 N 
ATOM      2  C   UNL d   1     -40.069  14.557  19.764  0.00  0.00     0.189 A 
ATOM      3  N   UNL d   1     -40.851  14.307  19.855  0.00  0.00    -0.219 NA
ATOM      4  C   UNL d   1     -40.462  14.877  21.008  0.00  0.00     0.114 A 
ATOM      5  C   UNL d   1     -41.090  14.505  20.623  0.00  0.00     0.121 A 
ENDROOT
BRANCH   1   6
ATOM      6  S   UNL d   1     -39.078  15.237  20.623  0.00  0.00     0.273 S 
ATOM      7  O   UNL d   1     -38.403  15.713  20.577  0.00  0.00    -0.200 OA
ATOM      8  O   UNL d   1     -39.226  15.759  20.010  0.00  0.00    -0.200 OA
BRANCH   6   9
ATOM      9  C   UNL d   1     -38.912  14.719  21.244  0.00  0.00     0.104 A 
ATOM     10  C   UNL d   1     -39.181  14.899  21.998  0.00  0.00     0.013 A 
ATOM     11  C   UNL d   1     -39.012  14.377  22.617  0.00  0.00     0.001 A 
ATOM     12  C   UNL d   1     -38.580  13.687  22.477  0.00  0.00     0.000 A 
ATOM     13  C   UNL d   1     -38.314  13.516  21.713  0.00  0.00     0.001 A 
ATOM     14  C   UNL d   1     -38.414  13.169  23.098  0.00  0.00     0.000 C 
ATOM     15  C   UNL d   1     -38.483  14.037  21.094  0.00  0.00     0.013 A 
ENDBRANCH   6   9
ENDBRANCH   1   6
BRANCH   2  16
ATOM     16  S   UNL d   1     -39.605  14.472  19.079  0.00  0.00    -0.049 SA
BRANCH  16  17
ATOM     17  C   UNL d   1     -39.925  14.111  18.411  0.00  0.00     0.040 C 
BRANCH  17  18
ATOM     18  C   UNL d   1     -39.454  13.989  17.747  0.00  0.00     0.026 A 
ATOM     19  C   UNL d   1     -38.994  13.291  17.683  0.00  0.00     0.099 A 
ATOM     20  N   UNL d   1     -38.520  13.154  17.027  0.00  0.00    -0.242 NA
ATOM     21  C   UNL d   1     -38.504  13.720  16.428  0.00  0.00     0.099 A 
ATOM     22  C   UNL d   1     -38.953  14.407  16.486  0.00  0.00     0.021 A 
ATOM     23  C   UNL d   1     -39.428  14.540  17.146  0.00  0.00     0.004 A 
ENDBRANCH  17  18
ENDBRANCH  16  17
ENDBRANCH   2  16
TORSDOF 5
ENDMDL
MODEL 7
REMARK VINA RESULT:      -5.9      1.848      2.584
REMARK  5 active torsions:
REMARK  status: ('A' for Active; 'I' for Inactive)
REMARK    1  A    between atoms: N_2  and  S_1 
REMARK    2  A    between atoms: C_5  and  S_1 
REMARK    3  A    between atoms: S_6  and  C_3 
REMARK    4  A    between atoms: C_15  and  S_6 
REMARK    5  A    between atoms: C_14  and  C_15 
ROOT
ATOM      1  N   UNL d   1     -47.706  12.865  23.184  0.00  0.00    -0.208 N 
ATOM      2  C   UNL d   1     -47.017  12.405  23.120  0.00  0.00     0.189 A 
ATOM      3  N   UNL d   1     -47.175  11.659  23.438  0.00  0.00    -0.219 NA
ATOM      4  C   UNL d   1     -48.292  12.399  23.544  0.00  0.00     0.114 A 
ATOM      5  C   UNL d   1     -47.961  11.659  23.698  0.00  0.00     0.121 A 
ENDROOT
BRANCH   1   6
ATOM      6  S   UNL d   1     -47.789  13.651  22.933  0.00  0.00     0.273 S 
ATOM      7  O   UNL d   1     -47.667  14.462  22.827  0.00  0.00    -0.200 OA
ATOM      8  O   UNL d   1     -47.127  13.826  23.380  0.00  0.00    -0.200 OA
BRANCH   6   9
ATOM      9  C   UNL d   1     -48.459  13.493  22.476  0.00  0.00     0.104 A 
ATOM     10  C   UNL d   1     -48.366  13.292  21.686  0.00  0.00     0.013 A 
ATOM     11  C   UNL d   1     -49.039  13.135  21.233  0.00  0.00     0.001 A 
ATOM     12  C   UNL d   1     -49.792  13.178  21.571  0.00  0.00     0.000 A 
ATOM     13  C   UNL d   1     -49.874  13.381  22.368  0.00  0.00     0.001 A 
ATOM     14  C   UNL d   1     -50.462  13.020  21.114  0.00  0.00     0.000 C 
ATOM     15  C   UNL d   1     -49.201  13.539  22.822  0.00  0.00     0.013 A 
ENDBRANCH   6   9
ENDBRANCH   1   6
BRANCH   2  16
ATOM     16  S   UNL d   1     -46.294  12.654  22.793  0.00  0.00    -0.049 SA
BRANCH  16  17
ATOM     17  C   UNL d   1     -45.629  12.172  22.856  0.00  0.00     0.040 C 
BRANCH  17  18
ATOM     18  C   UNL d   1     -44.949  12.355  22.431  0.00  0.00     0.026 A 
ATOM     19  C   UNL d   1     -44.243  11.924  22.564  0.00  0.00     0.099 A 
ATOM     20  N   UNL d   1     -43.557  12.094  22.148  0.00  0.00    -0.242 NA
ATOM     21  C   UNL d   1     -43.574  12.702  21.592  0.00  0.00     0.099 A 
ATOM     22  C   UNL d   1     -44.264  13.129  21.457  0.00  0.00     0.021 A 
ATOM     23  C   UNL d   1     -44.951  12.954  21.877  0.00  0.00     0.004 A 
ENDBRANCH  17  18
ENDBRANCH  16  17
ENDBRANCH   2  16
TORSDOF 5
ENDMDL
MODEL 8
REMARK VINA RESULT:      -5.5      1.676      4.218
REMARK  5 active torsions:
REMARK  status: ('A' for Active; 'I' for Inactive)
REMARK    1  A    between atoms: N_2  and  S_1 
REMARK    2  A    between atoms: C_5  and  S_1 
REMARK    3  A    between atoms: S_6  and  C_3 
REMARK    4  A    between atoms: C_15  and  S_6 
REMARK    5  A    between atoms: C_14  and  C_15 
ROOT
ATOM      1  N   UNL d   1     -47.926  12.505  22.147  0.00  0.00    -0.208 N 
ATOM      2  C   UNL d   1     -48.567  13.004  21.976  0.00  0.00     0.189 A 
ATOM      3  N   UNL d   1     -48.695  12.988  21.160  0.00  0.00    -0.219 NA
ATOM      4  C   UNL d   1     -47.657  12.181  21.431  0.00  0.00     0.114 A 
ATOM      5  C   UNL d   1     -48.132  12.480  20.828  0.00  0.00     0.121 A 
ENDROOT
BRANCH   1   6
ATOM      6  S   UNL d   1     -47.612  12.360  22.901  0.00  0.00     0.273 S 
ATOM      7  O   UNL d   1     -47.539  12.145  23.696  0.00  0.00    -0.200 OA
ATOM      8  O   UNL d   1     -48.360  12.115  23.125  0.00  0.00    -0.200 OA
BRANCH   6   9
ATOM      9  C   UNL d   1     -46.851  12.604  22.693  0.00  0.00     0.104 A 
ATOM     10  C   UNL d   1     -46.722  13.391  22.501  0.00  0.00     0.013 A 
ATOM     11  C   UNL d   1     -45.958  13.631  22.293  0.00  0.00     0.001 A 
ATOM     12  C   UNL d   1     -45.336  13.086  22.280  0.00  0.00     0.000 A 
ATOM     13  C   UNL d   1     -45.479  12.295  22.476  0.00  0.00     0.001 A 
ATOM     14  C   UNL d   1     -44.575  13.330  22.072  0.00  0.00     0.000 C 
ATOM     15  C   UNL d   1     -46.242  12.055  22.683  0.00  0.00     0.013 A 
ENDBRANCH   6   9
ENDBRANCH   1   6
BRANCH   2  16
ATOM     16  S   UNL d   1     -49.005  13.442  22.531  0.00  0.00    -0.049 SA
BRANCH  16  17
ATOM     17  C   UNL d   1     -49.713  13.797  22.306  0.00  0.00     0.040 C 
BRANCH  17  18
ATOM     18  C   UNL d   1     -50.035  14.398  22.767  0.00  0.00     0.026 A 
ATOM     19  C   UNL d   1     -50.727  14.255  23.218  0.00  0.00     0.099 A 
ATOM     20  N   UNL d   1     -51.060  14.844  23.682  0.00  0.00    -0.242 NA
ATOM     21  C   UNL d   1     -50.699  15.584  23.698  0.00  0.00     0.099 A 
ATOM     22  C   UNL d   1     -50.020  15.730  23.257  0.00  0.00     0.021 A 
ATOM     23  C   UNL d   1     -49.689  15.136  22.792  0.00  0.00     0.004 A 
ENDBRANCH  17  18
ENDBRANCH  16  17
ENDBRANCH   2  16
TORSDOF 5
ENDMDL
MODEL 9
REMARK VINA RESULT:      -5.3      9.354     10.669
REMARK  5 active torsions:
REMARK  status: ('A' for Active; 'I' for Inactive)
REMARK    1  A    between atoms: N_2  and  S_1 
REMARK    2  A    between atoms: C_5  and  S_1 
REMARK    3  A    between atoms: S_6  and  C_3 
REMARK    4  A    between atoms: C_15  and  S_6 
REMARK    5  A    between atoms: C_14  and  C_15 
ROOT
ATOM      1  N   UNL d   1     -39.531  14.713  19.675  0.00  0.00    -0.208 N 
ATOM      2  C   UNL d   1     -39.738  14.475  20.443  0.00  0.00     0.189 A 
ATOM      3  N   UNL d   1     -40.545  14.298  20.449  0.00  0.00    -0.219 NA
ATOM      4  C   UNL d   1     -40.216  14.681  19.205  0.00  0.00     0.114 A 
ATOM      5  C   UNL d   1     -40.836  14.426  19.685  0.00  0.00     0.121 A 
ENDROOT
BRANCH   1   6
ATOM      6  S   UNL d   1     -38.774  14.940  19.425  0.00  0.00     0.273 S 
ATOM      7  O   UNL d   1     -38.060  15.350  19.346  0.00  0.00    -0.200 OA
ATOM      8  O   UNL d   1     -38.826  15.562  19.954  0.00  0.00    -0.200 OA
BRANCH   6   9
ATOM      9  C   UNL d   1     -38.705  14.319  18.886  0.00  0.00     0.104 A 
ATOM     10  C   UNL d   1     -38.275  13.652  19.097  0.00  0.00     0.013 A 
ATOM     11  C   UNL d   1     -38.207  13.032  18.554  0.00  0.00     0.001 A 
ATOM     12  C   UNL d   1     -38.567  13.084  17.811  0.00  0.00     0.000 A 
ATOM     13  C   UNL d   1     -38.998  13.760  17.609  0.00  0.00     0.001 A 
ATOM     14  C   UNL d   1     -38.497  12.462  17.272  0.00  0.00     0.000 C 
ATOM     15  C   UNL d   1     -39.066  14.380  18.152  0.00  0.00     0.013 A 
ENDBRANCH   6   9
ENDBRANCH   1   6
BRANCH   2  16
ATOM     16  S   UNL d   1     -39.222  14.425  21.093  0.00  0.00    -0.049 SA
BRANCH  16  17
ATOM     17  C   UNL d   1     -39.511  14.193  21.828  0.00  0.00     0.040 C 
BRANCH  17  18
ATOM     18  C   UNL d   1     -38.988  14.055  22.449  0.00  0.00     0.026 A 
ATOM     19  C   UNL d   1     -38.743  14.689  22.939  0.00  0.00     0.099 A 
ATOM     20  N   UNL d   1     -38.222  14.567  23.561  0.00  0.00    -0.242 NA
ATOM     21  C   UNL d   1     -37.942  13.805  23.697  0.00  0.00     0.099 A 
ATOM     22  C   UNL d   1     -38.179  13.179  23.219  0.00  0.00     0.021 A 
ATOM     23  C   UNL d   1     -38.702  13.306  22.595  0.00  0.00     0.004 A 
ENDBRANCH  17  18
ENDBRANCH  16  17
ENDBRANCH   2  16
TORSDOF 5
ENDMDL
