MODEL 1
REMARK VINA RESULT:      14.8      0.000      0.000
REMARK  4 active torsions:
REMARK  status: ('A' for Active; 'I' for Inactive)
REMARK       I    between atoms: C_2  and  N_1 
REMARK    1  A    between atoms: C_3  and  N_1 
REMARK       I    between atoms: N_6  and  C_2 
REMARK    2  A    between atoms: C_9  and  N_6 
REMARK    3  A    between atoms: C_10  and  C_9 
REMARK    4  A    between atoms: C_11  and  C_10 
ROOT
ATOM      1  N   UNL d   1     -51.390  24.712  33.310  0.00  0.00    -0.172 NA
ATOM      2  C   UNL d   1     -51.325  25.534  33.325  0.00  0.00     0.370 C 
ATOM      3  O   UNL d   1     -51.999  26.002  33.356  0.00  0.00    -0.242 OA
ATOM      4  N   UNL d   1     -50.575  25.888  33.309  0.00  0.00    -0.189 NA
ENDROOT
BRANCH   1   5
ATOM      5  C   UNL d   1     -52.140  24.359  33.326  0.00  0.00     0.167 A 
ATOM      6  N   UNL d   1     -52.815  24.826  33.306  0.00  0.00    -0.225 NA
ATOM      7  C   UNL d   1     -53.558  24.474  33.322  0.00  0.00     0.101 A 
ATOM      8  C   UNL d   1     -53.629  23.651  33.359  0.00  0.00     0.021 A 
ATOM      9  C   UNL d   1     -52.945  23.188  33.379  0.00  0.00     0.005 A 
ATOM     10  C   UNL d   1     -52.205  23.537  33.363  0.00  0.00     0.039 A 
ENDBRANCH   1   5
BRANCH   4  11
ATOM     11  C   UNL d   1     -50.509  26.710  33.324  0.00  0.00     0.104 C 
BRANCH  11  12
ATOM     12  C   UNL d   1     -49.764  27.056  33.311  0.00  0.00     0.021 C 
BRANCH  12  13
ATOM     13  C   UNL d   1     -49.682  27.857  33.505  0.00  0.00     0.002 C 
ATOM     14  C   UNL d   1     -50.328  28.358  33.450  0.00  0.00     0.000 C 
ENDBRANCH  12  13
ENDBRANCH  11  12
ENDBRANCH   4  11
TORSDOF 4
ENDMDL
