MODEL 1
REMARK VINA RESULT:      -6.6      0.000      0.000
REMARK  4 active torsions:
REMARK  status: ('A' for Active; 'I' for Inactive)
REMARK    1  A    between atoms: C_5  and  C_3 
REMARK    2  A    between atoms: S_7  and  C_4 
REMARK    3  A    between atoms: C_10  and  S_7 
REMARK    4  A    between atoms: C_11  and  C_10 
ROOT
ATOM      1  N   UNL d   1     -41.700-123.352 -52.499  0.00  0.00    -0.146 NA
ATOM      2  N   UNL d   1     -41.609-123.475 -51.688  0.00  0.00    -0.141 NA
ATOM      3  C   UNL d   1     -41.521-122.613 -52.830  0.00  0.00     0.121 A 
ATOM      4  C   UNL d   1     -41.342-122.873 -51.202  0.00  0.00     0.132 A 
ATOM      5  C   UNL d   1     -41.252-122.003 -52.341  0.00  0.00     0.025 A 
ATOM      6  C   UNL d   1     -41.162-122.129 -51.533  0.00  0.00     0.029 A 
ENDROOT
BRANCH   4   7
ATOM      7  S   UNL d   1     -41.251-122.996 -50.392  0.00  0.00    -0.066 SA
BRANCH   7   8
ATOM      8  C   UNL d   1     -41.828-123.394 -49.965  0.00  0.00     0.037 C 
BRANCH   8   9
ATOM      9  C   UNL d   1     -41.799-123.391 -49.138  0.00  0.00     0.006 A 
ATOM     10  C   UNL d   1     -41.156-123.700 -48.759  0.00  0.00     0.001 A 
ATOM     11  C   UNL d   1     -41.123-123.699 -47.934  0.00  0.00     0.000 A 
ATOM     12  C   UNL d   1     -41.741-123.387 -47.498  0.00  0.00     0.000 A 
ATOM     13  C   UNL d   1     -42.403-123.069 -47.890  0.00  0.00     0.000 A 
ATOM     14  C   UNL d   1     -42.425-123.075 -48.708  0.00  0.00     0.001 A 
ENDBRANCH   8   9
ENDBRANCH   7   8
ENDBRANCH   4   7
BRANCH   3  15
ATOM     15  C   UNL d   1     -41.612-122.490 -53.640  0.00  0.00     0.101 A 
ATOM     16  N   UNL d   1     -42.153-121.943 -53.906  0.00  0.00    -0.242 NA
ATOM     17  C   UNL d   1     -42.247-121.817 -54.710  0.00  0.00     0.099 A 
ATOM     18  C   UNL d   1     -41.788-122.250 -55.252  0.00  0.00     0.021 A 
ATOM     19  C   UNL d   1     -41.246-122.799 -54.980  0.00  0.00     0.003 A 
ATOM     20  C   UNL d   1     -41.148-122.929 -54.170  0.00  0.00     0.021 A 
ENDBRANCH   3  15
TORSDOF 4
ENDMDL
MODEL 2
REMARK VINA RESULT:      -6.1      0.957      5.090
REMARK  4 active torsions:
REMARK  status: ('A' for Active; 'I' for Inactive)
REMARK    1  A    between atoms: C_5  and  C_3 
REMARK    2  A    between atoms: S_7  and  C_4 
REMARK    3  A    between atoms: C_10  and  S_7 
REMARK    4  A    between atoms: C_11  and  C_10 
ROOT
ATOM      1  N   UNL d   1     -41.800-123.544 -50.970  0.00  0.00    -0.146 NA
ATOM      2  N   UNL d   1     -41.681-123.411 -51.776  0.00  0.00    -0.141 NA
ATOM      3  C   UNL d   1     -41.666-122.935 -50.424  0.00  0.00     0.121 A 
ATOM      4  C   UNL d   1     -41.431-122.679 -52.045  0.00  0.00     0.132 A 
ATOM      5  C   UNL d   1     -41.414-122.195 -50.693  0.00  0.00     0.025 A 
ATOM      6  C   UNL d   1     -41.296-122.065 -51.497  0.00  0.00     0.029 A 
ENDROOT
BRANCH   4   7
ATOM      7  S   UNL d   1     -41.312-122.546 -52.850  0.00  0.00    -0.066 SA
BRANCH   7   8
ATOM      8  C   UNL d   1     -41.871-122.793 -53.399  0.00  0.00     0.037 C 
BRANCH   8   9
ATOM      9  C   UNL d   1     -41.842-122.498 -54.171  0.00  0.00     0.006 A 
ATOM     10  C   UNL d   1     -41.244-122.725 -54.664  0.00  0.00     0.001 A 
ATOM     11  C   UNL d   1     -41.211-122.433 -55.436  0.00  0.00     0.000 A 
ATOM     12  C   UNL d   1     -41.784-121.915 -55.704  0.00  0.00     0.000 A 
ATOM     13  C   UNL d   1     -42.401-121.683 -55.195  0.00  0.00     0.000 A 
ATOM     14  C   UNL d   1     -42.423-121.978 -54.433  0.00  0.00     0.001 A 
ENDBRANCH   8   9
ENDBRANCH   7   8
ENDBRANCH   4   7
BRANCH   3  15
ATOM     15  C   UNL d   1     -41.785-123.068 -49.619  0.00  0.00     0.101 A 
ATOM     16  N   UNL d   1     -41.164-123.317 -49.156  0.00  0.00    -0.242 NA
ATOM     17  C   UNL d   1     -41.277-123.450 -48.356  0.00  0.00     0.099 A 
ATOM     18  C   UNL d   1     -42.029-123.330 -48.019  0.00  0.00     0.021 A 
ATOM     19  C   UNL d   1     -42.650-123.080 -48.489  0.00  0.00     0.003 A 
ATOM     20  C   UNL d   1     -42.540-122.944 -49.296  0.00  0.00     0.021 A 
ENDBRANCH   3  15
TORSDOF 4
ENDMDL
