MODEL 1
REMARK VINA RESULT:      40.9      0.000      0.000
REMARK  3 active torsions:
REMARK  status: ('A' for Active; 'I' for Inactive)
REMARK    1  A    between atoms: S_3  and  N_1 
REMARK    2  A    between atoms: C_7  and  C_4 
REMARK    3  A    between atoms: C_11  and  C_5 
ROOT
ATOM      1  N   UNL d   1     -54.911-101.543 -43.969  0.00  0.00    -0.155 N 
ATOM      2  N   UNL d   1     -54.860-102.027 -43.277  0.00  0.00    -0.156 NA
ATOM      3  C   UNL d   1     -54.948-100.764 -43.681  0.00  0.00     0.102 A 
ATOM      4  C   UNL d   1     -54.868-101.549 -42.614  0.00  0.00     0.104 A 
ATOM      5  C   UNL d   1     -54.923-100.758 -42.880  0.00  0.00     0.041 A 
ENDROOT
BRANCH   4   6
ATOM      6  C   UNL d   1     -54.829-101.809 -41.852  0.00  0.00     0.019 A 
ATOM      7  C   UNL d   1     -54.867-101.263 -41.228  0.00  0.00     0.002 A 
ATOM      8  C   UNL d   1     -54.829-101.506 -40.443  0.00  0.00     0.007 A 
ATOM      9  C   UNL d   1     -54.750-102.319 -40.257  0.00  0.00     0.035 A 
ATOM     10  C   UNL d   1     -54.711-102.867 -40.884  0.00  0.00     0.007 A 
ATOM     11 BR   UNL d   1     -54.712-102.562 -39.477  0.00  0.00    -0.049 Br
ATOM     12  C   UNL d   1     -54.750-102.621 -41.671  0.00  0.00     0.002 A 
ENDBRANCH   4   6
BRANCH   1  13
ATOM     13  S   UNL d   1     -54.920-101.790 -44.733  0.00  0.00     0.266 S 
ATOM     14  O   UNL d   1     -54.927-102.060 -45.528  0.00  0.00    -0.203 OA
ATOM     15  O   UNL d   1     -55.068-101.037 -44.979  0.00  0.00    -0.203 OA
ATOM     16  C   UNL d   1     -54.766-102.572 -44.476  0.00  0.00     0.165 C 
ENDBRANCH   1  13
BRANCH   3  17
ATOM     17  C   UNL d   1     -55.003-100.098 -44.162  0.00  0.00     0.048 A 
ATOM     18  S   UNL d   1     -54.731-100.016 -44.933  0.00  0.00    -0.085 SA
ATOM     19  C   UNL d   1     -54.897 -99.272 -45.200  0.00  0.00     0.035 A 
ATOM     20  C   UNL d   1     -55.279 -98.870 -44.599  0.00  0.00     0.007 A 
ATOM     21  C   UNL d   1     -55.347 -99.367 -43.963  0.00  0.00     0.009 A 
ENDBRANCH   3  17
TORSDOF 3
ENDMDL
