MODEL 1
REMARK VINA RESULT:      -3.7      0.000      0.000
REMARK  4 active torsions:
REMARK  status: ('A' for Active; 'I' for Inactive)
REMARK    1  A    between atoms: S_8  and  C_1 
REMARK    2  A    between atoms: C_2  and  S_7 
REMARK    3  A    between atoms: S_7  and  C_13 
REMARK    4  A    between atoms: C_13  and  S_8 
ROOT
ATOM      1  C   UNL d   1      32.908  19.595 -22.358  0.00  0.00     0.128 C 
ENDROOT
BRANCH   1   2
ATOM      2  S   UNL d   1      33.239  18.851 -22.482  0.00  0.00    -0.076 SA
BRANCH   2   3
ATOM      3  C   UNL d   1      32.860  18.351 -22.994  0.00  0.00     0.137 A 
ATOM      4  N   UNL d   1      32.291  18.510 -23.590  0.00  0.00    -0.232 NA
ATOM      5  C   UNL d   1      32.092  17.808 -23.942  0.00  0.00     0.088 A 
ATOM      6  C   UNL d   1      31.574  17.605 -24.550  0.00  0.00     0.020 A 
ATOM      7  C   UNL d   1      32.527  17.203 -23.578  0.00  0.00     0.049 A 
ATOM      8  C   UNL d   1      31.488  16.840 -24.790  0.00  0.00     0.002 A 
ATOM      9  C   UNL d   1      31.907  16.223 -24.446  0.00  0.00     0.001 A 
ATOM     10  C   UNL d   1      32.438  16.418 -23.825  0.00  0.00     0.008 A 
ATOM     11  S   UNL d   1      33.000  17.531 -22.996  0.00  0.00    -0.060 SA
ENDBRANCH   2   3
ENDBRANCH   1   2
BRANCH   1  12
ATOM     12  S   UNL d   1      33.181  20.062 -21.736  0.00  0.00    -0.076 SA
BRANCH  12  13
ATOM     13  C   UNL d   1      32.965  20.852 -21.641  0.00  0.00     0.137 A 
ATOM     14  N   UNL d   1      33.133  21.439 -22.151  0.00  0.00    -0.232 NA
ATOM     15  C   UNL d   1      32.815  22.121 -21.840  0.00  0.00     0.088 A 
ATOM     16  C   UNL d   1      32.794  22.893 -22.084  0.00  0.00     0.020 A 
ATOM     17  C   UNL d   1      32.454  21.913 -21.129  0.00  0.00     0.049 A 
ATOM     18  C   UNL d   1      32.420  23.483 -21.640  0.00  0.00     0.002 A 
ATOM     19  C   UNL d   1      32.049  23.268 -20.908  0.00  0.00     0.001 A 
ATOM     20  C   UNL d   1      32.073  22.476 -20.662  0.00  0.00     0.008 A 
ATOM     21  S   UNL d   1      32.556  21.105 -21.013  0.00  0.00    -0.060 SA
ENDBRANCH  12  13
ENDBRANCH   1  12
TORSDOF 4
ENDMDL
MODEL 2
REMARK VINA RESULT:      -3.7      0.129      5.235
REMARK  4 active torsions:
REMARK  status: ('A' for Active; 'I' for Inactive)
REMARK    1  A    between atoms: S_8  and  C_1 
REMARK    2  A    between atoms: C_2  and  S_7 
REMARK    3  A    between atoms: S_7  and  C_13 
REMARK    4  A    between atoms: C_13  and  S_8 
ROOT
ATOM      1  C   UNL d   1      32.942  19.621 -22.423  0.00  0.00     0.128 C 
ENDROOT
BRANCH   1   2
ATOM      2  S   UNL d   1      33.226  20.021 -21.760  0.00  0.00    -0.076 SA
BRANCH   2   3
ATOM      3  C   UNL d   1      33.019  20.799 -21.674  0.00  0.00     0.137 A 
ATOM      4  N   UNL d   1      33.153  21.459 -22.177  0.00  0.00    -0.232 NA
ATOM      5  C   UNL d   1      32.829  22.113 -21.825  0.00  0.00     0.088 A 
ATOM      6  C   UNL d   1      32.781  22.906 -22.041  0.00  0.00     0.020 A 
ATOM      7  C   UNL d   1      32.490  21.880 -21.106  0.00  0.00     0.049 A 
ATOM      8  C   UNL d   1      32.415  23.448 -21.568  0.00  0.00     0.002 A 
ATOM      9  C   UNL d   1      32.071  23.242 -20.851  0.00  0.00     0.001 A 
ATOM     10  C   UNL d   1      32.114  22.436 -20.622  0.00  0.00     0.008 A 
ATOM     11  S   UNL d   1      32.603  21.075 -21.008  0.00  0.00    -0.060 SA
ENDBRANCH   2   3
ENDBRANCH   1   2
BRANCH   1  12
ATOM     12  S   UNL d   1      33.223  18.864 -22.590  0.00  0.00    -0.076 SA
BRANCH  12  13
ATOM     13  C   UNL d   1      32.818  18.334 -23.074  0.00  0.00     0.137 A 
ATOM     14  N   UNL d   1      32.388  18.532 -23.713  0.00  0.00    -0.232 NA
ATOM     15  C   UNL d   1      32.089  17.840 -24.022  0.00  0.00     0.088 A 
ATOM     16  C   UNL d   1      31.618  17.665 -24.657  0.00  0.00     0.020 A 
ATOM     17  C   UNL d   1      32.360  17.229 -23.540  0.00  0.00     0.049 A 
ATOM     18  C   UNL d   1      31.398  16.889 -24.840  0.00  0.00     0.002 A 
ATOM     19  C   UNL d   1      31.677  16.260 -24.344  0.00  0.00     0.001 A 
ATOM     20  C   UNL d   1      32.160  16.443 -23.693  0.00  0.00     0.008 A 
ATOM     21  S   UNL d   1      32.821  17.554 -22.942  0.00  0.00    -0.060 SA
ENDBRANCH  12  13
ENDBRANCH   1  12
TORSDOF 4
ENDMDL
MODEL 3
REMARK VINA RESULT:      -3.5      0.948      5.293
REMARK  4 active torsions:
REMARK  status: ('A' for Active; 'I' for Inactive)
REMARK    1  A    between atoms: S_8  and  C_1 
REMARK    2  A    between atoms: C_2  and  S_7 
REMARK    3  A    between atoms: S_7  and  C_13 
REMARK    4  A    between atoms: C_13  and  S_8 
ROOT
ATOM      1  C   UNL d   1      32.593  18.901 -23.022  0.00  0.00     0.128 C 
ENDROOT
BRANCH   1   2
ATOM      2  S   UNL d   1      33.235  19.367 -22.800  0.00  0.00    -0.076 SA
BRANCH   2   3
ATOM      3  C   UNL d   1      33.090  20.007 -22.326  0.00  0.00     0.137 A 
ATOM      4  N   UNL d   1      32.782  20.050 -21.546  0.00  0.00    -0.232 NA
ATOM      5  C   UNL d   1      32.749  20.830 -21.331  0.00  0.00     0.088 A 
ATOM      6  C   UNL d   1      32.503  21.220 -20.648  0.00  0.00     0.020 A 
ATOM      7  C   UNL d   1      33.031  21.286 -21.964  0.00  0.00     0.049 A 
ATOM      8  C   UNL d   1      32.534  22.024 -20.590  0.00  0.00     0.002 A 
ATOM      9  C   UNL d   1      32.808  22.497 -21.202  0.00  0.00     0.001 A 
ATOM     10  C   UNL d   1      33.061  22.110 -21.903  0.00  0.00     0.008 A 
ATOM     11  S   UNL d   1      33.241  20.786 -22.576  0.00  0.00    -0.060 SA
ENDBRANCH   2   3
ENDBRANCH   1   2
BRANCH   1  12
ATOM     12  S   UNL d   1      32.720  18.226 -23.479  0.00  0.00    -0.076 SA
BRANCH  12  13
ATOM     13  C   UNL d   1      32.106  17.744 -23.743  0.00  0.00     0.137 A 
ATOM     14  N   UNL d   1      31.483  17.987 -24.174  0.00  0.00    -0.232 NA
ATOM     15  C   UNL d   1      31.019  17.332 -24.310  0.00  0.00     0.088 A 
ATOM     16  C   UNL d   1      30.322  17.209 -24.705  0.00  0.00     0.020 A 
ATOM     17  C   UNL d   1      31.392  16.696 -23.942  0.00  0.00     0.049 A 
ATOM     18  C   UNL d   1      29.970  16.462 -24.751  0.00  0.00     0.002 A 
ATOM     19  C   UNL d   1      30.354  15.807 -24.373  0.00  0.00     0.001 A 
ATOM     20  C   UNL d   1      31.068  15.937 -23.969  0.00  0.00     0.008 A 
ATOM     21  S   UNL d   1      32.081  16.969 -23.586  0.00  0.00    -0.060 SA
ENDBRANCH  12  13
ENDBRANCH   1  12
TORSDOF 4
ENDMDL
