MODEL 1
REMARK VINA RESULT:      -3.2      0.000      0.000
REMARK  5 active torsions:
REMARK  status: ('A' for Active; 'I' for Inactive)
REMARK    1  A    between atoms: C_7  and  C_4 
REMARK    2  A    between atoms: O_9  and  C_7 
REMARK    3  A    between atoms: O_15  and  C_8 
REMARK    4  A    between atoms: C_17  and  O_9 
REMARK    5  A    between atoms: O_16  and  C_11 
ROOT
ATOM      1  C   UNL d   1      57.828  -1.109  30.430  0.00  0.00     0.228 A 
ATOM      2  C   UNL d   1      58.421  -0.588  30.185  0.00  0.00     0.070 A 
ATOM      3  S   UNL d   1      57.288  -0.873  31.015  0.00  0.00    -0.040 SA
ATOM      4  C   UNL d   1      57.349  -0.113  31.351  0.00  0.00     0.096 A 
ATOM      5  C   UNL d   1      58.481   0.165  30.518  0.00  0.00     0.006 A 
ATOM      6  C   UNL d   1      57.948   0.403  31.099  0.00  0.00     0.012 A 
ATOM      7  C   UNL d   1      58.954  -0.832  29.601  0.00  0.00     0.120 A 
ATOM      8  O   UNL d   1      57.768  -1.861  30.097  0.00  0.00    -0.279 OA
ATOM      9  C   UNL d   1      59.546  -0.318  29.354  0.00  0.00     0.116 A 
ATOM     10  C   UNL d   1      59.074   0.680  30.270  0.00  0.00     0.002 A 
ATOM     11  C   UNL d   1      59.606   0.434  29.687  0.00  0.00     0.026 A 
ENDROOT
BRANCH   4  12
ATOM     12  C   UNL d   1      56.811   0.117  31.931  0.00  0.00     0.306 C 
ATOM     13  O   UNL d   1      56.233   0.675  31.750  0.00  0.00    -0.258 OA
BRANCH  12  14
ATOM     14  O   UNL d   1      56.850  -0.207  32.687  0.00  0.00    -0.273 OA
BRANCH  14  15
ATOM     15  C   UNL d   1      56.302   0.017  33.262  0.00  0.00     0.103 C 
ATOM     16  C   UNL d   1      56.468   0.647  33.766  0.00  0.00     0.027 C 
ATOM     17  C   UNL d   1      55.587  -0.392  33.330  0.00  0.00     0.027 C 
ENDBRANCH  14  15
ENDBRANCH  12  14
ENDBRANCH   4  12
BRANCH   7  18
ATOM     18  O   UNL d   1      58.894  -1.585  29.268  0.00  0.00    -0.326 OA
ATOM     19  C   UNL d   1      59.521  -2.123  29.349  0.00  0.00     0.181 C 
ENDBRANCH   7  18
BRANCH   9  20
ATOM     20  O   UNL d   1      60.083  -0.555  28.771  0.00  0.00    -0.326 OA
ATOM     21  C   UNL d   1      60.770  -0.121  28.643  0.00  0.00     0.181 C 
ENDBRANCH   9  20
TORSDOF 5
ENDMDL
MODEL 2
REMARK VINA RESULT:      -3.2      1.231      1.962
REMARK  5 active torsions:
REMARK  status: ('A' for Active; 'I' for Inactive)
REMARK    1  A    between atoms: C_7  and  C_4 
REMARK    2  A    between atoms: O_9  and  C_7 
REMARK    3  A    between atoms: O_15  and  C_8 
REMARK    4  A    between atoms: C_17  and  O_9 
REMARK    5  A    between atoms: O_16  and  C_11 
ROOT
ATOM      1  C   UNL d   1      56.629  -1.095  31.961  0.00  0.00     0.228 A 
ATOM      2  C   UNL d   1      57.133  -0.592  31.540  0.00  0.00     0.070 A 
ATOM      3  S   UNL d   1      56.243  -0.816  32.641  0.00  0.00    -0.040 SA
ATOM      4  C   UNL d   1      56.365  -0.031  32.893  0.00  0.00     0.096 A 
ATOM      5  C   UNL d   1      57.254   0.185  31.790  0.00  0.00     0.006 A 
ATOM      6  C   UNL d   1      56.873   0.466  32.463  0.00  0.00     0.012 A 
ATOM      7  C   UNL d   1      57.513  -0.880  30.864  0.00  0.00     0.120 A 
ATOM      8  O   UNL d   1      56.508  -1.872  31.711  0.00  0.00    -0.279 OA
ATOM      9  C   UNL d   1      58.016  -0.384  30.441  0.00  0.00     0.116 A 
ATOM     10  C   UNL d   1      57.757   0.682  31.367  0.00  0.00     0.002 A 
ATOM     11  C   UNL d   1      58.137   0.393  30.691  0.00  0.00     0.026 A 
ENDROOT
BRANCH   4  12
ATOM     12  C   UNL d   1      55.979   0.242  33.568  0.00  0.00     0.306 C 
ATOM     13  O   UNL d   1      56.422   0.551  34.190  0.00  0.00    -0.258 OA
BRANCH  12  14
ATOM     14  O   UNL d   1      55.159   0.206  33.622  0.00  0.00    -0.273 OA
BRANCH  14  15
ATOM     15  C   UNL d   1      54.774   0.515  34.284  0.00  0.00     0.103 C 
ATOM     16  C   UNL d   1      53.965   0.665  34.257  0.00  0.00     0.027 C 
ATOM     17  C   UNL d   1      55.203   0.672  34.973  0.00  0.00     0.027 C 
ENDBRANCH  14  15
ENDBRANCH  12  14
ENDBRANCH   4  12
BRANCH   7  18
ATOM     18  O   UNL d   1      57.392  -1.656  30.614  0.00  0.00    -0.326 OA
ATOM     19  C   UNL d   1      58.006  -2.068  30.234  0.00  0.00     0.181 C 
ENDBRANCH   7  18
BRANCH   9  20
ATOM     20  O   UNL d   1      58.400  -0.664  29.764  0.00  0.00    -0.326 OA
ATOM     21  C   UNL d   1      58.762  -0.135  29.248  0.00  0.00     0.181 C 
ENDBRANCH   9  20
TORSDOF 5
ENDMDL
MODEL 3
REMARK VINA RESULT:      -2.3      1.372      4.620
REMARK  5 active torsions:
REMARK  status: ('A' for Active; 'I' for Inactive)
REMARK    1  A    between atoms: C_7  and  C_4 
REMARK    2  A    between atoms: O_9  and  C_7 
REMARK    3  A    between atoms: O_15  and  C_8 
REMARK    4  A    between atoms: C_17  and  O_9 
REMARK    5  A    between atoms: O_16  and  C_11 
ROOT
ATOM      1  C   UNL d   1      57.733   0.438  32.765  0.00  0.00     0.228 A 
ATOM      2  C   UNL d   1      56.930   0.314  32.917  0.00  0.00     0.070 A 
ATOM      3  S   UNL d   1      58.029   0.320  31.998  0.00  0.00    -0.040 SA
ATOM      4  C   UNL d   1      57.515   0.077  31.389  0.00  0.00     0.096 A 
ATOM      5  C   UNL d   1      56.421   0.074  32.314  0.00  0.00     0.006 A 
ATOM      6  C   UNL d   1      56.710  -0.044  31.553  0.00  0.00     0.012 A 
ATOM      7  C   UNL d   1      56.644   0.435  33.685  0.00  0.00     0.120 A 
ATOM      8  O   UNL d   1      58.242   0.678  33.368  0.00  0.00    -0.279 OA
ATOM      9  C   UNL d   1      55.846   0.313  33.843  0.00  0.00     0.116 A 
ATOM     10  C   UNL d   1      55.621  -0.047  32.472  0.00  0.00     0.002 A 
ATOM     11  C   UNL d   1      55.337   0.074  33.239  0.00  0.00     0.026 A 
ENDROOT
BRANCH   4  12
ATOM     12  C   UNL d   1      57.813  -0.039  30.630  0.00  0.00     0.306 C 
ATOM     13  O   UNL d   1      57.891   0.605  30.123  0.00  0.00    -0.258 OA
BRANCH  12  14
ATOM     14  O   UNL d   1      58.032  -0.792  30.379  0.00  0.00    -0.273 OA
BRANCH  14  15
ATOM     15  C   UNL d   1      58.416  -0.891  29.656  0.00  0.00     0.103 C 
ATOM     16  C   UNL d   1      58.288  -0.356  29.044  0.00  0.00     0.027 C 
ATOM     17  C   UNL d   1      58.930  -1.530  29.547  0.00  0.00     0.027 C 
ENDBRANCH  14  15
ENDBRANCH  12  14
ENDBRANCH   4  12
BRANCH   7  18
ATOM     18  O   UNL d   1      57.153   0.675  34.288  0.00  0.00    -0.326 OA
ATOM     19  C   UNL d   1      57.093   0.329  35.041  0.00  0.00     0.181 C 
ENDBRANCH   7  18
BRANCH   9  20
ATOM     20  O   UNL d   1      55.553   0.432  34.607  0.00  0.00    -0.326 OA
ATOM     21  C   UNL d   1      54.742   0.402  34.746  0.00  0.00     0.181 C 
ENDBRANCH   9  20
TORSDOF 5
ENDMDL
MODEL 4
REMARK VINA RESULT:      -1.6      9.202      9.639
REMARK  5 active torsions:
REMARK  status: ('A' for Active; 'I' for Inactive)
REMARK    1  A    between atoms: C_7  and  C_4 
REMARK    2  A    between atoms: O_9  and  C_7 
REMARK    3  A    between atoms: O_15  and  C_8 
REMARK    4  A    between atoms: C_17  and  O_9 
REMARK    5  A    between atoms: O_16  and  C_11 
ROOT
ATOM      1  C   UNL d   1      58.467  -9.649  32.703  0.00  0.00     0.228 A 
ATOM      2  C   UNL d   1      59.062  -9.655  32.129  0.00  0.00     0.070 A 
ATOM      3  S   UNL d   1      58.670  -9.571  33.505  0.00  0.00    -0.040 SA
ATOM      4  C   UNL d   1      59.470  -9.498  33.723  0.00  0.00     0.096 A 
ATOM      5  C   UNL d   1      59.855  -9.583  32.345  0.00  0.00     0.006 A 
ATOM      6  C   UNL d   1      60.061  -9.505  33.139  0.00  0.00     0.012 A 
ATOM      7  C   UNL d   1      58.850  -9.733  31.333  0.00  0.00     0.120 A 
ATOM      8  O   UNL d   1      57.675  -9.721  32.486  0.00  0.00    -0.279 OA
ATOM      9  C   UNL d   1      59.437  -9.740  30.756  0.00  0.00     0.116 A 
ATOM     10  C   UNL d   1      60.443  -9.589  31.768  0.00  0.00     0.002 A 
ATOM     11  C   UNL d   1      60.229  -9.668  30.973  0.00  0.00     0.026 A 
ENDROOT
BRANCH   4  12
ATOM     12  C   UNL d   1      59.667  -9.420  34.519  0.00  0.00     0.306 C 
ATOM     13  O   UNL d   1      59.218  -9.812  35.088  0.00  0.00    -0.258 OA
BRANCH  12  14
ATOM     14  O   UNL d   1      60.308  -8.956  34.747  0.00  0.00    -0.273 OA
BRANCH  14  15
ATOM     15  C   UNL d   1      60.421  -8.768  35.542  0.00  0.00     0.103 C 
ATOM     16  C   UNL d   1      61.056  -9.090  35.955  0.00  0.00     0.027 C 
ATOM     17  C   UNL d   1      59.896  -8.255  35.923  0.00  0.00     0.027 C 
ENDBRANCH  14  15
ENDBRANCH  12  14
ENDBRANCH   4  12
BRANCH   7  18
ATOM     18  O   UNL d   1      58.057  -9.805  31.116  0.00  0.00    -0.326 OA
ATOM     19  C   UNL d   1      57.709  -9.232  30.626  0.00  0.00     0.181 C 
ENDBRANCH   7  18
BRANCH   9  20
ATOM     20  O   UNL d   1      59.233  -9.818  29.959  0.00  0.00    -0.326 OA
ATOM     21  C   UNL d   1      59.788  -9.655  29.374  0.00  0.00     0.181 C 
ENDBRANCH   9  20
TORSDOF 5
ENDMDL
MODEL 5
REMARK VINA RESULT:      -0.2      9.169     10.156
REMARK  5 active torsions:
REMARK  status: ('A' for Active; 'I' for Inactive)
REMARK    1  A    between atoms: C_7  and  C_4 
REMARK    2  A    between atoms: O_9  and  C_7 
REMARK    3  A    between atoms: O_15  and  C_8 
REMARK    4  A    between atoms: C_17  and  O_9 
REMARK    5  A    between atoms: O_16  and  C_11 
ROOT
ATOM      1  C   UNL d   1      58.504  -9.531  32.952  0.00  0.00     0.228 A 
ATOM      2  C   UNL d   1      59.301  -9.618  33.152  0.00  0.00     0.070 A 
ATOM      3  S   UNL d   1      58.274  -9.559  32.154  0.00  0.00    -0.040 SA
ATOM      4  C   UNL d   1      58.849  -9.674  31.562  0.00  0.00     0.096 A 
ATOM      5  C   UNL d   1      59.870  -9.732  32.565  0.00  0.00     0.006 A 
ATOM      6  C   UNL d   1      59.647  -9.760  31.773  0.00  0.00     0.012 A 
ATOM      7  C   UNL d   1      59.520  -9.589  33.949  0.00  0.00     0.120 A 
ATOM      8  O   UNL d   1      57.935  -9.417  33.538  0.00  0.00    -0.279 OA
ATOM      9  C   UNL d   1      60.312  -9.674  34.155  0.00  0.00     0.116 A 
ATOM     10  C   UNL d   1      60.664  -9.818  32.771  0.00  0.00     0.002 A 
ATOM     11  C   UNL d   1      60.881  -9.788  33.569  0.00  0.00     0.026 A 
ENDROOT
BRANCH   4  12
ATOM     12  C   UNL d   1      58.617  -9.701  30.773  0.00  0.00     0.306 C 
ATOM     13  O   UNL d   1      57.822  -9.817  30.587  0.00  0.00    -0.258 OA
BRANCH  12  14
ATOM     14  O   UNL d   1      59.172  -9.612  30.172  0.00  0.00    -0.273 OA
BRANCH  14  15
ATOM     15  C   UNL d   1      58.925  -9.490  29.394  0.00  0.00     0.103 C 
ATOM     16  C   UNL d   1      58.198  -9.134  29.244  0.00  0.00     0.027 C 
ATOM     17  C   UNL d   1      59.409  -9.727  28.766  0.00  0.00     0.027 C 
ENDBRANCH  14  15
ENDBRANCH  12  14
ENDBRANCH   4  12
BRANCH   7  18
ATOM     18  O   UNL d   1      58.951  -9.475  34.536  0.00  0.00    -0.326 OA
ATOM     19  C   UNL d   1      59.067  -9.797  35.293  0.00  0.00     0.181 C 
ENDBRANCH   7  18
BRANCH   9  20
ATOM     20  O   UNL d   1      60.539  -9.646  34.950  0.00  0.00    -0.326 OA
ATOM     21  C   UNL d   1      61.133  -9.132  35.190  0.00  0.00     0.181 C 
ENDBRANCH   9  20
TORSDOF 5
ENDMDL
