MODEL 1
REMARK VINA RESULT:       6.8      0.000      0.000
REMARK  0 active torsions:
REMARK  status: ('A' for Active; 'I' for Inactive)
ROOT
ATOM      1  N   UNL d   1      57.487  49.663  50.843  0.00  0.00    -0.219 NA
ATOM      2  C   UNL d   1      57.968  49.692  50.173  0.00  0.00     0.215 A 
ATOM      3  S   UNL d   1      57.488  49.708  49.509  0.00  0.00    -0.045 SA
ATOM      4  C   UNL d   1      56.703  49.660  50.587  0.00  0.00     0.090 A 
ATOM      5  C   UNL d   1      56.698  49.688  49.758  0.00  0.00     0.050 A 
ATOM      6  N   UNL d   1      58.796  49.704  50.173  0.00  0.00    -0.120 N 
ATOM      7  C   UNL d   1      56.033  49.634  51.068  0.00  0.00     0.021 C 
ATOM      8  C   UNL d   1      56.039  49.696  49.271  0.00  0.00     0.009 C 
ENDROOT
TORSDOF 0
ENDMDL
MODEL 2
REMARK VINA RESULT:       8.3      2.675      3.464
REMARK  0 active torsions:
REMARK  status: ('A' for Active; 'I' for Inactive)
ROOT
ATOM      1  N   UNL d   1      60.970  49.695  50.835  0.00  0.00    -0.219 NA
ATOM      2  C   UNL d   1      60.767  49.693  51.635  0.00  0.00     0.215 A 
ATOM      3  S   UNL d   1      59.951  49.697  51.696  0.00  0.00    -0.045 SA
ATOM      4  C   UNL d   1      60.269  49.701  50.400  0.00  0.00     0.090 A 
ATOM      5  C   UNL d   1      59.632  49.702  50.931  0.00  0.00     0.050 A 
ATOM      6  N   UNL d   1      61.300  49.687  52.269  0.00  0.00    -0.120 N 
ATOM      7  C   UNL d   1      60.206  49.704  49.578  0.00  0.00     0.021 C 
ATOM      8  C   UNL d   1      58.834  49.707  50.741  0.00  0.00     0.009 C 
ENDROOT
TORSDOF 0
ENDMDL
MODEL 3
REMARK VINA RESULT:       9.1      2.523      3.531
REMARK  0 active torsions:
REMARK  status: ('A' for Active; 'I' for Inactive)
ROOT
ATOM      1  N   UNL d   1      59.687  49.693  51.702  0.00  0.00    -0.219 NA
ATOM      2  C   UNL d   1      59.243  49.702  51.006  0.00  0.00     0.215 A 
ATOM      3  S   UNL d   1      59.759  49.706  50.370  0.00  0.00    -0.045 SA
ATOM      4  C   UNL d   1      60.484  49.691  51.489  0.00  0.00     0.090 A 
ATOM      5  C   UNL d   1      60.534  49.699  50.662  0.00  0.00     0.050 A 
ATOM      6  N   UNL d   1      58.417  49.707  50.960  0.00  0.00    -0.120 N 
ATOM      7  C   UNL d   1      61.127  49.683  52.007  0.00  0.00     0.021 C 
ATOM      8  C   UNL d   1      61.219  49.701  50.211  0.00  0.00     0.009 C 
ENDROOT
TORSDOF 0
ENDMDL
