MODEL 1
REMARK VINA RESULT:      90.0      0.000      0.000
REMARK  2 active torsions:
REMARK  status: ('A' for Active; 'I' for Inactive)
REMARK    1  A    between atoms: N_11  and  C_4 
REMARK    2  A    between atoms: C_16  and  N_12 
ROOT
ATOM      1  N   UNL d   1     -48.323  30.025  34.594  0.00  0.00    -0.195 N 
ATOM      2  C   UNL d   1     -47.883  30.643  34.878  0.00  0.00     0.168 A 
ATOM      3  C   UNL d   1     -47.911  31.359  34.525  0.00  0.00     0.073 A 
ATOM      4  C   UNL d   1     -48.283  29.317  34.960  0.00  0.00     0.153 A 
ATOM      5  N   UNL d   1     -48.820  30.835  33.602  0.00  0.00    -0.143 NA
ATOM      6  C   UNL d   1     -48.380  31.453  33.886  0.00  0.00     0.185 A 
ATOM      7  N   UNL d   1     -47.415  30.537  35.520  0.00  0.00    -0.227 NA
ATOM      8  C   UNL d   1     -47.476  31.970  34.806  0.00  0.00     0.007 A 
ATOM      9  N   UNL d   1     -48.419  32.172  33.517  0.00  0.00    -0.225 NA
ATOM     10  C   UNL d   1     -47.820  29.208  35.596  0.00  0.00     0.057 A 
ATOM     11  C   UNL d   1     -47.504  32.686  34.453  0.00  0.00     0.019 A 
ATOM     12  C   UNL d   1     -47.381  29.826  35.880  0.00  0.00     0.086 A 
ATOM     13  C   UNL d   1     -47.980  32.790  33.802  0.00  0.00     0.083 A 
ATOM     14  C   UNL d   1     -47.006  31.862  35.451  0.00  0.00     0.000 C 
ATOM     15  C   UNL d   1     -46.895  29.712  36.547  0.00  0.00     0.021 C 
ATOM     16  C   UNL d   1     -48.012  33.500  33.445  0.00  0.00     0.021 C 
ENDROOT
BRANCH   4  17
ATOM     17  N   UNL d   1     -48.739  28.685  34.660  0.00  0.00    -0.286 N 
ATOM     18  C   UNL d   1     -49.138  28.732  33.935  0.00  0.00     0.101 A 
ATOM     19  C   UNL d   1     -49.581  28.085  33.670  0.00  0.00     0.100 A 
ATOM     20  N   UNL d   1     -49.630  27.391  34.123  0.00  0.00    -0.301 N 
ATOM     21  C   UNL d   1     -49.229  27.334  34.860  0.00  0.00     0.100 A 
ATOM     22  C   UNL d   1     -48.786  27.983  35.123  0.00  0.00     0.101 A 
BRANCH  20  23
ATOM     23  C   UNL d   1     -50.075  26.747  33.853  0.00  0.00     0.064 A 
ATOM     24  C   UNL d   1     -50.884  26.830  33.704  0.00  0.00     0.016 A 
ATOM     25  C   UNL d   1     -51.255  27.558  33.824  0.00  0.00     0.002 C 
ATOM     26  C   UNL d   1     -51.337  26.176  33.430  0.00  0.00     0.001 A 
ATOM     27  C   UNL d   1     -50.966  25.434  33.306  0.00  0.00     0.000 A 
ATOM     28  C   UNL d   1     -50.144  25.355  33.459  0.00  0.00     0.002 A 
ATOM     29  C   UNL d   1     -49.704  26.007  33.731  0.00  0.00     0.018 A 
ENDBRANCH  20  23
ENDBRANCH   4  17
TORSDOF 2
ENDMDL
