MODEL 1
REMARK VINA RESULT:      -3.4      0.000      0.000
REMARK  4 active torsions:
REMARK  status: ('A' for Active; 'I' for Inactive)
REMARK    1  A    between atoms: C_7  and  C_2 
REMARK    2  A    between atoms: C_6  and  C_3 
REMARK    3  A    between atoms: C_9  and  C_6 
REMARK    4  A    between atoms: O_15  and  C_10 
ROOT
ATOM      1  N   UNL d   1      31.723  15.617 -23.706  0.00  0.00    -0.201 NA
ATOM      2  C   UNL d   1      31.192  16.236 -23.815  0.00  0.00     0.114 A 
ATOM      3  C   UNL d   1      32.429  16.713 -23.876  0.00  0.00     0.089 A 
ATOM      4  C   UNL d   1      32.481  15.901 -23.742  0.00  0.00     0.286 A 
ATOM      5  S   UNL d   1      31.644  16.930 -23.923  0.00  0.00    -0.063 SA
ATOM      6  O   UNL d   1      33.171  15.456 -23.658  0.00  0.00    -0.265 OA
ENDROOT
BRANCH   3   7
ATOM      7  C   UNL d   1      33.057  17.238 -23.954  0.00  0.00     0.011 C 
BRANCH   7   8
ATOM      8  C   UNL d   1      33.082  17.962 -23.554  0.00  0.00     0.001 A 
ATOM      9  C   UNL d   1      33.214  18.015 -22.760  0.00  0.00     0.002 A 
ATOM     10  C   UNL d   1      33.233  18.744 -22.394  0.00  0.00     0.024 A 
ATOM     11  C   UNL d   1      33.124  19.423 -22.799  0.00  0.00     0.094 A 
ATOM     12  C   UNL d   1      32.988  19.385 -23.614  0.00  0.00     0.024 A 
ATOM     13  C   UNL d   1      32.965  18.658 -24.001  0.00  0.00     0.002 A 
BRANCH  11  14
ATOM     14  O   UNL d   1      33.146  20.159 -22.417  0.00  0.00    -0.328 OA
ATOM     15  C   UNL d   1      32.905  20.229 -21.640  0.00  0.00     0.181 C 
ENDBRANCH  11  14
ENDBRANCH   7   8
ENDBRANCH   3   7
BRANCH   2  16
ATOM     16  C   UNL d   1      30.369  16.183 -23.819  0.00  0.00     0.024 A 
ATOM     17  C   UNL d   1      29.947  16.503 -24.445  0.00  0.00     0.002 A 
ATOM     18  C   UNL d   1      29.124  16.450 -24.448  0.00  0.00     0.000 A 
ATOM     19  C   UNL d   1      28.731  16.077 -23.825  0.00  0.00     0.000 A 
ATOM     20  C   UNL d   1      29.163  15.757 -23.198  0.00  0.00     0.000 A 
ATOM     21  C   UNL d   1      29.987  15.810 -23.195  0.00  0.00     0.002 A 
ENDBRANCH   2  16
TORSDOF 4
ENDMDL
MODEL 2
REMARK VINA RESULT:      -3.2      0.546      1.031
REMARK  4 active torsions:
REMARK  status: ('A' for Active; 'I' for Inactive)
REMARK    1  A    between atoms: C_7  and  C_2 
REMARK    2  A    between atoms: C_6  and  C_3 
REMARK    3  A    between atoms: C_9  and  C_6 
REMARK    4  A    between atoms: O_15  and  C_10 
ROOT
ATOM      1  N   UNL d   1      31.433  15.617 -24.678  0.00  0.00    -0.201 NA
ATOM      2  C   UNL d   1      31.014  16.094 -24.155  0.00  0.00     0.114 A 
ATOM      3  C   UNL d   1      32.301  16.415 -24.094  0.00  0.00     0.089 A 
ATOM      4  C   UNL d   1      32.220  15.808 -24.646  0.00  0.00     0.286 A 
ATOM      5  S   UNL d   1      31.568  16.599 -23.786  0.00  0.00    -0.063 SA
ATOM      6  O   UNL d   1      32.823  15.456 -25.087  0.00  0.00    -0.265 OA
ENDROOT
BRANCH   3   7
ATOM      7  C   UNL d   1      32.999  16.789 -23.875  0.00  0.00     0.011 C 
BRANCH   7   8
ATOM      8  C   UNL d   1      33.020  17.574 -23.615  0.00  0.00     0.001 A 
ATOM      9  C   UNL d   1      32.859  18.197 -24.102  0.00  0.00     0.002 A 
ATOM     10  C   UNL d   1      32.888  18.960 -23.816  0.00  0.00     0.024 A 
ATOM     11  C   UNL d   1      33.073  19.121 -23.057  0.00  0.00     0.094 A 
ATOM     12  C   UNL d   1      33.241  18.492 -22.545  0.00  0.00     0.024 A 
ATOM     13  C   UNL d   1      33.217  17.715 -22.816  0.00  0.00     0.002 A 
BRANCH  11  14
ATOM     14  O   UNL d   1      33.099  19.900 -22.776  0.00  0.00    -0.328 OA
ATOM     15  C   UNL d   1      32.962  20.061 -21.987  0.00  0.00     0.181 C 
ENDBRANCH  11  14
ENDBRANCH   7   8
ENDBRANCH   3   7
BRANCH   2  16
ATOM     16  C   UNL d   1      30.200  16.078 -24.019  0.00  0.00     0.024 A 
ATOM     17  C   UNL d   1      29.913  15.726 -23.335  0.00  0.00     0.002 A 
ATOM     18  C   UNL d   1      29.100  15.711 -23.199  0.00  0.00     0.000 A 
ATOM     19  C   UNL d   1      28.582  16.047 -23.748  0.00  0.00     0.000 A 
ATOM     20  C   UNL d   1      28.880  16.399 -24.433  0.00  0.00     0.000 A 
ATOM     21  C   UNL d   1      29.693  16.415 -24.569  0.00  0.00     0.002 A 
ENDBRANCH   2  16
TORSDOF 4
ENDMDL
MODEL 3
REMARK VINA RESULT:      -3.2      1.294      4.080
REMARK  4 active torsions:
REMARK  status: ('A' for Active; 'I' for Inactive)
REMARK    1  A    between atoms: C_7  and  C_2 
REMARK    2  A    between atoms: C_6  and  C_3 
REMARK    3  A    between atoms: C_9  and  C_6 
REMARK    4  A    between atoms: O_15  and  C_10 
ROOT
ATOM      1  N   UNL d   1      33.241  17.224 -23.296  0.00  0.00    -0.201 NA
ATOM      2  C   UNL d   1      32.776  17.894 -23.400  0.00  0.00     0.114 A 
ATOM      3  C   UNL d   1      32.202  16.870 -24.021  0.00  0.00     0.089 A 
ATOM      4  C   UNL d   1      32.897  16.594 -23.673  0.00  0.00     0.286 A 
ATOM      5  S   UNL d   1      32.117  17.666 -23.861  0.00  0.00    -0.063 SA
ATOM      6  O   UNL d   1      33.192  15.824 -23.699  0.00  0.00    -0.265 OA
ENDROOT
BRANCH   3   7
ATOM      7  C   UNL d   1      31.667  16.430 -24.464  0.00  0.00     0.011 C 
BRANCH   7   8
ATOM      8  C   UNL d   1      30.859  16.407 -24.289  0.00  0.00     0.001 A 
ATOM      9  C   UNL d   1      30.561  15.979 -23.674  0.00  0.00     0.002 A 
ATOM     10  C   UNL d   1      29.758  15.976 -23.526  0.00  0.00     0.024 A 
ATOM     11  C   UNL d   1      29.244  16.390 -23.975  0.00  0.00     0.094 A 
ATOM     12  C   UNL d   1      29.536  16.834 -24.610  0.00  0.00     0.024 A 
ATOM     13  C   UNL d   1      30.343  16.848 -24.774  0.00  0.00     0.002 A 
BRANCH  11  14
ATOM     14  O   UNL d   1      28.431  16.380 -23.817  0.00  0.00    -0.328 OA
ATOM     15  C   UNL d   1      28.012  15.679 -23.845  0.00  0.00     0.181 C 
ENDBRANCH  11  14
ENDBRANCH   7   8
ENDBRANCH   3   7
BRANCH   2  16
ATOM     16  C   UNL d   1      32.928  18.649 -23.106  0.00  0.00     0.024 A 
ATOM     17  C   UNL d   1      32.918  19.291 -23.618  0.00  0.00     0.002 A 
ATOM     18  C   UNL d   1      33.071  20.046 -23.323  0.00  0.00     0.000 A 
ATOM     19  C   UNL d   1      33.232  20.152 -22.520  0.00  0.00     0.000 A 
ATOM     20  C   UNL d   1      33.241  19.501 -22.012  0.00  0.00     0.000 A 
ATOM     21  C   UNL d   1      33.088  18.746 -22.306  0.00  0.00     0.002 A 
ENDBRANCH   2  16
TORSDOF 4
ENDMDL
MODEL 4
REMARK VINA RESULT:      -1.7      2.057      4.701
REMARK  4 active torsions:
REMARK  status: ('A' for Active; 'I' for Inactive)
REMARK    1  A    between atoms: C_7  and  C_2 
REMARK    2  A    between atoms: C_6  and  C_3 
REMARK    3  A    between atoms: C_9  and  C_6 
REMARK    4  A    between atoms: O_15  and  C_10 
ROOT
ATOM      1  N   UNL d   1      33.016  19.721 -21.560  0.00  0.00    -0.201 NA
ATOM      2  C   UNL d   1      32.939  20.350 -22.083  0.00  0.00     0.114 A 
ATOM      3  C   UNL d   1      33.138  19.236 -22.777  0.00  0.00     0.089 A 
ATOM      4  C   UNL d   1      33.138  19.036 -21.977  0.00  0.00     0.286 A 
ATOM      5  S   UNL d   1      33.017  20.040 -22.855  0.00  0.00    -0.063 SA
ATOM      6  O   UNL d   1      33.241  18.284 -21.655  0.00  0.00    -0.265 OA
ENDROOT
BRANCH   3   7
ATOM      7  C   UNL d   1      33.241  18.723 -23.411  0.00  0.00     0.011 C 
BRANCH   7   8
ATOM      8  C   UNL d   1      32.605  18.418 -23.843  0.00  0.00     0.001 A 
ATOM      9  C   UNL d   1      32.291  18.800 -24.480  0.00  0.00     0.002 A 
ATOM     10  C   UNL d   1      31.663  18.473 -24.886  0.00  0.00     0.024 A 
ATOM     11  C   UNL d   1      31.339  17.775 -24.674  0.00  0.00     0.094 A 
ATOM     12  C   UNL d   1      31.652  17.371 -24.022  0.00  0.00     0.024 A 
ATOM     13  C   UNL d   1      32.285  17.685 -23.600  0.00  0.00     0.002 A 
BRANCH  11  14
ATOM     14  O   UNL d   1      30.702  17.451 -25.094  0.00  0.00    -0.328 OA
ATOM     15  C   UNL d   1      29.958  17.784 -25.037  0.00  0.00     0.181 C 
ENDBRANCH  11  14
ENDBRANCH   7   8
ENDBRANCH   3   7
BRANCH   2  16
ATOM     16  C   UNL d   1      32.810  21.141 -21.885  0.00  0.00     0.024 A 
ATOM     17  C   UNL d   1      33.184  21.731 -22.317  0.00  0.00     0.002 A 
ATOM     18  C   UNL d   1      33.054  22.521 -22.119  0.00  0.00     0.000 A 
ATOM     19  C   UNL d   1      32.553  22.713 -21.492  0.00  0.00     0.000 A 
ATOM     20  C   UNL d   1      32.180  22.114 -21.063  0.00  0.00     0.000 A 
ATOM     21  C   UNL d   1      32.310  21.323 -21.261  0.00  0.00     0.002 A 
ENDBRANCH   2  16
TORSDOF 4
ENDMDL
