MODEL 1
REMARK VINA RESULT:      -2.6      0.000      0.000
REMARK  4 active torsions:
REMARK  status: ('A' for Active; 'I' for Inactive)
REMARK    1  A    between atoms: C_6  and  C_1 
REMARK       I    between atoms: N_11  and  C_6 
REMARK    2  A    between atoms: O_14  and  C_9 
REMARK    3  A    between atoms: C_16  and  N_11 
REMARK    4  A    between atoms: C_12  and  C_16 
ROOT
ATOM      1  C   UNL d   1      32.611  22.481 -20.772  0.00  0.00     0.121 A 
ATOM      2  C   UNL d   1      32.644  22.695 -21.576  0.00  0.00     0.305 A 
ATOM      3  O   UNL d   1      32.800  22.113 -22.152  0.00  0.00    -0.271 OA
ATOM      4  C   UNL d   1      32.736  21.683 -20.539  0.00  0.00     0.012 A 
ATOM      5  C   UNL d   1      32.924  21.327 -21.930  0.00  0.00     0.125 A 
ATOM      6  C   UNL d   1      32.891  21.116 -21.124  0.00  0.00     0.025 A 
ATOM      7  O   UNL d   1      32.521  23.480 -21.804  0.00  0.00    -0.259 OA
ATOM      8  C   UNL d   1      33.078  20.753 -22.494  0.00  0.00     0.117 A 
ATOM      9  C   UNL d   1      33.014  20.329 -20.901  0.00  0.00     0.002 A 
ATOM     10  C   UNL d   1      33.168  19.758 -21.475  0.00  0.00     0.002 A 
ATOM     11  C   UNL d   1      33.200  19.970 -22.272  0.00  0.00     0.026 A 
ENDROOT
BRANCH   1  12
ATOM     12  C   UNL d   1      32.457  23.052 -20.198  0.00  0.00     0.284 C 
ATOM     13  O   UNL d   1      31.834  23.583 -20.301  0.00  0.00    -0.265 OA
ATOM     14  N   UNL d   1      32.925  23.090 -19.522  0.00  0.00    -0.206 NA
BRANCH  14  15
ATOM     15  C   UNL d   1      32.773  23.665 -18.942  0.00  0.00     0.102 C 
BRANCH  15  16
ATOM     16  C   UNL d   1      33.239  23.695 -18.262  0.00  0.00     0.021 C 
ATOM     17  C   UNL d   1      32.886  23.679 -17.519  0.00  0.00     0.002 C 
ENDBRANCH  15  16
ENDBRANCH  14  15
ENDBRANCH   1  12
BRANCH   8  18
ATOM     18  O   UNL d   1      33.110  20.966 -23.291  0.00  0.00    -0.326 OA
ATOM     19  C   UNL d   1      33.241  20.391 -23.867  0.00  0.00     0.181 C 
ENDBRANCH   8  18
TORSDOF 4
ENDMDL
MODEL 2
REMARK VINA RESULT:      -2.1      4.377      6.812
REMARK  4 active torsions:
REMARK  status: ('A' for Active; 'I' for Inactive)
REMARK    1  A    between atoms: C_6  and  C_1 
REMARK       I    between atoms: N_11  and  C_6 
REMARK    2  A    between atoms: O_14  and  C_9 
REMARK    3  A    between atoms: C_16  and  N_11 
REMARK    4  A    between atoms: C_12  and  C_16 
ROOT
ATOM      1  C   UNL d   1      31.563  16.884 -24.351  0.00  0.00     0.121 A 
ATOM      2  C   UNL d   1      31.802  16.836 -23.555  0.00  0.00     0.305 A 
ATOM      3  O   UNL d   1      32.284  17.435 -23.232  0.00  0.00    -0.271 OA
ATOM      4  C   UNL d   1      31.806  17.531 -24.830  0.00  0.00     0.012 A 
ATOM      5  C   UNL d   1      32.526  18.074 -23.697  0.00  0.00     0.125 A 
ATOM      6  C   UNL d   1      32.286  18.118 -24.494  0.00  0.00     0.025 A 
ATOM      7  O   UNL d   1      31.563  16.200 -23.085  0.00  0.00    -0.259 OA
ATOM      8  C   UNL d   1      33.000  18.663 -23.381  0.00  0.00     0.117 A 
ATOM      9  C   UNL d   1      32.528  18.757 -24.960  0.00  0.00     0.002 A 
ATOM     10  C   UNL d   1      33.005  19.346 -24.635  0.00  0.00     0.002 A 
ATOM     11  C   UNL d   1      33.241  19.299 -23.846  0.00  0.00     0.026 A 
ENDROOT
BRANCH   1  12
ATOM     12  C   UNL d   1      31.087  16.295 -24.676  0.00  0.00     0.284 C 
ATOM     13  O   UNL d   1      31.429  15.653 -25.064  0.00  0.00    -0.265 OA
ATOM     14  N   UNL d   1      30.268  16.350 -24.611  0.00  0.00    -0.206 NA
BRANCH  14  15
ATOM     15  C   UNL d   1      29.784  15.758 -24.937  0.00  0.00     0.102 C 
BRANCH  15  16
ATOM     16  C   UNL d   1      28.971  15.884 -25.003  0.00  0.00     0.021 C 
ATOM     17  C   UNL d   1      28.450  15.472 -24.517  0.00  0.00     0.002 C 
ENDBRANCH  15  16
ENDBRANCH  14  15
ENDBRANCH   1  12
BRANCH   8  18
ATOM     18  O   UNL d   1      33.236  18.616 -22.592  0.00  0.00    -0.326 OA
ATOM     19  C   UNL d   1      33.240  19.292 -22.121  0.00  0.00     0.181 C 
ENDBRANCH   8  18
TORSDOF 4
ENDMDL
MODEL 3
REMARK VINA RESULT:      -1.6      1.686      4.352
REMARK  4 active torsions:
REMARK  status: ('A' for Active; 'I' for Inactive)
REMARK    1  A    between atoms: C_6  and  C_1 
REMARK       I    between atoms: N_11  and  C_6 
REMARK    2  A    between atoms: O_14  and  C_9 
REMARK    3  A    between atoms: C_16  and  N_11 
REMARK    4  A    between atoms: C_12  and  C_16 
ROOT
ATOM      1  C   UNL d   1      33.215  20.676 -21.889  0.00  0.00     0.121 A 
ATOM      2  C   UNL d   1      33.217  20.700 -21.057  0.00  0.00     0.305 A 
ATOM      3  O   UNL d   1      33.204  21.436 -20.666  0.00  0.00    -0.271 OA
ATOM      4  C   UNL d   1      33.202  21.388 -22.335  0.00  0.00     0.012 A 
ATOM      5  C   UNL d   1      33.191  22.140 -21.098  0.00  0.00     0.125 A 
ATOM      6  C   UNL d   1      33.190  22.112 -21.931  0.00  0.00     0.025 A 
ATOM      7  O   UNL d   1      33.230  19.999 -20.619  0.00  0.00    -0.259 OA
ATOM      8  C   UNL d   1      33.179  22.864 -20.715  0.00  0.00     0.117 A 
ATOM      9  C   UNL d   1      33.176  22.817 -22.364  0.00  0.00     0.002 A 
ATOM     10  C   UNL d   1      33.164  23.541 -21.972  0.00  0.00     0.002 A 
ATOM     11  C   UNL d   1      33.165  23.565 -21.147  0.00  0.00     0.026 A 
ENDROOT
BRANCH   1  12
ATOM     12  C   UNL d   1      33.227  19.952 -22.282  0.00  0.00     0.284 C 
ATOM     13  O   UNL d   1      33.241  19.248 -21.851  0.00  0.00    -0.265 OA
ATOM     14  N   UNL d   1      33.226  19.932 -23.105  0.00  0.00    -0.206 NA
BRANCH  14  15
ATOM     15  C   UNL d   1      33.238  19.203 -23.504  0.00  0.00     0.102 C 
BRANCH  15  16
ATOM     16  C   UNL d   1      33.234  19.188 -24.329  0.00  0.00     0.021 C 
ATOM     17  C   UNL d   1      33.164  18.470 -24.727  0.00  0.00     0.002 C 
ENDBRANCH  15  16
ENDBRANCH  14  15
ENDBRANCH   1  12
BRANCH   8  18
ATOM     18  O   UNL d   1      33.180  22.888 -19.890  0.00  0.00    -0.326 OA
ATOM     19  C   UNL d   1      32.784  23.492 -19.493  0.00  0.00     0.181 C 
ENDBRANCH   8  18
TORSDOF 4
ENDMDL
MODEL 4
REMARK VINA RESULT:      -0.2      2.373      4.881
REMARK  4 active torsions:
REMARK  status: ('A' for Active; 'I' for Inactive)
REMARK    1  A    between atoms: C_6  and  C_1 
REMARK       I    between atoms: N_11  and  C_6 
REMARK    2  A    between atoms: O_14  and  C_9 
REMARK    3  A    between atoms: C_16  and  N_11 
REMARK    4  A    between atoms: C_12  and  C_16 
ROOT
ATOM      1  C   UNL d   1      32.950  19.636 -23.184  0.00  0.00     0.121 A 
ATOM      2  C   UNL d   1      32.969  19.910 -22.397  0.00  0.00     0.305 A 
ATOM      3  O   UNL d   1      33.046  20.727 -22.247  0.00  0.00    -0.271 OA
ATOM      4  C   UNL d   1      33.010  20.178 -23.824  0.00  0.00     0.012 A 
ATOM      5  C   UNL d   1      33.105  21.264 -22.872  0.00  0.00     0.125 A 
ATOM      6  C   UNL d   1      33.086  20.986 -23.657  0.00  0.00     0.025 A 
ATOM      7  O   UNL d   1      32.910  19.377 -21.769  0.00  0.00    -0.259 OA
ATOM      8  C   UNL d   1      33.181  22.066 -22.725  0.00  0.00     0.117 A 
ATOM      9  C   UNL d   1      33.145  21.524 -24.283  0.00  0.00     0.002 A 
ATOM     10  C   UNL d   1      33.222  22.330 -24.128  0.00  0.00     0.002 A 
ATOM     11  C   UNL d   1      33.240  22.601 -23.349  0.00  0.00     0.026 A 
ENDROOT
BRANCH   1  12
ATOM     12  C   UNL d   1      32.874  18.831 -23.339  0.00  0.00     0.284 C 
ATOM     13  O   UNL d   1      33.239  18.278 -22.847  0.00  0.00    -0.265 OA
ATOM     14  N   UNL d   1      32.432  18.579 -23.986  0.00  0.00    -0.206 NA
BRANCH  14  15
ATOM     15  C   UNL d   1      32.353  17.767 -24.146  0.00  0.00     0.102 C 
BRANCH  15  16
ATOM     16  C   UNL d   1      31.719  17.499 -24.602  0.00  0.00     0.021 C 
ATOM     17  C   UNL d   1      31.052  17.184 -24.235  0.00  0.00     0.002 C 
ENDBRANCH  15  16
ENDBRANCH  14  15
ENDBRANCH   1  12
BRANCH   8  18
ATOM     18  O   UNL d   1      33.200  22.338 -21.946  0.00  0.00    -0.326 OA
ATOM     19  C   UNL d   1      33.184  23.147 -21.790  0.00  0.00     0.181 C 
ENDBRANCH   8  18
TORSDOF 4
ENDMDL
MODEL 5
REMARK VINA RESULT:       0.3      1.332      2.358
REMARK  4 active torsions:
REMARK  status: ('A' for Active; 'I' for Inactive)
REMARK    1  A    between atoms: C_6  and  C_1 
REMARK       I    between atoms: N_11  and  C_6 
REMARK    2  A    between atoms: O_14  and  C_9 
REMARK    3  A    between atoms: C_16  and  N_11 
REMARK    4  A    between atoms: C_12  and  C_16 
ROOT
ATOM      1  C   UNL d   1      33.131  21.449 -21.953  0.00  0.00     0.121 A 
ATOM      2  C   UNL d   1      33.083  20.655 -22.199  0.00  0.00     0.305 A 
ATOM      3  O   UNL d   1      33.083  20.474 -23.013  0.00  0.00    -0.271 OA
ATOM      4  C   UNL d   1      33.180  22.067 -22.521  0.00  0.00     0.012 A 
ATOM      5  C   UNL d   1      33.131  21.077 -23.576  0.00  0.00     0.125 A 
ATOM      6  C   UNL d   1      33.179  21.870 -23.327  0.00  0.00     0.025 A 
ATOM      7  O   UNL d   1      33.035  20.048 -21.640  0.00  0.00    -0.259 OA
ATOM      8  C   UNL d   1      33.132  20.900 -24.376  0.00  0.00     0.117 A 
ATOM      9  C   UNL d   1      33.227  22.474 -23.890  0.00  0.00     0.002 A 
ATOM     10  C   UNL d   1      33.227  22.289 -24.693  0.00  0.00     0.002 A 
ATOM     11  C   UNL d   1      33.180  21.502 -24.936  0.00  0.00     0.026 A 
ENDROOT
BRANCH   1  12
ATOM     12  C   UNL d   1      33.130  21.634 -21.151  0.00  0.00     0.284 C 
ATOM     13  O   UNL d   1      33.077  21.033 -20.588  0.00  0.00    -0.265 OA
ATOM     14  N   UNL d   1      33.184  22.420 -20.912  0.00  0.00    -0.206 NA
BRANCH  14  15
ATOM     15  C   UNL d   1      33.184  22.610 -20.103  0.00  0.00     0.102 C 
BRANCH  15  16
ATOM     16  C   UNL d   1      33.237  23.399 -19.867  0.00  0.00     0.021 C 
ATOM     17  C   UNL d   1      33.100  23.605 -19.082  0.00  0.00     0.002 C 
ENDBRANCH  15  16
ENDBRANCH  14  15
ENDBRANCH   1  12
BRANCH   8  18
ATOM     18  O   UNL d   1      33.084  20.113 -24.619  0.00  0.00    -0.326 OA
ATOM     19  C   UNL d   1      32.455  19.864 -25.089  0.00  0.00     0.181 C 
ENDBRANCH   8  18
TORSDOF 4
ENDMDL
