MODEL 1
REMARK VINA RESULT:      25.9      0.000      0.000
REMARK  3 active torsions:
REMARK  status: ('A' for Active; 'I' for Inactive)
REMARK    1  A    between atoms: C_7  and  N_1 
REMARK    2  A    between atoms: C_5  and  C_2 
REMARK    3  A    between atoms: C_11  and  C_7 
ROOT
ATOM      1  N   UNL d   1     -51.646  25.307  33.358  0.00  0.00    -0.262 N 
ATOM      2  C   UNL d   1     -52.067  24.596  33.387  0.00  0.00     0.173 A 
ATOM      3  N   UNL d   1     -51.502  23.998  33.434  0.00  0.00    -0.128 NA
ATOM      4  C   UNL d   1     -50.853  25.156  33.385  0.00  0.00     0.227 A 
ATOM      5  N   UNL d   1     -50.753  24.338  33.432  0.00  0.00    -0.117 NA
ATOM      6  S   UNL d   1     -50.183  25.654  33.373  0.00  0.00    -0.036 SA
ENDROOT
BRANCH   2   7
ATOM      7  C   UNL d   1     -52.882  24.491  33.374  0.00  0.00     0.064 A 
ATOM      8  C   UNL d   1     -53.629  24.830  33.375  0.00  0.00     0.143 A 
ATOM      9  F   UNL d   1     -53.523  25.653  33.399  0.00  0.00    -0.204 F 
ATOM     10  C   UNL d   1     -54.302  24.339  33.353  0.00  0.00     0.030 A 
ATOM     11  C   UNL d   1     -54.221  23.518  33.330  0.00  0.00     0.002 A 
ATOM     12  C   UNL d   1     -53.472  23.189  33.330  0.00  0.00     0.000 A 
ATOM     13  C   UNL d   1     -52.794  23.674  33.353  0.00  0.00     0.005 A 
ENDBRANCH   2   7
BRANCH   1  14
ATOM     14  C   UNL d   1     -51.968  26.069  33.308  0.00  0.00     0.108 C 
BRANCH  14  15
ATOM     15  C   UNL d   1     -51.499  26.717  33.503  0.00  0.00     0.118 A 
ATOM     16  O   UNL d   1     -51.755  27.414  33.863  0.00  0.00    -0.304 OA
ATOM     17  C   UNL d   1     -51.110  27.917  33.959  0.00  0.00     0.123 A 
ATOM     18  C   UNL d   1     -50.449  27.521  33.653  0.00  0.00     0.029 A 
ATOM     19  C   UNL d   1     -50.686  26.784  33.373  0.00  0.00     0.028 A 
ENDBRANCH  14  15
ENDBRANCH   1  14
TORSDOF 3
ENDMDL
MODEL 2
REMARK VINA RESULT:      28.5      1.279      1.771
REMARK  3 active torsions:
REMARK  status: ('A' for Active; 'I' for Inactive)
REMARK    1  A    between atoms: C_7  and  N_1 
REMARK    2  A    between atoms: C_5  and  C_2 
REMARK    3  A    between atoms: C_11  and  C_7 
ROOT
ATOM      1  N   UNL d   1     -51.874  25.985  33.456  0.00  0.00    -0.262 N 
ATOM      2  C   UNL d   1     -52.579  25.559  33.376  0.00  0.00     0.173 A 
ATOM      3  N   UNL d   1     -53.178  26.121  33.306  0.00  0.00    -0.128 NA
ATOM      4  C   UNL d   1     -52.030  26.777  33.436  0.00  0.00     0.227 A 
ATOM      5  N   UNL d   1     -52.844  26.872  33.342  0.00  0.00    -0.117 NA
ATOM      6  S   UNL d   1     -51.539  27.451  33.490  0.00  0.00    -0.036 SA
ENDROOT
BRANCH   2   7
ATOM      7  C   UNL d   1     -52.678  24.743  33.367  0.00  0.00     0.064 A 
ATOM      8  C   UNL d   1     -52.334  23.999  33.342  0.00  0.00     0.143 A 
ATOM      9  F   UNL d   1     -51.512  24.112  33.312  0.00  0.00    -0.204 F 
ATOM     10  C   UNL d   1     -52.819  23.322  33.350  0.00  0.00     0.030 A 
ATOM     11  C   UNL d   1     -53.641  23.397  33.384  0.00  0.00     0.002 A 
ATOM     12  C   UNL d   1     -53.975  24.143  33.408  0.00  0.00     0.000 A 
ATOM     13  C   UNL d   1     -53.495  24.824  33.400  0.00  0.00     0.005 A 
ENDBRANCH   2   7
BRANCH   1  14
ATOM     14  C   UNL d   1     -51.113  25.667  33.545  0.00  0.00     0.108 C 
BRANCH  14  15
ATOM     15  C   UNL d   1     -50.466  26.175  33.563  0.00  0.00     0.118 A 
ATOM     16  O   UNL d   1     -49.702  26.000  33.306  0.00  0.00    -0.304 OA
ATOM     17  C   UNL d   1     -49.224  26.660  33.423  0.00  0.00     0.123 A 
ATOM     18  C   UNL d   1     -49.703  27.249  33.756  0.00  0.00     0.029 A 
ATOM     19  C   UNL d   1     -50.467  26.952  33.844  0.00  0.00     0.028 A 
ENDBRANCH  14  15
ENDBRANCH   1  14
TORSDOF 3
ENDMDL
