MODEL 1
REMARK VINA RESULT:      -5.9      0.000      0.000
REMARK  0 active torsions:
REMARK  status: ('A' for Active; 'I' for Inactive)
ROOT
ATOM      1  N   UNL d   1     -41.249-121.663 -52.871  0.00  0.00    -0.208 NA
ATOM      2  C   UNL d   1     -41.187-121.670 -52.049  0.00  0.00     0.279 A 
ATOM      3  C   UNL d   1     -41.249-123.099 -52.049  0.00  0.00     0.006 A 
ATOM      4  C   UNL d   1     -41.187-122.385 -51.638  0.00  0.00     0.058 A 
ATOM      5  C   UNL d   1     -41.312-122.379 -53.285  0.00  0.00     0.085 A 
ATOM      6  C   UNL d   1     -41.312-123.096 -52.868  0.00  0.00     0.018 A 
ATOM      7  O   UNL d   1     -41.124-120.955 -51.638  0.00  0.00    -0.265 OA
ATOM      8  C   UNL d   1     -41.249-123.807 -51.642  0.00  0.00     0.000 A 
ATOM      9  C   UNL d   1     -41.125-122.396 -50.824  0.00  0.00     0.005 A 
ATOM     10  C   UNL d   1     -41.374-123.808 -53.276  0.00  0.00     0.002 A 
ATOM     11  C   UNL d   1     -41.374-122.378 -54.107  0.00  0.00     0.019 A 
ATOM     12  C   UNL d   1     -41.188-123.811 -50.832  0.00  0.00     0.000 A 
ATOM     13  C   UNL d   1     -41.125-123.108 -50.414  0.00  0.00     0.000 A 
ATOM     14  C   UNL d   1     -41.436-123.805 -54.104  0.00  0.00     0.000 A 
ATOM     15  C   UNL d   1     -41.437-123.092 -54.519  0.00  0.00     0.002 A 
ENDROOT
TORSDOF 0
ENDMDL
MODEL 2
REMARK VINA RESULT:      -5.0      0.865      2.628
REMARK  0 active torsions:
REMARK  status: ('A' for Active; 'I' for Inactive)
ROOT
ATOM      1  N   UNL d   1     -41.823-121.610 -52.760  0.00  0.00    -0.208 NA
ATOM      2  C   UNL d   1     -41.819-121.688 -53.581  0.00  0.00     0.279 A 
ATOM      3  C   UNL d   1     -41.356-123.036 -53.457  0.00  0.00     0.006 A 
ATOM      4  C   UNL d   1     -41.587-122.399 -53.929  0.00  0.00     0.058 A 
ATOM      5  C   UNL d   1     -41.591-122.249 -52.284  0.00  0.00     0.085 A 
ATOM      6  C   UNL d   1     -41.358-122.962 -52.639  0.00  0.00     0.018 A 
ATOM      7  O   UNL d   1     -42.051-121.050 -54.052  0.00  0.00    -0.265 OA
ATOM      8  C   UNL d   1     -41.126-123.739 -53.803  0.00  0.00     0.000 A 
ATOM      9  C   UNL d   1     -41.582-122.480 -54.742  0.00  0.00     0.005 A 
ATOM     10  C   UNL d   1     -41.127-123.597 -52.170  0.00  0.00     0.002 A 
ATOM     11  C   UNL d   1     -41.592-122.176 -51.463  0.00  0.00     0.019 A 
ATOM     12  C   UNL d   1     -41.123-123.814 -54.612  0.00  0.00     0.000 A 
ATOM     13  C   UNL d   1     -41.351-123.187 -55.089  0.00  0.00     0.000 A 
ATOM     14  C   UNL d   1     -41.130-123.522 -51.343  0.00  0.00     0.000 A 
ATOM     15  C   UNL d   1     -41.361-122.813 -50.990  0.00  0.00     0.002 A 
ENDROOT
TORSDOF 0
ENDMDL
MODEL 3
REMARK VINA RESULT:      -3.7      1.060      2.787
REMARK  0 active torsions:
REMARK  status: ('A' for Active; 'I' for Inactive)
ROOT
ATOM      1  N   UNL d   1     -41.860-121.592 -50.647  0.00  0.00    -0.208 NA
ATOM      2  C   UNL d   1     -41.650-121.538 -51.443  0.00  0.00     0.279 A 
ATOM      3  C   UNL d   1     -41.540-122.963 -51.516  0.00  0.00     0.006 A 
ATOM      4  C   UNL d   1     -41.490-122.222 -51.877  0.00  0.00     0.058 A 
ATOM      5  C   UNL d   1     -41.911-122.336 -50.283  0.00  0.00     0.085 A 
ATOM      6  C   UNL d   1     -41.749-123.020 -50.724  0.00  0.00     0.018 A 
ATOM      7  O   UNL d   1     -41.600-120.796 -51.803  0.00  0.00    -0.265 OA
ATOM      8  C   UNL d   1     -41.382-123.639 -51.947  0.00  0.00     0.000 A 
ATOM      9  C   UNL d   1     -41.282-122.173 -52.665  0.00  0.00     0.005 A 
ATOM     10  C   UNL d   1     -41.799-123.759 -50.367  0.00  0.00     0.002 A 
ATOM     11  C   UNL d   1     -42.121-122.395 -49.488  0.00  0.00     0.019 A 
ATOM     12  C   UNL d   1     -41.175-123.584 -52.731  0.00  0.00     0.000 A 
ATOM     13  C   UNL d   1     -41.123-122.852 -53.098  0.00  0.00     0.000 A 
ATOM     14  C   UNL d   1     -42.010-123.817 -49.566  0.00  0.00     0.000 A 
ATOM     15  C   UNL d   1     -42.171-123.136 -49.127  0.00  0.00     0.002 A 
ENDROOT
TORSDOF 0
ENDMDL
