MODEL 1
REMARK VINA RESULT:     -10.7      0.000      0.000
REMARK  0 active torsions:
REMARK  status: ('A' for Active; 'I' for Inactive)
ROOT
ATOM      1  N   UNL d   1      52.504  32.782  52.982  0.00  0.00    -0.208 NA
ATOM      2  C   UNL d   1      52.763  33.452  53.387  0.00  0.00     0.279 A 
ATOM      3  C   UNL d   1      53.676  32.650  54.141  0.00  0.00     0.006 A 
ATOM      4  C   UNL d   1      53.347  33.387  53.965  0.00  0.00     0.058 A 
ATOM      5  C   UNL d   1      52.833  32.041  53.157  0.00  0.00     0.085 A 
ATOM      6  C   UNL d   1      53.421  31.981  53.740  0.00  0.00     0.018 A 
ATOM      7  O   UNL d   1      52.433  34.189  53.210  0.00  0.00    -0.265 OA
ATOM      8  C   UNL d   1      54.255  32.587  54.714  0.00  0.00     0.000 A 
ATOM      9  C   UNL d   1      53.606  34.048  54.368  0.00  0.00     0.005 A 
ATOM     10  C   UNL d   1      53.750  31.248  53.917  0.00  0.00     0.002 A 
ATOM     11  C   UNL d   1      52.578  31.368  52.756  0.00  0.00     0.019 A 
ATOM     12  C   UNL d   1      54.508  33.249  55.112  0.00  0.00     0.000 A 
ATOM     13  C   UNL d   1      54.188  33.985  54.944  0.00  0.00     0.000 A 
ATOM     14  C   UNL d   1      53.491  30.571  53.511  0.00  0.00     0.000 A 
ATOM     15  C   UNL d   1      52.907  30.631  52.932  0.00  0.00     0.002 A 
ENDROOT
TORSDOF 0
ENDMDL
MODEL 2
REMARK VINA RESULT:     -10.7      1.150      2.647
REMARK  0 active torsions:
REMARK  status: ('A' for Active; 'I' for Inactive)
ROOT
ATOM      1  N   UNL d   1      53.442  32.232  53.557  0.00  0.00    -0.208 NA
ATOM      2  C   UNL d   1      52.822  32.409  53.042  0.00  0.00     0.279 A 
ATOM      3  C   UNL d   1      52.749  33.734  53.577  0.00  0.00     0.006 A 
ATOM      4  C   UNL d   1      52.476  33.157  53.051  0.00  0.00     0.058 A 
ATOM      5  C   UNL d   1      53.717  32.809  54.085  0.00  0.00     0.085 A 
ATOM      6  C   UNL d   1      53.365  33.561  54.090  0.00  0.00     0.018 A 
ATOM      7  O   UNL d   1      52.550  31.832  52.517  0.00  0.00    -0.265 OA
ATOM      8  C   UNL d   1      52.405  34.475  53.585  0.00  0.00     0.000 A 
ATOM      9  C   UNL d   1      51.862  33.337  52.544  0.00  0.00     0.005 A 
ATOM     10  C   UNL d   1      53.636  34.136  54.613  0.00  0.00     0.002 A 
ATOM     11  C   UNL d   1      54.336  32.638  54.601  0.00  0.00     0.019 A 
ATOM     12  C   UNL d   1      51.795  34.647  53.077  0.00  0.00     0.000 A 
ATOM     13  C   UNL d   1      51.517  34.081  52.552  0.00  0.00     0.000 A 
ATOM     14  C   UNL d   1      54.260  33.961  55.132  0.00  0.00     0.000 A 
ATOM     15  C   UNL d   1      54.609  33.214  55.126  0.00  0.00     0.002 A 
ENDROOT
TORSDOF 0
ENDMDL
MODEL 3
REMARK VINA RESULT:     -10.6      0.510      2.489
REMARK  0 active torsions:
REMARK  status: ('A' for Active; 'I' for Inactive)
ROOT
ATOM      1  N   UNL d   1      52.772  33.679  53.570  0.00  0.00    -0.208 NA
ATOM      2  C   UNL d   1      52.484  33.040  53.136  0.00  0.00     0.279 A 
ATOM      3  C   UNL d   1      53.432  32.176  53.769  0.00  0.00     0.006 A 
ATOM      4  C   UNL d   1      52.812  32.290  53.235  0.00  0.00     0.058 A 
ATOM      5  C   UNL d   1      53.395  33.567  54.106  0.00  0.00     0.085 A 
ATOM      6  C   UNL d   1      53.722  32.811  54.202  0.00  0.00     0.018 A 
ATOM      7  O   UNL d   1      51.864  33.155  52.602  0.00  0.00    -0.265 OA
ATOM      8  C   UNL d   1      53.757  31.433  53.867  0.00  0.00     0.000 A 
ATOM      9  C   UNL d   1      52.530  31.654  52.808  0.00  0.00     0.005 A 
ATOM     10  C   UNL d   1      54.339  32.695  54.734  0.00  0.00     0.002 A 
ATOM     11  C   UNL d   1      53.687  34.203  54.542  0.00  0.00     0.019 A 
ATOM     12  C   UNL d   1      53.471  30.804  53.439  0.00  0.00     0.000 A 
ATOM     13  C   UNL d   1      52.856  30.907  52.906  0.00  0.00     0.000 A 
ATOM     14  C   UNL d   1      54.632  33.337  55.172  0.00  0.00     0.000 A 
ATOM     15  C   UNL d   1      54.307  34.089  55.076  0.00  0.00     0.002 A 
ENDROOT
TORSDOF 0
ENDMDL
MODEL 4
REMARK VINA RESULT:     -10.6      1.137      2.239
REMARK  0 active torsions:
REMARK  status: ('A' for Active; 'I' for Inactive)
ROOT
ATOM      1  N   UNL d   1      52.762  32.380  53.075  0.00  0.00    -0.208 NA
ATOM      2  C   UNL d   1      53.382  32.198  53.587  0.00  0.00     0.279 A 
ATOM      3  C   UNL d   1      53.365  33.536  54.093  0.00  0.00     0.006 A 
ATOM      4  C   UNL d   1      53.684  32.774  54.095  0.00  0.00     0.058 A 
ATOM      5  C   UNL d   1      52.441  33.145  53.072  0.00  0.00     0.085 A 
ATOM      6  C   UNL d   1      52.747  33.721  53.584  0.00  0.00     0.018 A 
ATOM      7  O   UNL d   1      53.700  31.436  53.588  0.00  0.00    -0.265 OA
ATOM      8  C   UNL d   1      53.665  34.106  54.596  0.00  0.00     0.000 A 
ATOM      9  C   UNL d   1      54.298  32.598  54.603  0.00  0.00     0.005 A 
ATOM     10  C   UNL d   1      52.432  34.480  53.584  0.00  0.00     0.002 A 
ATOM     11  C   UNL d   1      51.820  33.332  52.562  0.00  0.00     0.019 A 
ATOM     12  C   UNL d   1      54.276  33.925  55.099  0.00  0.00     0.000 A 
ATOM     13  C   UNL d   1      54.599  33.171  55.109  0.00  0.00     0.000 A 
ATOM     14  C   UNL d   1      51.807  34.667  53.070  0.00  0.00     0.000 A 
ATOM     15  C   UNL d   1      51.502  34.094  52.560  0.00  0.00     0.002 A 
ENDROOT
TORSDOF 0
ENDMDL
