MODEL 1
REMARK VINA RESULT:      61.4      0.000      0.000
REMARK  2 active torsions:
REMARK  status: ('A' for Active; 'I' for Inactive)
REMARK    1  A    between atoms: C_5  and  C_1 
REMARK    2  A    between atoms: C_7  and  C_3 
REMARK       I    between atoms: N_8  and  C_7 
ROOT
ATOM      1  C   UNL d   1      60.847  49.117  50.532  0.00  0.00     0.086 A 
ATOM      2  S   UNL d   1      60.106  49.051  50.163  0.00  0.00    -0.080 SA
ATOM      3  C   UNL d   1      59.549  49.413  50.656  0.00  0.00     0.053 A 
ATOM      4  C   UNL d   1      60.744  49.517  51.246  0.00  0.00     0.012 A 
ATOM      5  C   UNL d   1      59.940  49.700  51.322  0.00  0.00     0.009 A 
ENDROOT
BRANCH   3   6
ATOM      6  C   UNL d   1      58.741  49.475  50.506  0.00  0.00     0.117 A 
ATOM      7  N   UNL d   1      58.390  49.464  49.760  0.00  0.00    -0.238 NA
ATOM      8  C   UNL d   1      57.572  49.541  49.870  0.00  0.00     0.088 A 
ATOM      9  C   UNL d   1      56.947  49.566  49.335  0.00  0.00     0.020 A 
ATOM     10  C   UNL d   1      57.425  49.598  50.680  0.00  0.00     0.049 A 
ATOM     11  C   UNL d   1      56.180  49.648  49.611  0.00  0.00     0.002 A 
ATOM     12  C   UNL d   1      56.033  49.705  50.421  0.00  0.00     0.001 A 
ATOM     13  C   UNL d   1      56.654  49.680  50.955  0.00  0.00     0.008 A 
ATOM     14  S   UNL d   1      58.153  49.557  51.073  0.00  0.00    -0.066 SA
ENDBRANCH   3   6
BRANCH   1  15
ATOM     15  C   UNL d   1      61.561  48.831  50.231  0.00  0.00     0.271 C 
ATOM     16  N   UNL d   1      61.657  48.022  50.116  0.00  0.00    -0.267 N 
ATOM     17  C   UNL d   1      62.369  47.739  49.817  0.00  0.00     0.110 A 
ATOM     18  C   UNL d   1      61.051  47.507  50.298  0.00  0.00     0.110 A 
ATOM     19  C   UNL d   1      62.472  46.935  49.700  0.00  0.00     0.142 A 
ATOM     20  O   UNL d   1      61.861  46.412  49.883  0.00  0.00    -0.300 OA
ATOM     21  C   UNL d   1      61.149  46.695  50.183  0.00  0.00     0.142 A 
ATOM     22  O   UNL d   1      62.172  49.354  50.047  0.00  0.00    -0.266 OA
ENDBRANCH   1  15
TORSDOF 2
ENDMDL
