MODEL 1
REMARK VINA RESULT:      39.4      0.000      0.000
REMARK  5 active torsions:
REMARK  status: ('A' for Active; 'I' for Inactive)
REMARK    1  A    between atoms: C_5  and  N_1 
REMARK    2  A    between atoms: C_8  and  C_2 
REMARK    3  A    between atoms: C_7  and  C_5 
REMARK    4  A    between atoms: N_10  and  C_8 
REMARK       I    between atoms: C_9  and  N_10 
REMARK    5  A    between atoms: C_17  and  C_9 
ROOT
ATOM      1  N   UNL d   1      45.008 -16.049  37.237  0.00  0.00    -0.288 N 
ATOM      2  C   UNL d   1      45.241 -16.321  37.979  0.00  0.00     0.167 A 
ATOM      3  N   UNL d   1      45.872 -15.870  38.232  0.00  0.00    -0.225 NA
ATOM      4  C   UNL d   1      45.505 -15.420  37.036  0.00  0.00     0.083 A 
ATOM      5  C   UNL d   1      46.037 -15.313  37.652  0.00  0.00     0.099 A 
ATOM      6  C   UNL d   1      45.538 -14.936  36.368  0.00  0.00     0.019 A 
ATOM      7  C   UNL d   1      46.612 -14.717  37.612  0.00  0.00     0.021 A 
ATOM      8  C   UNL d   1      46.113 -14.342  36.330  0.00  0.00     0.002 A 
ATOM      9  C   UNL d   1      46.646 -14.232  36.945  0.00  0.00     0.002 A 
ENDROOT
BRANCH   1  10
ATOM     10  C   UNL d   1      44.390 -16.351  36.783  0.00  0.00     0.084 C 
BRANCH  10  11
ATOM     11  C   UNL d   1      43.686 -15.940  36.725  0.00  0.00     0.045 A 
ATOM     12  C   UNL d   1      42.991 -16.342  36.497  0.00  0.00     0.141 A 
ATOM     13  F   UNL d   1      43.018 -17.149  36.334  0.00  0.00    -0.204 F 
ATOM     14  C   UNL d   1      42.274 -15.931  36.436  0.00  0.00     0.030 A 
ATOM     15  C   UNL d   1      42.243 -15.119  36.600  0.00  0.00     0.002 A 
ATOM     16  C   UNL d   1      42.948 -14.728  36.827  0.00  0.00     0.000 A 
ATOM     17  C   UNL d   1      43.656 -15.134  36.888  0.00  0.00     0.004 A 
ENDBRANCH  10  11
ENDBRANCH   1  10
BRANCH   2  18
ATOM     18  C   UNL d   1      44.894 -16.946  38.394  0.00  0.00     0.140 C 
BRANCH  18  19
ATOM     19  N   UNL d   1      45.370 -17.464  38.825  0.00  0.00    -0.203 NA
ATOM     20  C   UNL d   1      45.135 -17.727  39.560  0.00  0.00     0.279 C 
ATOM     21  O   UNL d   1      44.413 -17.473  39.875  0.00  0.00    -0.265 OA
BRANCH  20  22
ATOM     22  C   UNL d   1      45.604 -18.240  39.989  0.00  0.00     0.062 C 
ATOM     23  C   UNL d   1      45.727 -18.114  40.779  0.00  0.00     0.005 C 
ENDBRANCH  20  22
ENDBRANCH  18  19
ENDBRANCH   2  18
TORSDOF 5
ENDMDL
MODEL 2
REMARK VINA RESULT:      40.5      1.140      2.736
REMARK  5 active torsions:
REMARK  status: ('A' for Active; 'I' for Inactive)
REMARK    1  A    between atoms: C_5  and  N_1 
REMARK    2  A    between atoms: C_8  and  C_2 
REMARK    3  A    between atoms: C_7  and  C_5 
REMARK    4  A    between atoms: N_10  and  C_8 
REMARK       I    between atoms: C_9  and  N_10 
REMARK    5  A    between atoms: C_17  and  C_9 
ROOT
ATOM      1  N   UNL d   1      44.196 -15.920  37.146  0.00  0.00    -0.288 N 
ATOM      2  C   UNL d   1      44.210 -16.266  37.894  0.00  0.00     0.167 A 
ATOM      3  N   UNL d   1      43.450 -16.269  38.190  0.00  0.00    -0.225 NA
ATOM      4  C   UNL d   1      43.413 -15.709  36.985  0.00  0.00     0.083 A 
ATOM      5  C   UNL d   1      42.956 -15.926  37.632  0.00  0.00     0.099 A 
ATOM      6  C   UNL d   1      43.063 -15.347  36.330  0.00  0.00     0.019 A 
ATOM      7  C   UNL d   1      42.139 -15.785  37.635  0.00  0.00     0.021 A 
ATOM      8  C   UNL d   1      42.248 -15.207  36.336  0.00  0.00     0.002 A 
ATOM      9  C   UNL d   1      41.788 -15.423  36.981  0.00  0.00     0.002 A 
ENDROOT
BRANCH   1  10
ATOM     10  C   UNL d   1      44.846 -15.807  36.652  0.00  0.00     0.084 C 
BRANCH  10  11
ATOM     11  C   UNL d   1      45.328 -15.155  36.754  0.00  0.00     0.045 A 
ATOM     12  C   UNL d   1      46.150 -15.225  36.628  0.00  0.00     0.141 A 
ATOM     13  F   UNL d   1      46.471 -15.950  36.402  0.00  0.00    -0.204 F 
ATOM     14  C   UNL d   1      46.645 -14.568  36.729  0.00  0.00     0.030 A 
ATOM     15  C   UNL d   1      46.326 -13.837  36.956  0.00  0.00     0.002 A 
ATOM     16  C   UNL d   1      45.500 -13.780  37.079  0.00  0.00     0.000 A 
ATOM     17  C   UNL d   1      45.011 -14.430  36.979  0.00  0.00     0.004 A 
ENDBRANCH  10  11
ENDBRANCH   1  10
BRANCH   2  18
ATOM     18  C   UNL d   1      44.882 -16.558  38.276  0.00  0.00     0.140 C 
BRANCH  18  19
ATOM     19  N   UNL d   1      44.834 -17.267  38.697  0.00  0.00    -0.203 NA
ATOM     20  C   UNL d   1      45.263 -17.369  39.383  0.00  0.00     0.279 C 
ATOM     21  O   UNL d   1      45.749 -16.758  39.658  0.00  0.00    -0.265 OA
BRANCH  20  22
ATOM     22  C   UNL d   1      45.219 -18.069  39.802  0.00  0.00     0.062 C 
ATOM     23  C   UNL d   1      45.883 -18.515  39.921  0.00  0.00     0.005 C 
ENDBRANCH  20  22
ENDBRANCH  18  19
ENDBRANCH   2  18
TORSDOF 5
ENDMDL
