MODEL 1
REMARK VINA RESULT:      -7.3      0.000      0.000
REMARK  6 active torsions:
REMARK  status: ('A' for Active; 'I' for Inactive)
REMARK    1  A    between atoms: C_13  and  C_3 
REMARK    2  A    between atoms: S_12  and  C_4 
REMARK    3  A    between atoms: C_8  and  C_6 
REMARK    4  A    between atoms: O_17  and  C_8 
REMARK    5  A    between atoms: C_10  and  C_16 
REMARK    6  A    between atoms: C_16  and  S_12 
ROOT
ATOM      1  O   UNL d   1     -48.110  13.848  23.105  0.00  0.00    -0.263 OA
ATOM      2  N   UNL d   1     -47.709  14.924  22.429  0.00  0.00    -0.120 NA
ATOM      3  C   UNL d   1     -48.362  14.555  22.750  0.00  0.00     0.205 A 
ATOM      4  C   UNL d   1     -47.292  13.794  22.995  0.00  0.00     0.236 A 
ATOM      5  N   UNL d   1     -47.045  14.456  22.579  0.00  0.00    -0.114 NA
ENDROOT
BRANCH   4   6
ATOM      6  S   UNL d   1     -46.794  13.178  23.257  0.00  0.00    -0.039 SA
BRANCH   6   7
ATOM      7  C   UNL d   1     -47.093  12.412  23.342  0.00  0.00     0.064 C 
BRANCH   7   8
ATOM      8  C   UNL d   1     -46.574  11.781  23.440  0.00  0.00     0.107 A 
ATOM      9  O   UNL d   1     -45.751  11.723  23.379  0.00  0.00    -0.301 OA
ATOM     10  C   UNL d   1     -45.537  10.933  23.540  0.00  0.00     0.163 A 
ATOM     11  C   UNL d   1     -46.229  10.517  23.698  0.00  0.00     0.032 A 
ATOM     12  C   UNL d   1     -46.864  11.027  23.638  0.00  0.00     0.027 A 
BRANCH  10  13
ATOM     13  C   UNL d   1     -44.769  10.622  23.542  0.00  0.00     0.319 C 
ATOM     14  O   UNL d   1     -44.651   9.816  23.698  0.00  0.00    -0.257 OA
BRANCH  13  15
ATOM     15  O   UNL d   1     -44.118  11.108  23.390  0.00  0.00    -0.294 OA
ATOM     16  C   UNL d   1     -43.413  10.789  23.094  0.00  0.00     0.185 C 
ENDBRANCH  13  15
ENDBRANCH  10  13
ENDBRANCH   7   8
ENDBRANCH   6   7
ENDBRANCH   4   6
BRANCH   3  17
ATOM     17  C   UNL d   1     -49.155  14.791  22.753  0.00  0.00     0.046 A 
ATOM     18  C   UNL d   1     -49.676  14.466  22.209  0.00  0.00     0.024 A 
ATOM     19  C   UNL d   1     -50.468  14.696  22.206  0.00  0.00     0.099 A 
ATOM     20  N   UNL d   1     -50.743  15.253  22.750  0.00  0.00    -0.242 NA
ATOM     21  C   UNL d   1     -50.215  15.581  23.300  0.00  0.00     0.099 A 
ATOM     22  C   UNL d   1     -49.426  15.348  23.298  0.00  0.00     0.024 A 
ENDBRANCH   3  17
TORSDOF 6
ENDMDL
MODEL 2
REMARK VINA RESULT:      -6.8      1.343      1.651
REMARK  6 active torsions:
REMARK  status: ('A' for Active; 'I' for Inactive)
REMARK    1  A    between atoms: C_13  and  C_3 
REMARK    2  A    between atoms: S_12  and  C_4 
REMARK    3  A    between atoms: C_8  and  C_6 
REMARK    4  A    between atoms: O_17  and  C_8 
REMARK    5  A    between atoms: C_10  and  C_16 
REMARK    6  A    between atoms: C_16  and  S_12 
ROOT
ATOM      1  O   UNL d   1     -48.662  13.475  22.855  0.00  0.00    -0.263 OA
ATOM      2  N   UNL d   1     -49.576  12.902  23.638  0.00  0.00    -0.120 NA
ATOM      3  C   UNL d   1     -49.433  13.546  23.158  0.00  0.00     0.205 A 
ATOM      4  C   UNL d   1     -48.341  12.777  23.159  0.00  0.00     0.236 A 
ATOM      5  N   UNL d   1     -48.903  12.424  23.641  0.00  0.00    -0.114 NA
ENDROOT
BRANCH   4   6
ATOM      6  S   UNL d   1     -47.578  12.474  23.008  0.00  0.00    -0.039 SA
BRANCH   6   7
ATOM      7  C   UNL d   1     -46.916  12.961  23.088  0.00  0.00     0.064 C 
BRANCH   7   8
ATOM      8  C   UNL d   1     -46.167  12.662  22.924  0.00  0.00     0.107 A 
ATOM      9  O   UNL d   1     -45.733  12.039  23.252  0.00  0.00    -0.301 OA
ATOM     10  C   UNL d   1     -45.001  11.998  22.854  0.00  0.00     0.163 A 
ATOM     11  C   UNL d   1     -44.995  12.595  22.288  0.00  0.00     0.032 A 
ATOM     12  C   UNL d   1     -45.701  13.003  22.325  0.00  0.00     0.027 A 
BRANCH  10  13
ATOM     13  C   UNL d   1     -44.391  11.457  23.000  0.00  0.00     0.319 C 
ATOM     14  O   UNL d   1     -43.673  11.526  22.591  0.00  0.00    -0.257 OA
BRANCH  13  15
ATOM     15  O   UNL d   1     -44.492  10.848  23.550  0.00  0.00    -0.294 OA
ATOM     16  C   UNL d   1     -43.881  10.308  23.697  0.00  0.00     0.185 C 
ENDBRANCH  13  15
ENDBRANCH  10  13
ENDBRANCH   7   8
ENDBRANCH   6   7
ENDBRANCH   4   6
BRANCH   3  17
ATOM     17  C   UNL d   1     -49.923  14.185  22.969  0.00  0.00     0.046 A 
ATOM     18  C   UNL d   1     -49.835  14.896  23.368  0.00  0.00     0.024 A 
ATOM     19  C   UNL d   1     -50.319  15.537  23.185  0.00  0.00     0.099 A 
ATOM     20  N   UNL d   1     -50.897  15.470  22.599  0.00  0.00    -0.242 NA
ATOM     21  C   UNL d   1     -50.986  14.750  22.196  0.00  0.00     0.099 A 
ATOM     22  C   UNL d   1     -50.500  14.114  22.382  0.00  0.00     0.024 A 
ENDBRANCH   3  17
TORSDOF 6
ENDMDL
MODEL 3
REMARK VINA RESULT:      -6.2      1.815      5.679
REMARK  6 active torsions:
REMARK  status: ('A' for Active; 'I' for Inactive)
REMARK    1  A    between atoms: C_13  and  C_3 
REMARK    2  A    between atoms: S_12  and  C_4 
REMARK    3  A    between atoms: C_8  and  C_6 
REMARK    4  A    between atoms: O_17  and  C_8 
REMARK    5  A    between atoms: C_10  and  C_16 
REMARK    6  A    between atoms: C_16  and  S_12 
ROOT
ATOM      1  O   UNL d   1     -45.788  12.202  23.295  0.00  0.00    -0.263 OA
ATOM      2  N   UNL d   1     -46.428  11.104  23.698  0.00  0.00    -0.120 NA
ATOM      3  C   UNL d   1     -45.701  11.394  23.468  0.00  0.00     0.205 A 
ATOM      4  C   UNL d   1     -46.581  12.397  23.423  0.00  0.00     0.236 A 
ATOM      5  N   UNL d   1     -46.975  11.723  23.671  0.00  0.00    -0.114 NA
ENDROOT
BRANCH   4   6
ATOM      6  S   UNL d   1     -46.931  13.148  23.321  0.00  0.00    -0.039 SA
BRANCH   6   7
ATOM      7  C   UNL d   1     -47.320  13.332  22.617  0.00  0.00     0.064 C 
BRANCH   7   8
ATOM      8  C   UNL d   1     -47.841  13.969  22.592  0.00  0.00     0.107 A 
ATOM      9  O   UNL d   1     -48.665  14.014  22.632  0.00  0.00    -0.301 OA
ATOM     10  C   UNL d   1     -48.881  14.819  22.578  0.00  0.00     0.163 A 
ATOM     11  C   UNL d   1     -48.188  15.255  22.506  0.00  0.00     0.032 A 
ATOM     12  C   UNL d   1     -47.551  14.744  22.514  0.00  0.00     0.027 A 
BRANCH  10  13
ATOM     13  C   UNL d   1     -49.651  15.123  22.594  0.00  0.00     0.319 C 
ATOM     14  O   UNL d   1     -49.788  15.908  22.362  0.00  0.00    -0.257 OA
BRANCH  13  15
ATOM     15  O   UNL d   1     -50.285  14.653  22.838  0.00  0.00    -0.294 OA
ATOM     16  C   UNL d   1     -51.064  14.867  22.657  0.00  0.00     0.185 C 
ENDBRANCH  13  15
ENDBRANCH  10  13
ENDBRANCH   7   8
ENDBRANCH   6   7
ENDBRANCH   4   6
BRANCH   3  17
ATOM     17  C   UNL d   1     -44.974  11.005  23.401  0.00  0.00     0.046 A 
ATOM     18  C   UNL d   1     -44.892  10.244  23.696  0.00  0.00     0.024 A 
ATOM     19  C   UNL d   1     -44.171   9.851  23.633  0.00  0.00     0.099 A 
ATOM     20  N   UNL d   1     -43.525  10.217  23.272  0.00  0.00    -0.242 NA
ATOM     21  C   UNL d   1     -43.609  10.987  22.973  0.00  0.00     0.099 A 
ATOM     22  C   UNL d   1     -44.331  11.375  23.039  0.00  0.00     0.024 A 
ENDBRANCH   3  17
TORSDOF 6
ENDMDL
MODEL 4
REMARK VINA RESULT:      -6.2      1.774      1.971
REMARK  6 active torsions:
REMARK  status: ('A' for Active; 'I' for Inactive)
REMARK    1  A    between atoms: C_13  and  C_3 
REMARK    2  A    between atoms: S_12  and  C_4 
REMARK    3  A    between atoms: C_8  and  C_6 
REMARK    4  A    between atoms: O_17  and  C_8 
REMARK    5  A    between atoms: C_10  and  C_16 
REMARK    6  A    between atoms: C_16  and  S_12 
ROOT
ATOM      1  O   UNL d   1     -49.018  12.290  22.773  0.00  0.00    -0.263 OA
ATOM      2  N   UNL d   1     -50.129  11.831  23.349  0.00  0.00    -0.120 NA
ATOM      3  C   UNL d   1     -49.845  12.372  22.809  0.00  0.00     0.205 A 
ATOM      4  C   UNL d   1     -48.807  11.689  23.300  0.00  0.00     0.236 A 
ATOM      5  N   UNL d   1     -49.490  11.407  23.654  0.00  0.00    -0.114 NA
ENDROOT
BRANCH   4   6
ATOM      6  S   UNL d   1     -48.035  11.411  23.452  0.00  0.00    -0.039 SA
BRANCH   6   7
ATOM      7  C   UNL d   1     -47.421  11.946  23.587  0.00  0.00     0.064 C 
BRANCH   7   8
ATOM      8  C   UNL d   1     -46.639  11.693  23.528  0.00  0.00     0.107 A 
ATOM      9  O   UNL d   1     -46.275  10.970  23.698  0.00  0.00    -0.301 OA
ATOM     10  C   UNL d   1     -45.462  11.047  23.526  0.00  0.00     0.163 A 
ATOM     11  C   UNL d   1     -45.339  11.813  23.254  0.00  0.00     0.032 A 
ATOM     12  C   UNL d   1     -46.051  12.212  23.253  0.00  0.00     0.027 A 
BRANCH  10  13
ATOM     13  C   UNL d   1     -44.884  10.459  23.613  0.00  0.00     0.319 C 
ATOM     14  O   UNL d   1     -45.107   9.661  23.617  0.00  0.00    -0.257 OA
BRANCH  13  15
ATOM     15  O   UNL d   1     -44.088  10.661  23.696  0.00  0.00    -0.294 OA
ATOM     16  C   UNL d   1     -43.492  10.125  23.486  0.00  0.00     0.185 C 
ENDBRANCH  13  15
ENDBRANCH  10  13
ENDBRANCH   7   8
ENDBRANCH   6   7
ENDBRANCH   4   6
BRANCH   3  17
ATOM     17  C   UNL d   1     -50.252  12.928  22.351  0.00  0.00     0.046 A 
ATOM     18  C   UNL d   1     -50.310  12.820  21.540  0.00  0.00     0.024 A 
ATOM     19  C   UNL d   1     -50.714  13.369  21.077  0.00  0.00     0.099 A 
ATOM     20  N   UNL d   1     -51.064  14.031  21.424  0.00  0.00    -0.242 NA
ATOM     21  C   UNL d   1     -51.006  14.139  22.245  0.00  0.00     0.099 A 
ATOM     22  C   UNL d   1     -50.601  13.588  22.702  0.00  0.00     0.024 A 
ENDBRANCH   3  17
TORSDOF 6
ENDMDL
MODEL 5
REMARK VINA RESULT:      -5.6      2.094      5.401
REMARK  6 active torsions:
REMARK  status: ('A' for Active; 'I' for Inactive)
REMARK    1  A    between atoms: C_13  and  C_3 
REMARK    2  A    between atoms: S_12  and  C_4 
REMARK    3  A    between atoms: C_8  and  C_6 
REMARK    4  A    between atoms: O_17  and  C_8 
REMARK    5  A    between atoms: C_10  and  C_16 
REMARK    6  A    between atoms: C_16  and  S_12 
ROOT
ATOM      1  O   UNL d   1     -46.228  12.893  22.525  0.00  0.00    -0.263 OA
ATOM      2  N   UNL d   1     -45.811  12.155  23.554  0.00  0.00    -0.120 NA
ATOM      3  C   UNL d   1     -45.578  12.485  22.845  0.00  0.00     0.205 A 
ATOM      4  C   UNL d   1     -46.858  12.805  23.052  0.00  0.00     0.236 A 
ATOM      5  N   UNL d   1     -46.602  12.352  23.686  0.00  0.00    -0.114 NA
ENDROOT
BRANCH   4   6
ATOM      6  S   UNL d   1     -47.626  13.120  22.966  0.00  0.00    -0.039 SA
BRANCH   6   7
ATOM      7  C   UNL d   1     -48.253  12.629  22.747  0.00  0.00     0.064 C 
BRANCH   7   8
ATOM      8  C   UNL d   1     -49.007  12.946  22.652  0.00  0.00     0.107 A 
ATOM      9  O   UNL d   1     -49.292  13.721  22.691  0.00  0.00    -0.301 OA
ATOM     10  C   UNL d   1     -50.113  13.700  22.546  0.00  0.00     0.163 A 
ATOM     11  C   UNL d   1     -50.320  12.914  22.419  0.00  0.00     0.032 A 
ATOM     12  C   UNL d   1     -49.652  12.450  22.482  0.00  0.00     0.027 A 
BRANCH  10  13
ATOM     13  C   UNL d   1     -50.627  14.350  22.531  0.00  0.00     0.319 C 
ATOM     14  O   UNL d   1     -50.762  14.750  21.818  0.00  0.00    -0.257 OA
BRANCH  13  15
ATOM     15  O   UNL d   1     -51.005  14.603  23.220  0.00  0.00    -0.294 OA
ATOM     16  C   UNL d   1     -51.064  15.410  23.397  0.00  0.00     0.185 C 
ENDBRANCH  13  15
ENDBRANCH  10  13
ENDBRANCH   7   8
ENDBRANCH   6   7
ENDBRANCH   4   6
BRANCH   3  17
ATOM     17  C   UNL d   1     -44.846  12.454  22.461  0.00  0.00     0.046 A 
ATOM     18  C   UNL d   1     -44.666  13.010  21.885  0.00  0.00     0.024 A 
ATOM     19  C   UNL d   1     -43.939  12.986  21.499  0.00  0.00     0.099 A 
ATOM     20  N   UNL d   1     -43.385  12.403  21.687  0.00  0.00    -0.242 NA
ATOM     21  C   UNL d   1     -43.568  11.841  22.269  0.00  0.00     0.099 A 
ATOM     22  C   UNL d   1     -44.295  11.870  22.652  0.00  0.00     0.024 A 
ENDBRANCH   3  17
TORSDOF 6
ENDMDL
MODEL 6
REMARK VINA RESULT:      -5.4      4.315      5.686
REMARK  6 active torsions:
REMARK  status: ('A' for Active; 'I' for Inactive)
REMARK    1  A    between atoms: C_13  and  C_3 
REMARK    2  A    between atoms: S_12  and  C_4 
REMARK    3  A    between atoms: C_8  and  C_6 
REMARK    4  A    between atoms: O_17  and  C_8 
REMARK    5  A    between atoms: C_10  and  C_16 
REMARK    6  A    between atoms: C_16  and  S_12 
ROOT
ATOM      1  O   UNL d   1     -44.154  13.229  21.657  0.00  0.00    -0.263 OA
ATOM      2  N   UNL d   1     -44.096  12.062  22.301  0.00  0.00    -0.120 NA
ATOM      3  C   UNL d   1     -44.560  12.721  22.175  0.00  0.00     0.205 A 
ATOM      4  C   UNL d   1     -43.435  12.866  21.471  0.00  0.00     0.236 A 
ATOM      5  N   UNL d   1     -43.399  12.149  21.866  0.00  0.00    -0.114 NA
ENDROOT
BRANCH   4   6
ATOM      6  S   UNL d   1     -42.842  13.168  20.968  0.00  0.00    -0.039 SA
BRANCH   6   7
ATOM      7  C   UNL d   1     -42.128  13.438  21.285  0.00  0.00     0.064 C 
BRANCH   7   8
ATOM      8  C   UNL d   1     -41.584  13.818  20.798  0.00  0.00     0.107 A 
ATOM      9  O   UNL d   1     -41.488  13.833  19.977  0.00  0.00    -0.301 OA
ATOM     10  C   UNL d   1     -40.832  14.320  19.804  0.00  0.00     0.163 A 
ATOM     11  C   UNL d   1     -40.535  14.596  20.520  0.00  0.00     0.032 A 
ATOM     12  C   UNL d   1     -40.988  14.295  21.129  0.00  0.00     0.027 A 
BRANCH  10  13
ATOM     13  C   UNL d   1     -40.534  14.493  19.051  0.00  0.00     0.319 C 
ATOM     14  O   UNL d   1     -40.431  15.284  18.822  0.00  0.00    -0.257 OA
BRANCH  13  15
ATOM     15  O   UNL d   1     -40.338  13.887  18.526  0.00  0.00    -0.294 OA
ATOM     16  C   UNL d   1     -40.024  14.060  17.779  0.00  0.00     0.185 C 
ENDBRANCH  13  15
ENDBRANCH  10  13
ENDBRANCH   7   8
ENDBRANCH   6   7
ENDBRANCH   4   6
BRANCH   3  17
ATOM     17  C   UNL d   1     -45.307  12.908  22.479  0.00  0.00     0.046 A 
ATOM     18  C   UNL d   1     -45.718  12.349  22.916  0.00  0.00     0.024 A 
ATOM     19  C   UNL d   1     -46.462  12.528  23.222  0.00  0.00     0.099 A 
ATOM     20  N   UNL d   1     -46.801  13.270  23.091  0.00  0.00    -0.242 NA
ATOM     21  C   UNL d   1     -46.383  13.835  22.649  0.00  0.00     0.099 A 
ATOM     22  C   UNL d   1     -45.642  13.651  22.347  0.00  0.00     0.024 A 
ENDBRANCH   3  17
TORSDOF 6
ENDMDL
MODEL 7
REMARK VINA RESULT:      -5.1      8.440      9.544
REMARK  6 active torsions:
REMARK  status: ('A' for Active; 'I' for Inactive)
REMARK    1  A    between atoms: C_13  and  C_3 
REMARK    2  A    between atoms: S_12  and  C_4 
REMARK    3  A    between atoms: C_8  and  C_6 
REMARK    4  A    between atoms: O_17  and  C_8 
REMARK    5  A    between atoms: C_10  and  C_16 
REMARK    6  A    between atoms: C_16  and  S_12 
ROOT
ATOM      1  O   UNL d   1     -39.629  14.597  18.526  0.00  0.00    -0.263 OA
ATOM      2  N   UNL d   1     -40.595  14.035  17.799  0.00  0.00    -0.120 NA
ATOM      3  C   UNL d   1     -39.867  14.401  17.755  0.00  0.00     0.205 A 
ATOM      4  C   UNL d   1     -40.224  14.343  19.040  0.00  0.00     0.236 A 
ATOM      5  N   UNL d   1     -40.819  13.997  18.594  0.00  0.00    -0.114 NA
ENDROOT
BRANCH   4   6
ATOM      6  S   UNL d   1     -40.230  14.420  19.871  0.00  0.00    -0.039 SA
BRANCH   6   7
ATOM      7  C   UNL d   1     -40.155  15.166  20.218  0.00  0.00     0.064 C 
BRANCH   7   8
ATOM      8  C   UNL d   1     -39.848  15.232  20.979  0.00  0.00     0.107 A 
ATOM      9  O   UNL d   1     -39.396  14.718  21.443  0.00  0.00    -0.301 OA
ATOM     10  C   UNL d   1     -39.250  15.094  22.174  0.00  0.00     0.163 A 
ATOM     11  C   UNL d   1     -39.614  15.831  22.149  0.00  0.00     0.032 A 
ATOM     12  C   UNL d   1     -39.979  15.922  21.425  0.00  0.00     0.027 A 
BRANCH  10  13
ATOM     13  C   UNL d   1     -38.818  14.782  22.808  0.00  0.00     0.319 C 
ATOM     14  O   UNL d   1     -38.963  15.055  23.578  0.00  0.00    -0.257 OA
BRANCH  13  15
ATOM     15  O   UNL d   1     -38.244  14.202  22.683  0.00  0.00    -0.294 OA
ATOM     16  C   UNL d   1     -37.946  13.758  23.316  0.00  0.00     0.185 C 
ENDBRANCH  13  15
ENDBRANCH  10  13
ENDBRANCH   7   8
ENDBRANCH   6   7
ENDBRANCH   4   6
BRANCH   3  17
ATOM     17  C   UNL d   1     -39.401  14.574  17.093  0.00  0.00     0.046 A 
ATOM     18  C   UNL d   1     -38.903  13.998  16.787  0.00  0.00     0.024 A 
ATOM     19  C   UNL d   1     -38.435  14.163  16.128  0.00  0.00     0.099 A 
ATOM     20  N   UNL d   1     -38.465  14.907  15.771  0.00  0.00    -0.242 NA
ATOM     21  C   UNL d   1     -38.969  15.488  16.081  0.00  0.00     0.099 A 
ATOM     22  C   UNL d   1     -39.433  15.318  16.739  0.00  0.00     0.024 A 
ENDBRANCH   3  17
TORSDOF 6
ENDMDL
MODEL 8
REMARK VINA RESULT:      -5.0      1.733      2.018
REMARK  6 active torsions:
REMARK  status: ('A' for Active; 'I' for Inactive)
REMARK    1  A    between atoms: C_13  and  C_3 
REMARK    2  A    between atoms: S_12  and  C_4 
REMARK    3  A    between atoms: C_8  and  C_6 
REMARK    4  A    between atoms: O_17  and  C_8 
REMARK    5  A    between atoms: C_10  and  C_16 
REMARK    6  A    between atoms: C_16  and  S_12 
ROOT
ATOM      1  O   UNL d   1     -48.120  13.894  22.428  0.00  0.00    -0.263 OA
ATOM      2  N   UNL d   1     -48.375  15.192  22.589  0.00  0.00    -0.120 NA
ATOM      3  C   UNL d   1     -48.713  14.474  22.399  0.00  0.00     0.205 A 
ATOM      4  C   UNL d   1     -47.416  14.272  22.639  0.00  0.00     0.236 A 
ATOM      5  N   UNL d   1     -47.572  15.070  22.738  0.00  0.00    -0.114 NA
ENDROOT
BRANCH   4   6
ATOM      6  S   UNL d   1     -46.669  13.912  22.737  0.00  0.00    -0.039 SA
BRANCH   6   7
ATOM      7  C   UNL d   1     -46.459  13.260  22.277  0.00  0.00     0.064 C 
BRANCH   7   8
ATOM      8  C   UNL d   1     -45.673  13.018  22.246  0.00  0.00     0.107 A 
ATOM      9  O   UNL d   1     -45.039  13.251  21.769  0.00  0.00    -0.301 OA
ATOM     10  C   UNL d   1     -44.371  12.805  21.995  0.00  0.00     0.163 A 
ATOM     11  C   UNL d   1     -44.603  12.306  22.606  0.00  0.00     0.032 A 
ATOM     12  C   UNL d   1     -45.394  12.430  22.764  0.00  0.00     0.027 A 
BRANCH  10  13
ATOM     13  C   UNL d   1     -43.612  12.856  21.666  0.00  0.00     0.319 C 
ATOM     14  O   UNL d   1     -43.217  12.164  21.436  0.00  0.00    -0.257 OA
BRANCH  13  15
ATOM     15  O   UNL d   1     -43.245  13.588  21.564  0.00  0.00    -0.294 OA
ATOM     16  C   UNL d   1     -42.487  13.639  21.233  0.00  0.00     0.185 C 
ENDBRANCH  13  15
ENDBRANCH  10  13
ENDBRANCH   7   8
ENDBRANCH   6   7
ENDBRANCH   4   6
BRANCH   3  17
ATOM     17  C   UNL d   1     -49.497  14.293  22.204  0.00  0.00     0.046 A 
ATOM     18  C   UNL d   1     -49.673  13.566  21.868  0.00  0.00     0.024 A 
ATOM     19  C   UNL d   1     -50.450  13.378  21.671  0.00  0.00     0.099 A 
ATOM     20  N   UNL d   1     -51.059  13.919  21.809  0.00  0.00    -0.242 NA
ATOM     21  C   UNL d   1     -50.880  14.655  22.148  0.00  0.00     0.099 A 
ATOM     22  C   UNL d   1     -50.102  14.837  22.343  0.00  0.00     0.024 A 
ENDBRANCH   3  17
TORSDOF 6
ENDMDL
MODEL 9
REMARK VINA RESULT:      -5.0      8.531      9.772
REMARK  6 active torsions:
REMARK  status: ('A' for Active; 'I' for Inactive)
REMARK    1  A    between atoms: C_13  and  C_3 
REMARK    2  A    between atoms: S_12  and  C_4 
REMARK    3  A    between atoms: C_8  and  C_6 
REMARK    4  A    between atoms: O_17  and  C_8 
REMARK    5  A    between atoms: C_10  and  C_16 
REMARK    6  A    between atoms: C_16  and  S_12 
ROOT
ATOM      1  O   UNL d   1     -39.411  15.471  20.706  0.00  0.00    -0.263 OA
ATOM      2  N   UNL d   1     -40.497  15.229  21.441  0.00  0.00    -0.120 NA
ATOM      3  C   UNL d   1     -39.689  15.338  21.478  0.00  0.00     0.205 A 
ATOM      4  C   UNL d   1     -40.064  15.440  20.200  0.00  0.00     0.236 A 
ATOM      5  N   UNL d   1     -40.732  15.292  20.652  0.00  0.00    -0.114 NA
ENDROOT
BRANCH   4   6
ATOM      6  S   UNL d   1     -40.056  15.542  19.372  0.00  0.00    -0.039 SA
BRANCH   6   7
ATOM      7  C   UNL d   1     -40.346  14.946  18.879  0.00  0.00     0.064 C 
BRANCH   7   8
ATOM      8  C   UNL d   1     -40.101  14.911  18.093  0.00  0.00     0.107 A 
ATOM      9  O   UNL d   1     -39.364  14.767  17.748  0.00  0.00    -0.301 OA
ATOM     10  C   UNL d   1     -39.458  14.803  16.919  0.00  0.00     0.163 A 
ATOM     11  C   UNL d   1     -40.250  14.968  16.768  0.00  0.00     0.032 A 
ATOM     12  C   UNL d   1     -40.646  15.036  17.478  0.00  0.00     0.027 A 
BRANCH  10  13
ATOM     13  C   UNL d   1     -38.865  14.693  16.351  0.00  0.00     0.319 C 
ATOM     14  O   UNL d   1     -38.430  15.344  16.080  0.00  0.00    -0.257 OA
BRANCH  13  15
ATOM     15  O   UNL d   1     -38.702  13.940  16.053  0.00  0.00    -0.294 OA
ATOM     16  C   UNL d   1     -38.126  13.833  15.468  0.00  0.00     0.185 C 
ENDBRANCH  13  15
ENDBRANCH  10  13
ENDBRANCH   7   8
ENDBRANCH   6   7
ENDBRANCH   4   6
BRANCH   3  17
ATOM     17  C   UNL d   1     -39.184  15.329  22.132  0.00  0.00     0.046 A 
ATOM     18  C   UNL d   1     -38.634  14.725  22.212  0.00  0.00     0.024 A 
ATOM     19  C   UNL d   1     -38.127  14.710  22.861  0.00  0.00     0.099 A 
ATOM     20  N   UNL d   1     -38.166  15.301  23.437  0.00  0.00    -0.242 NA
ATOM     21  C   UNL d   1     -38.722  15.912  23.355  0.00  0.00     0.099 A 
ATOM     22  C   UNL d   1     -39.226  15.922  22.705  0.00  0.00     0.024 A 
ENDBRANCH   3  17
TORSDOF 6
ENDMDL
