MODEL 1
REMARK VINA RESULT:      78.9      0.000      0.000
REMARK  2 active torsions:
REMARK  status: ('A' for Active; 'I' for Inactive)
REMARK       I    between atoms: N_3  and  C_1 
REMARK       I    between atoms: N_4  and  C_1 
REMARK       I    between atoms: C_2  and  N_5 
REMARK       I    between atoms: N_6  and  C_2 
REMARK    1  A    between atoms: C_13  and  N_4 
REMARK    2  A    between atoms: C_14  and  N_4 
ROOT
ATOM      1  C   UNL d   1      14.390  13.790  -2.248  0.00  0.00     0.339 C 
ATOM      2  C   UNL d   1      13.939  15.395  -5.095  0.00  0.00     0.340 C 
ATOM      3  N   UNL d   1      14.276  14.198  -2.970  0.00  0.00    -0.254 N 
ATOM      4  N   UNL d   1      14.198  12.991  -2.190  0.00  0.00    -0.260 N 
ATOM      5  N   UNL d   1      14.053  14.996  -4.382  0.00  0.00    -0.254 N 
ATOM      6  N   UNL d   1      14.130  16.195  -5.156  0.00  0.00    -0.253 N 
ATOM      7  O   UNL d   1      14.698  14.193  -1.590  0.00  0.00    -0.245 OA
ATOM      8  O   UNL d   1      13.635  14.994  -5.743  0.00  0.00    -0.245 OA
ATOM      9  C   UNL d   1      14.477  15.009  -3.011  0.00  0.00     0.104 A 
ATOM     10  C   UNL d   1      13.976  13.804  -3.613  0.00  0.00     0.104 A 
ATOM     11  C   UNL d   1      13.864  14.205  -4.321  0.00  0.00     0.104 A 
ATOM     12  C   UNL d   1      14.365  15.410  -3.719  0.00  0.00     0.104 A 
ATOM     13  O   UNL d   1      14.513  17.798  -5.282  0.00  0.00    -0.300 OA
ATOM     14  C   UNL d   1      14.015  16.590  -5.871  0.00  0.00     0.111 A 
ATOM     15  C   UNL d   1      14.436  16.595  -4.500  0.00  0.00     0.111 A 
ATOM     16  C   UNL d   1      14.627  17.399  -4.569  0.00  0.00     0.142 A 
ATOM     17  C   UNL d   1      14.204  17.389  -5.937  0.00  0.00     0.142 A 
ENDROOT
BRANCH   4  18
ATOM     18  C   UNL d   1      14.312  12.585  -1.472  0.00  0.00     0.068 A 
ATOM     19  C   UNL d   1      13.659  12.242  -1.084  0.00  0.00     0.018 A 
ATOM     20  C   UNL d   1      13.772  11.840  -0.372  0.00  0.00     0.002 A 
ATOM     21  C   UNL d   1      14.529  11.779  -0.048  0.00  0.00     0.000 A 
ATOM     22  C   UNL d   1      15.179  12.122  -0.435  0.00  0.00     0.002 A 
ATOM     23  C   UNL d   1      15.067  12.524  -1.147  0.00  0.00     0.018 A 
ENDBRANCH   4  18
BRANCH   4  24
ATOM     24  C   UNL d   1      13.895  12.591  -2.837  0.00  0.00     0.068 A 
ATOM     25  C   UNL d   1      14.395  12.175  -3.343  0.00  0.00     0.018 A 
ATOM     26  C   UNL d   1      14.082  11.780  -3.984  0.00  0.00     0.002 A 
ATOM     27  C   UNL d   1      13.270  11.790  -4.133  0.00  0.00     0.000 A 
ATOM     28  C   UNL d   1      12.769  12.210  -3.621  0.00  0.00     0.002 A 
ATOM     29  C   UNL d   1      13.081  12.610  -2.973  0.00  0.00     0.018 A 
ENDBRANCH   4  24
TORSDOF 2
ENDMDL
