MODEL 1
REMARK VINA RESULT:      -3.8      0.000      0.000
REMARK  5 active torsions:
REMARK  status: ('A' for Active; 'I' for Inactive)
REMARK    1  A    between atoms: S_3  and  C_10 
REMARK    2  A    between atoms: N_11  and  S_3 
REMARK    3  A    between atoms: C_12  and  C_4 
REMARK    4  A    between atoms: C_22  and  N_11 
REMARK    5  A    between atoms: C_23  and  N_11 
ROOT
ATOM      1  C   UNL d   1      56.824   0.024  31.874  0.00  0.00     0.104 A 
ATOM      2  C   UNL d   1      57.678  -0.122  30.474  0.00  0.00     0.036 A 
ATOM      3  C   UNL d   1      57.135  -0.718  31.654  0.00  0.00     0.013 A 
ATOM      4  C   UNL d   1      56.940   0.682  31.398  0.00  0.00     0.013 A 
ATOM      5  C   UNL d   1      57.561  -0.786  30.954  0.00  0.00     0.004 A 
ATOM      6  C   UNL d   1      57.367   0.609  30.698  0.00  0.00     0.004 A 
ENDROOT
BRANCH   2   7
ATOM      7  C   UNL d   1      58.106  -0.191  29.772  0.00  0.00     0.171 A 
ATOM      8  N   UNL d   1      58.912  -0.029  29.673  0.00  0.00    -0.269 N 
ATOM      9  C   UNL d   1      59.106  -0.172  28.891  0.00  0.00     0.201 A 
ATOM     10  C   UNL d   1      59.587   0.220  30.067  0.00  0.00     0.073 A 
ATOM     11  N   UNL d   1      58.428  -0.423  28.493  0.00  0.00    -0.121 NA
ATOM     12  S   UNL d   1      59.913  -0.011  28.784  0.00  0.00    -0.047 SA
ATOM     13  N   UNL d   1      57.806  -0.435  29.042  0.00  0.00    -0.128 NA
ATOM     14  C   UNL d   1      60.216   0.233  29.515  0.00  0.00     0.049 A 
ATOM     15  C   UNL d   1      60.968   0.462  29.751  0.00  0.00     0.008 A 
ATOM     16  C   UNL d   1      61.104   0.682  30.539  0.00  0.00     0.001 A 
ATOM     17  C   UNL d   1      60.490   0.672  31.087  0.00  0.00     0.002 A 
ATOM     18  C   UNL d   1      59.731   0.439  30.843  0.00  0.00     0.017 A 
ATOM     19  C   UNL d   1      59.112   0.428  31.395  0.00  0.00     0.002 C 
ENDBRANCH   2   7
BRANCH   1  20
ATOM     20  S   UNL d   1      56.392   0.099  32.581  0.00  0.00     0.271 S 
ATOM     21  O   UNL d   1      55.695   0.218  32.143  0.00  0.00    -0.200 OA
ATOM     22  O   UNL d   1      57.082  -0.019  33.011  0.00  0.00    -0.200 OA
BRANCH  20  23
ATOM     23  N   UNL d   1      55.961   0.173  33.280  0.00  0.00    -0.229 N 
BRANCH  23  24
ATOM     24  C   UNL d   1      56.255   0.645  33.905  0.00  0.00     0.092 C 
ATOM     25  C   UNL d   1      55.979   0.534  34.671  0.00  0.00     0.021 C 
ENDBRANCH  23  24
BRANCH  23  26
ATOM     26  C   UNL d   1      55.239  -0.218  33.365  0.00  0.00     0.092 C 
ATOM     27  C   UNL d   1      54.714   0.017  33.962  0.00  0.00     0.021 C 
ENDBRANCH  23  26
ENDBRANCH  20  23
ENDBRANCH   1  20
TORSDOF 5
ENDMDL
MODEL 2
REMARK VINA RESULT:      -2.4      1.302      1.962
REMARK  5 active torsions:
REMARK  status: ('A' for Active; 'I' for Inactive)
REMARK    1  A    between atoms: S_3  and  C_10 
REMARK    2  A    between atoms: N_11  and  S_3 
REMARK    3  A    between atoms: C_12  and  C_4 
REMARK    4  A    between atoms: C_22  and  N_11 
REMARK    5  A    between atoms: C_23  and  N_11 
ROOT
ATOM      1  C   UNL d   1      57.400  -0.089  31.614  0.00  0.00     0.104 A 
ATOM      2  C   UNL d   1      58.558  -0.028  30.445  0.00  0.00     0.036 A 
ATOM      3  C   UNL d   1      57.177  -0.069  30.809  0.00  0.00     0.013 A 
ATOM      4  C   UNL d   1      58.192  -0.079  31.826  0.00  0.00     0.013 A 
ATOM      5  C   UNL d   1      57.759  -0.038  30.230  0.00  0.00     0.004 A 
ATOM      6  C   UNL d   1      58.771  -0.049  31.242  0.00  0.00     0.004 A 
ENDROOT
BRANCH   2   7
ATOM      7  C   UNL d   1      59.141   0.002  29.863  0.00  0.00     0.171 A 
ATOM      8  N   UNL d   1      59.420  -0.638  29.417  0.00  0.00    -0.269 N 
ATOM      9  C   UNL d   1      59.995  -0.360  28.906  0.00  0.00     0.201 A 
ATOM     10  C   UNL d   1      59.333  -1.445  29.297  0.00  0.00     0.073 A 
ATOM     11  N   UNL d   1      60.084   0.452  29.024  0.00  0.00    -0.121 NA
ATOM     12  S   UNL d   1      60.279  -0.996  28.455  0.00  0.00    -0.047 SA
ATOM     13  N   UNL d   1      59.552   0.677  29.620  0.00  0.00    -0.128 NA
ATOM     14  C   UNL d   1      59.869  -1.674  28.696  0.00  0.00     0.049 A 
ATOM     15  C   UNL d   1      59.909  -2.457  28.455  0.00  0.00     0.008 A 
ATOM     16  C   UNL d   1      59.417  -3.023  28.809  0.00  0.00     0.001 A 
ATOM     17  C   UNL d   1      58.888  -2.805  29.400  0.00  0.00     0.002 A 
ATOM     18  C   UNL d   1      58.852  -2.011  29.640  0.00  0.00     0.017 A 
ATOM     19  C   UNL d   1      58.318  -1.791  30.236  0.00  0.00     0.002 C 
ENDBRANCH   2   7
BRANCH   1  20
ATOM     20  S   UNL d   1      56.815  -0.120  32.204  0.00  0.00     0.271 S 
ATOM     21  O   UNL d   1      56.278  -0.441  31.656  0.00  0.00    -0.200 OA
ATOM     22  O   UNL d   1      57.347   0.198  32.743  0.00  0.00    -0.200 OA
BRANCH  20  23
ATOM     23  N   UNL d   1      56.232  -0.152  32.788  0.00  0.00    -0.229 N 
BRANCH  23  24
ATOM     24  C   UNL d   1      55.719  -0.811  32.830  0.00  0.00     0.092 C 
ATOM     25  C   UNL d   1      55.358  -1.007  33.541  0.00  0.00     0.021 C 
ENDBRANCH  23  24
BRANCH  23  26
ATOM     26  C   UNL d   1      56.154   0.466  33.330  0.00  0.00     0.092 C 
ATOM     27  C   UNL d   1      55.568   0.426  33.914  0.00  0.00     0.021 C 
ENDBRANCH  23  26
ENDBRANCH  20  23
ENDBRANCH   1  20
TORSDOF 5
ENDMDL
MODEL 3
REMARK VINA RESULT:      -2.0      1.356      4.698
REMARK  5 active torsions:
REMARK  status: ('A' for Active; 'I' for Inactive)
REMARK    1  A    between atoms: S_3  and  C_10 
REMARK    2  A    between atoms: N_11  and  S_3 
REMARK    3  A    between atoms: C_12  and  C_4 
REMARK    4  A    between atoms: C_22  and  N_11 
REMARK    5  A    between atoms: C_23  and  N_11 
ROOT
ATOM      1  C   UNL d   1      57.447  -0.115  30.899  0.00  0.00     0.104 A 
ATOM      2  C   UNL d   1      56.362   0.048  32.127  0.00  0.00     0.036 A 
ATOM      3  C   UNL d   1      57.306  -0.755  31.416  0.00  0.00     0.013 A 
ATOM      4  C   UNL d   1      57.048   0.595  30.998  0.00  0.00     0.013 A 
ATOM      5  C   UNL d   1      56.764  -0.669  32.028  0.00  0.00     0.004 A 
ATOM      6  C   UNL d   1      56.506   0.677  31.612  0.00  0.00     0.004 A 
ENDROOT
BRANCH   2   7
ATOM      7  C   UNL d   1      55.818   0.134  32.741  0.00  0.00     0.171 A 
ATOM      8  N   UNL d   1      55.998   0.284  33.536  0.00  0.00    -0.269 N 
ATOM      9  C   UNL d   1      55.295   0.328  33.952  0.00  0.00     0.201 A 
ATOM     10  C   UNL d   1      56.618   0.405  34.059  0.00  0.00     0.073 A 
ATOM     11  N   UNL d   1      54.670   0.206  33.427  0.00  0.00    -0.121 NA
ATOM     12  S   UNL d   1      55.467   0.478  34.749  0.00  0.00    -0.047 SA
ATOM     13  N   UNL d   1      54.997   0.086  32.673  0.00  0.00    -0.128 NA
ATOM     14  C   UNL d   1      56.291   0.527  34.820  0.00  0.00     0.049 A 
ATOM     15  C   UNL d   1      56.782   0.664  35.464  0.00  0.00     0.008 A 
ATOM     16  C   UNL d   1      57.604   0.682  35.359  0.00  0.00     0.001 A 
ATOM     17  C   UNL d   1      57.932   0.563  34.614  0.00  0.00     0.002 A 
ATOM     18  C   UNL d   1      57.431   0.425  33.966  0.00  0.00     0.017 A 
ATOM     19  C   UNL d   1      57.762   0.305  33.215  0.00  0.00     0.002 C 
ENDBRANCH   2   7
BRANCH   1  20
ATOM     20  S   UNL d   1      57.995  -0.198  30.279  0.00  0.00     0.271 S 
ATOM     21  O   UNL d   1      57.717   0.510  29.940  0.00  0.00    -0.200 OA
ATOM     22  O   UNL d   1      58.267  -0.896  30.615  0.00  0.00    -0.200 OA
BRANCH  20  23
ATOM     23  N   UNL d   1      58.537  -0.276  29.661  0.00  0.00    -0.229 N 
BRANCH  23  24
ATOM     24  C   UNL d   1      58.632  -1.014  29.280  0.00  0.00     0.092 C 
ATOM     25  C   UNL d   1      58.766  -1.045  28.470  0.00  0.00     0.021 C 
ENDBRANCH  23  24
BRANCH  23  26
ATOM     26  C   UNL d   1      58.985   0.373  29.420  0.00  0.00     0.092 C 
ATOM     27  C   UNL d   1      59.810   0.349  29.488  0.00  0.00     0.021 C 
ENDBRANCH  23  26
ENDBRANCH  20  23
ENDBRANCH   1  20
TORSDOF 5
ENDMDL
