MODEL 1
REMARK VINA RESULT:      -9.9      0.000      0.000
REMARK  2 active torsions:
REMARK  status: ('A' for Active; 'I' for Inactive)
REMARK    1  A    between atoms: N_2  and  C_1 
REMARK    2  A    between atoms: N_11  and  C_3 
ROOT
ATOM      1  C   UNL d   1     -48.603  13.730  22.500  0.00  0.00     0.142 A 
ATOM      2  C   UNL d   1     -48.558  12.954  22.774  0.00  0.00     0.124 A 
ATOM      3  C   UNL d   1     -47.917  14.178  22.430  0.00  0.00     0.215 A 
ATOM      4  C   UNL d   1     -47.832  12.623  22.979  0.00  0.00     0.213 A 
ATOM      5  C   UNL d   1     -47.184  13.856  22.633  0.00  0.00     0.044 A 
ATOM      6  C   UNL d   1     -47.146  13.074  22.908  0.00  0.00     0.044 A 
ATOM      7  O   UNL d   1     -47.954  14.955  22.157  0.00  0.00    -0.285 OA
ATOM      8  O   UNL d   1     -47.786  11.846  23.253  0.00  0.00    -0.285 OA
ATOM      9  C   UNL d   1     -46.502  14.298  22.565  0.00  0.00     0.003 A 
ATOM     10  C   UNL d   1     -46.412  12.748  23.112  0.00  0.00     0.003 A 
ATOM     11  C   UNL d   1     -45.732  13.203  23.040  0.00  0.00     0.000 A 
ATOM     12  C   UNL d   1     -45.777  13.984  22.764  0.00  0.00     0.000 A 
ENDROOT
BRANCH   1  13
ATOM     13  N   UNL d   1     -49.328  14.053  22.297  0.00  0.00    -0.206 N 
ATOM     14  N   UNL d   1     -49.787  13.842  21.645  0.00  0.00    -0.059 NA
ATOM     15  N   UNL d   1     -50.473  14.307  21.656  0.00  0.00    -0.129 NA
ATOM     16  C   UNL d   1     -50.427  14.802  22.319  0.00  0.00     0.122 A 
ATOM     17  C   UNL d   1     -49.717  14.642  22.714  0.00  0.00     0.104 A 
ATOM     18  C   UNL d   1     -50.947  15.375  22.605  0.00  0.00     0.022 A 
ATOM     19  C   UNL d   1     -49.526  15.052  23.393  0.00  0.00     0.021 A 
ATOM     20  C   UNL d   1     -50.037  15.633  23.697  0.00  0.00     0.002 A 
ATOM     21  C   UNL d   1     -50.746  15.790  23.299  0.00  0.00     0.002 A 
ENDBRANCH   1  13
BRANCH   2  22
ATOM     22  N   UNL d   1     -49.246  12.503  22.844  0.00  0.00    -0.296 N 
ATOM     23  C   UNL d   1     -49.601  12.402  23.581  0.00  0.00     0.107 A 
ATOM     24  C   UNL d   1     -50.281  11.958  23.653  0.00  0.00     0.142 A 
ATOM     25  O   UNL d   1     -50.619  11.604  22.984  0.00  0.00    -0.300 OA
ATOM     26  C   UNL d   1     -50.260  11.708  22.248  0.00  0.00     0.142 A 
ATOM     27  C   UNL d   1     -49.574  12.157  22.180  0.00  0.00     0.107 A 
ENDBRANCH   2  22
TORSDOF 2
ENDMDL
MODEL 2
REMARK VINA RESULT:      -9.5      0.953      2.452
REMARK  2 active torsions:
REMARK  status: ('A' for Active; 'I' for Inactive)
REMARK    1  A    between atoms: N_2  and  C_1 
REMARK    2  A    between atoms: N_11  and  C_3 
ROOT
ATOM      1  C   UNL d   1     -48.472  13.491  22.303  0.00  0.00     0.142 A 
ATOM      2  C   UNL d   1     -48.322  14.258  22.567  0.00  0.00     0.124 A 
ATOM      3  C   UNL d   1     -47.844  12.979  22.166  0.00  0.00     0.215 A 
ATOM      4  C   UNL d   1     -47.550  14.515  22.695  0.00  0.00     0.213 A 
ATOM      5  C   UNL d   1     -47.065  13.226  22.291  0.00  0.00     0.044 A 
ATOM      6  C   UNL d   1     -46.923  13.999  22.557  0.00  0.00     0.044 A 
ATOM      7  O   UNL d   1     -47.985  12.210  21.901  0.00  0.00    -0.285 OA
ATOM      8  O   UNL d   1     -47.401  15.282  22.959  0.00  0.00    -0.285 OA
ATOM      9  C   UNL d   1     -46.442  12.719  22.155  0.00  0.00     0.003 A 
ATOM     10  C   UNL d   1     -46.144  14.250  22.683  0.00  0.00     0.003 A 
ATOM     11  C   UNL d   1     -45.523  13.731  22.543  0.00  0.00     0.000 A 
ATOM     12  C   UNL d   1     -45.673  12.960  22.278  0.00  0.00     0.000 A 
ENDROOT
BRANCH   1  13
ATOM     13  N   UNL d   1     -49.242  13.242  22.178  0.00  0.00    -0.206 N 
ATOM     14  N   UNL d   1     -49.734  13.481  21.559  0.00  0.00    -0.059 NA
ATOM     15  N   UNL d   1     -50.460  13.093  21.649  0.00  0.00    -0.129 NA
ATOM     16  C   UNL d   1     -50.407  12.618  22.326  0.00  0.00     0.122 A 
ATOM     17  C   UNL d   1     -49.651  12.713  22.651  0.00  0.00     0.104 A 
ATOM     18  C   UNL d   1     -50.956  12.114  22.679  0.00  0.00     0.022 A 
ATOM     19  C   UNL d   1     -49.444  12.306  23.327  0.00  0.00     0.021 A 
ATOM     20  C   UNL d   1     -49.984  11.793  23.697  0.00  0.00     0.002 A 
ATOM     21  C   UNL d   1     -50.738  11.702  23.369  0.00  0.00     0.002 A 
ENDBRANCH   1  13
BRANCH   2  22
ATOM     22  N   UNL d   1     -48.952  14.774  22.705  0.00  0.00    -0.296 N 
ATOM     23  C   UNL d   1     -49.228  14.895  23.473  0.00  0.00     0.107 A 
ATOM     24  C   UNL d   1     -49.849  15.403  23.612  0.00  0.00     0.142 A 
ATOM     25  O   UNL d   1     -50.209  15.803  22.981  0.00  0.00    -0.300 OA
ATOM     26  C   UNL d   1     -49.929  15.679  22.214  0.00  0.00     0.142 A 
ATOM     27  C   UNL d   1     -49.301  15.165  22.078  0.00  0.00     0.107 A 
ENDBRANCH   2  22
TORSDOF 2
ENDMDL
MODEL 3
REMARK VINA RESULT:      -8.1      1.343      2.751
REMARK  2 active torsions:
REMARK  status: ('A' for Active; 'I' for Inactive)
REMARK    1  A    between atoms: N_2  and  C_1 
REMARK    2  A    between atoms: N_11  and  C_3 
ROOT
ATOM      1  C   UNL d   1     -48.357  12.793  23.166  0.00  0.00     0.142 A 
ATOM      2  C   UNL d   1     -47.771  13.336  22.960  0.00  0.00     0.124 A 
ATOM      3  C   UNL d   1     -48.144  12.035  23.401  0.00  0.00     0.215 A 
ATOM      4  C   UNL d   1     -46.975  13.125  22.988  0.00  0.00     0.213 A 
ATOM      5  C   UNL d   1     -47.349  11.813  23.432  0.00  0.00     0.044 A 
ATOM      6  C   UNL d   1     -46.766  12.364  23.224  0.00  0.00     0.044 A 
ATOM      7  O   UNL d   1     -48.725  11.486  23.608  0.00  0.00    -0.285 OA
ATOM      8  O   UNL d   1     -46.389  13.668  22.782  0.00  0.00    -0.285 OA
ATOM      9  C   UNL d   1     -47.137  11.061  23.665  0.00  0.00     0.003 A 
ATOM     10  C   UNL d   1     -45.967  12.144  23.255  0.00  0.00     0.003 A 
ATOM     11  C   UNL d   1     -45.764  11.384  23.491  0.00  0.00     0.000 A 
ATOM     12  C   UNL d   1     -46.353  10.839  23.698  0.00  0.00     0.000 A 
ENDROOT
BRANCH   1  13
ATOM     13  N   UNL d   1     -49.146  13.010  23.135  0.00  0.00    -0.206 N 
ATOM     14  N   UNL d   1     -49.538  13.487  23.683  0.00  0.00    -0.059 NA
ATOM     15  N   UNL d   1     -50.326  13.560  23.436  0.00  0.00    -0.129 NA
ATOM     16  C   UNL d   1     -50.410  13.125  22.736  0.00  0.00     0.122 A 
ATOM     17  C   UNL d   1     -49.677  12.786  22.552  0.00  0.00     0.104 A 
ATOM     18  C   UNL d   1     -51.063  13.001  22.249  0.00  0.00     0.022 A 
ATOM     19  C   UNL d   1     -49.597  12.323  21.885  0.00  0.00     0.021 A 
ATOM     20  C   UNL d   1     -50.244  12.187  21.382  0.00  0.00     0.002 A 
ATOM     21  C   UNL d   1     -50.975  12.528  21.569  0.00  0.00     0.002 A 
ENDBRANCH   1  13
BRANCH   2  22
ATOM     22  N   UNL d   1     -47.983  14.098  22.723  0.00  0.00    -0.296 N 
ATOM     23  C   UNL d   1     -47.975  14.300  21.924  0.00  0.00     0.107 A 
ATOM     24  C   UNL d   1     -48.184  15.052  21.688  0.00  0.00     0.142 A 
ATOM     25  O   UNL d   1     -48.406  15.619  22.251  0.00  0.00    -0.300 OA
ATOM     26  C   UNL d   1     -48.411  15.411  23.051  0.00  0.00     0.142 A 
ATOM     27  C   UNL d   1     -48.200  14.651  23.284  0.00  0.00     0.107 A 
ENDBRANCH   2  22
TORSDOF 2
ENDMDL
MODEL 4
REMARK VINA RESULT:      -7.1      9.338     10.846
REMARK  2 active torsions:
REMARK  status: ('A' for Active; 'I' for Inactive)
REMARK    1  A    between atoms: N_2  and  C_1 
REMARK    2  A    between atoms: N_11  and  C_3 
ROOT
ATOM      1  C   UNL d   1     -39.100  15.031  18.892  0.00  0.00     0.142 A 
ATOM      2  C   UNL d   1     -39.872  15.316  18.841  0.00  0.00     0.124 A 
ATOM      3  C   UNL d   1     -38.713  15.029  19.617  0.00  0.00     0.215 A 
ATOM      4  C   UNL d   1     -40.259  15.598  19.511  0.00  0.00     0.213 A 
ATOM      5  C   UNL d   1     -39.093  15.310  20.295  0.00  0.00     0.044 A 
ATOM      6  C   UNL d   1     -39.869  15.595  20.237  0.00  0.00     0.044 A 
ATOM      7  O   UNL d   1     -37.941  14.745  19.675  0.00  0.00    -0.285 OA
ATOM      8  O   UNL d   1     -41.032  15.883  19.460  0.00  0.00    -0.285 OA
ATOM      9  C   UNL d   1     -38.711  15.309  21.015  0.00  0.00     0.003 A 
ATOM     10  C   UNL d   1     -40.252  15.878  20.914  0.00  0.00     0.003 A 
ATOM     11  C   UNL d   1     -39.858  15.872  21.635  0.00  0.00     0.000 A 
ATOM     12  C   UNL d   1     -39.082  15.585  21.686  0.00  0.00     0.000 A 
ENDROOT
BRANCH   1  13
ATOM     13  N   UNL d   1     -38.720  14.751  18.221  0.00  0.00    -0.206 N 
ATOM     14  N   UNL d   1     -38.435  15.212  17.599  0.00  0.00    -0.059 NA
ATOM     15  N   UNL d   1     -38.094  14.702  17.042  0.00  0.00    -0.129 NA
ATOM     16  C   UNL d   1     -38.174  13.929  17.330  0.00  0.00     0.122 A 
ATOM     17  C   UNL d   1     -38.563  13.963  18.061  0.00  0.00     0.104 A 
ATOM     18  C   UNL d   1     -37.940  13.205  17.013  0.00  0.00     0.022 A 
ATOM     19  C   UNL d   1     -38.717  13.276  18.474  0.00  0.00     0.021 A 
ATOM     20  C   UNL d   1     -38.488  12.537  18.170  0.00  0.00     0.002 A 
ATOM     21  C   UNL d   1     -38.100  12.507  17.440  0.00  0.00     0.002 A 
ENDBRANCH   1  13
BRANCH   2  22
ATOM     22  N   UNL d   1     -40.262  15.318  18.113  0.00  0.00    -0.296 N 
ATOM     23  C   UNL d   1     -40.795  14.718  17.927  0.00  0.00     0.107 A 
ATOM     24  C   UNL d   1     -41.181  14.717  17.209  0.00  0.00     0.142 A 
ATOM     25  O   UNL d   1     -41.038  15.323  16.660  0.00  0.00    -0.300 OA
ATOM     26  C   UNL d   1     -40.503  15.922  16.851  0.00  0.00     0.142 A 
ATOM     27  C   UNL d   1     -40.116  15.918  17.577  0.00  0.00     0.107 A 
ENDBRANCH   2  22
TORSDOF 2
ENDMDL
