MODEL 1
REMARK VINA RESULT:      -6.7      0.000      0.000
REMARK  7 active torsions:
REMARK  status: ('A' for Active; 'I' for Inactive)
REMARK    1  A    between atoms: N_2  and  C_1 
REMARK    2  A    between atoms: C_5  and  C_1 
REMARK    3  A    between atoms: O_4  and  N_2 
REMARK    4  A    between atoms: C_3  and  O_4 
REMARK    5  A    between atoms: C_6  and  C_3 
REMARK    6  A    between atoms: C_17  and  C_14 
REMARK    7  A    between atoms: C_18  and  C_17 
ROOT
ATOM      1  C   UNL d   1     -46.998  13.585  22.886  0.00  0.00     0.319 C 
ATOM      2  O   UNL d   1     -46.640  14.305  23.088  0.00  0.00    -0.257 OA
ENDROOT
BRANCH   1   3
ATOM      3  O   UNL d   1     -47.722  13.579  22.496  0.00  0.00    -0.168 OA
BRANCH   3   4
ATOM      4  N   UNL d   1     -48.221  14.234  22.539  0.00  0.00    -0.100 NA
BRANCH   4   5
ATOM      5  C   UNL d   1     -48.987  14.189  22.240  0.00  0.00     0.228 C 
ATOM      6  N   UNL d   1     -49.119  13.866  21.495  0.00  0.00    -0.123 N 
BRANCH   5   7
ATOM      7  C   UNL d   1     -49.622  14.467  22.688  0.00  0.00     0.121 A 
ATOM      8  N   UNL d   1     -50.114  13.929  23.086  0.00  0.00    -0.241 NA
ATOM      9  C   UNL d   1     -50.755  14.210  23.538  0.00  0.00     0.099 A 
ATOM     10  C   UNL d   1     -50.898  15.027  23.587  0.00  0.00     0.021 A 
ATOM     11  C   UNL d   1     -50.408  15.557  23.192  0.00  0.00     0.003 A 
ATOM     12  C   UNL d   1     -49.774  15.279  22.745  0.00  0.00     0.022 A 
ENDBRANCH   5   7
ENDBRANCH   4   5
ENDBRANCH   3   4
ENDBRANCH   1   3
BRANCH   1  13
ATOM     13  C   UNL d   1     -46.623  12.869  23.080  0.00  0.00     0.065 A 
ATOM     14  C   UNL d   1     -47.040  12.297  23.503  0.00  0.00     0.005 A 
ATOM     15  C   UNL d   1     -46.672  11.587  23.696  0.00  0.00     0.000 A 
ATOM     16  C   UNL d   1     -45.886  11.448  23.466  0.00  0.00     0.000 A 
ATOM     17  C   UNL d   1     -45.475  12.025  23.043  0.00  0.00     0.000 A 
ATOM     18  C   UNL d   1     -45.850  12.741  22.850  0.00  0.00     0.005 A 
BRANCH  16  19
ATOM     19  C   UNL d   1     -45.522  10.733  23.663  0.00  0.00     0.000 C 
BRANCH  19  20
ATOM     20  C   UNL d   1     -44.740  10.593  23.440  0.00  0.00     0.000 C 
ATOM     21  C   UNL d   1     -44.346   9.917  23.694  0.00  0.00     0.000 C 
ENDBRANCH  19  20
ENDBRANCH  16  19
ENDBRANCH   1  13
TORSDOF 7
ENDMDL
MODEL 2
REMARK VINA RESULT:      -6.7      1.792      5.326
REMARK  7 active torsions:
REMARK  status: ('A' for Active; 'I' for Inactive)
REMARK    1  A    between atoms: N_2  and  C_1 
REMARK    2  A    between atoms: C_5  and  C_1 
REMARK    3  A    between atoms: O_4  and  N_2 
REMARK    4  A    between atoms: C_3  and  O_4 
REMARK    5  A    between atoms: C_6  and  C_3 
REMARK    6  A    between atoms: C_17  and  C_14 
REMARK    7  A    between atoms: C_18  and  C_17 
ROOT
ATOM      1  C   UNL d   1     -46.424  13.251  22.694  0.00  0.00     0.319 C 
ATOM      2  O   UNL d   1     -45.771  13.511  22.254  0.00  0.00    -0.257 OA
ENDROOT
BRANCH   1   3
ATOM      3  O   UNL d   1     -46.369  12.568  23.150  0.00  0.00    -0.168 OA
BRANCH   3   4
ATOM      4  N   UNL d   1     -45.680  12.114  23.134  0.00  0.00    -0.100 NA
BRANCH   4   5
ATOM      5  C   UNL d   1     -45.687  11.344  23.427  0.00  0.00     0.228 C 
ATOM      6  N   UNL d   1     -46.390  11.015  23.698  0.00  0.00    -0.123 N 
BRANCH   5   7
ATOM      7  C   UNL d   1     -44.989  10.905  23.449  0.00  0.00     0.121 A 
ATOM      8  N   UNL d   1     -44.269  11.263  23.242  0.00  0.00    -0.241 NA
ATOM      9  C   UNL d   1     -43.564  10.820  23.264  0.00  0.00     0.099 A 
ATOM     10  C   UNL d   1     -43.587  10.022  23.493  0.00  0.00     0.021 A 
ATOM     11  C   UNL d   1     -44.302   9.670  23.698  0.00  0.00     0.003 A 
ATOM     12  C   UNL d   1     -45.000  10.110  23.676  0.00  0.00     0.022 A 
ENDBRANCH   5   7
ENDBRANCH   4   5
ENDBRANCH   3   4
ENDBRANCH   1   3
BRANCH   1  13
ATOM     13  C   UNL d   1     -47.134  13.683  22.675  0.00  0.00     0.065 A 
ATOM     14  C   UNL d   1     -47.813  13.329  22.368  0.00  0.00     0.005 A 
ATOM     15  C   UNL d   1     -48.517  13.753  22.347  0.00  0.00     0.000 A 
ATOM     16  C   UNL d   1     -48.544  14.532  22.633  0.00  0.00     0.000 A 
ATOM     17  C   UNL d   1     -47.861  14.880  22.939  0.00  0.00     0.000 A 
ATOM     18  C   UNL d   1     -47.151  14.448  22.958  0.00  0.00     0.005 A 
BRANCH  16  19
ATOM     19  C   UNL d   1     -49.255  14.953  22.609  0.00  0.00     0.000 C 
BRANCH  19  20
ATOM     20  C   UNL d   1     -49.451  15.466  23.225  0.00  0.00     0.000 C 
ATOM     21  C   UNL d   1     -50.215  15.763  23.297  0.00  0.00     0.000 C 
ENDBRANCH  19  20
ENDBRANCH  16  19
ENDBRANCH   1  13
TORSDOF 7
ENDMDL
MODEL 3
REMARK VINA RESULT:      -5.9      1.656      2.186
REMARK  7 active torsions:
REMARK  status: ('A' for Active; 'I' for Inactive)
REMARK    1  A    between atoms: N_2  and  C_1 
REMARK    2  A    between atoms: C_5  and  C_1 
REMARK    3  A    between atoms: O_4  and  N_2 
REMARK    4  A    between atoms: C_3  and  O_4 
REMARK    5  A    between atoms: C_6  and  C_3 
REMARK    6  A    between atoms: C_17  and  C_14 
REMARK    7  A    between atoms: C_18  and  C_17 
ROOT
ATOM      1  C   UNL d   1     -46.865  13.226  22.925  0.00  0.00     0.319 C 
ATOM      2  O   UNL d   1     -46.936  13.646  23.636  0.00  0.00    -0.257 OA
ENDROOT
BRANCH   1   3
ATOM      3  O   UNL d   1     -47.539  12.986  22.517  0.00  0.00    -0.168 OA
BRANCH   3   4
ATOM      4  N   UNL d   1     -48.285  13.086  22.856  0.00  0.00    -0.100 NA
BRANCH   4   5
ATOM      5  C   UNL d   1     -48.957  12.834  22.454  0.00  0.00     0.228 C 
ATOM      6  N   UNL d   1     -48.930  12.721  21.639  0.00  0.00    -0.123 N 
BRANCH   5   7
ATOM      7  C   UNL d   1     -49.657  12.694  22.867  0.00  0.00     0.121 A 
ATOM      8  N   UNL d   1     -50.135  13.333  23.100  0.00  0.00    -0.241 NA
ATOM      9  C   UNL d   1     -50.841  13.191  23.517  0.00  0.00     0.099 A 
ATOM     10  C   UNL d   1     -51.064  12.412  23.698  0.00  0.00     0.021 A 
ATOM     11  C   UNL d   1     -50.590  11.782  23.465  0.00  0.00     0.003 A 
ATOM     12  C   UNL d   1     -49.890  11.922  23.052  0.00  0.00     0.022 A 
ENDBRANCH   5   7
ENDBRANCH   4   5
ENDBRANCH   3   4
ENDBRANCH   1   3
BRANCH   1  13
ATOM     13  C   UNL d   1     -46.111  13.047  22.624  0.00  0.00     0.065 A 
ATOM     14  C   UNL d   1     -45.733  12.356  22.871  0.00  0.00     0.005 A 
ATOM     15  C   UNL d   1     -44.986  12.176  22.575  0.00  0.00     0.000 A 
ATOM     16  C   UNL d   1     -44.618  12.686  22.033  0.00  0.00     0.000 A 
ATOM     17  C   UNL d   1     -45.003  13.374  21.791  0.00  0.00     0.000 A 
ATOM     18  C   UNL d   1     -45.757  13.553  22.091  0.00  0.00     0.005 A 
BRANCH  16  19
ATOM     19  C   UNL d   1     -43.868  12.499  21.739  0.00  0.00     0.000 C 
BRANCH  19  20
ATOM     20  C   UNL d   1     -43.361  13.100  21.491  0.00  0.00     0.000 C 
ATOM     21  C   UNL d   1     -42.639  12.922  21.137  0.00  0.00     0.000 C 
ENDBRANCH  19  20
ENDBRANCH  16  19
ENDBRANCH   1  13
TORSDOF 7
ENDMDL
MODEL 4
REMARK VINA RESULT:      -5.7      8.378      9.876
REMARK  7 active torsions:
REMARK  status: ('A' for Active; 'I' for Inactive)
REMARK    1  A    between atoms: N_2  and  C_1 
REMARK    2  A    between atoms: C_5  and  C_1 
REMARK    3  A    between atoms: O_4  and  N_2 
REMARK    4  A    between atoms: C_3  and  O_4 
REMARK    5  A    between atoms: C_6  and  C_3 
REMARK    6  A    between atoms: C_17  and  C_14 
REMARK    7  A    between atoms: C_18  and  C_17 
ROOT
ATOM      1  C   UNL d   1     -40.348  14.282  18.387  0.00  0.00     0.319 C 
ATOM      2  O   UNL d   1     -40.948  13.711  18.430  0.00  0.00    -0.257 OA
ENDROOT
BRANCH   1   3
ATOM      3  O   UNL d   1     -40.281  14.855  18.973  0.00  0.00    -0.168 OA
BRANCH   3   4
ATOM      4  N   UNL d   1     -40.447  14.666  19.759  0.00  0.00    -0.100 NA
BRANCH   4   5
ATOM      5  C   UNL d   1     -40.471  15.259  20.330  0.00  0.00     0.228 C 
ATOM      6  N   UNL d   1     -40.945  15.921  20.214  0.00  0.00    -0.123 N 
BRANCH   5   7
ATOM      7  C   UNL d   1     -40.019  15.189  21.017  0.00  0.00     0.121 A 
ATOM      8  N   UNL d   1     -39.891  14.439  21.353  0.00  0.00    -0.241 NA
ATOM      9  C   UNL d   1     -39.436  14.369  22.046  0.00  0.00     0.099 A 
ATOM     10  C   UNL d   1     -39.112  15.048  22.398  0.00  0.00     0.021 A 
ATOM     11  C   UNL d   1     -39.240  15.788  22.063  0.00  0.00     0.003 A 
ATOM     12  C   UNL d   1     -39.692  15.858  21.376  0.00  0.00     0.022 A 
ENDBRANCH   5   7
ENDBRANCH   4   5
ENDBRANCH   3   4
ENDBRANCH   1   3
BRANCH   1  13
ATOM     13  C   UNL d   1     -39.814  14.273  17.751  0.00  0.00     0.065 A 
ATOM     14  C   UNL d   1     -39.907  14.818  17.138  0.00  0.00     0.005 A 
ATOM     15  C   UNL d   1     -39.380  14.811  16.507  0.00  0.00     0.000 A 
ATOM     16  C   UNL d   1     -38.759  14.260  16.486  0.00  0.00     0.000 A 
ATOM     17  C   UNL d   1     -38.672  13.718  17.102  0.00  0.00     0.000 A 
ATOM     18  C   UNL d   1     -39.207  13.727  17.739  0.00  0.00     0.005 A 
BRANCH  16  19
ATOM     19  C   UNL d   1     -38.233  14.259  15.849  0.00  0.00     0.000 C 
BRANCH  19  20
ATOM     20  C   UNL d   1     -38.285  13.671  15.272  0.00  0.00     0.000 C 
ATOM     21  C   UNL d   1     -37.940  13.776  14.533  0.00  0.00     0.000 C 
ENDBRANCH  19  20
ENDBRANCH  16  19
ENDBRANCH   1  13
TORSDOF 7
ENDMDL
MODEL 5
REMARK VINA RESULT:      -5.5      8.346      9.800
REMARK  7 active torsions:
REMARK  status: ('A' for Active; 'I' for Inactive)
REMARK    1  A    between atoms: N_2  and  C_1 
REMARK    2  A    between atoms: C_5  and  C_1 
REMARK    3  A    between atoms: O_4  and  N_2 
REMARK    4  A    between atoms: C_3  and  O_4 
REMARK    5  A    between atoms: C_6  and  C_3 
REMARK    6  A    between atoms: C_17  and  C_14 
REMARK    7  A    between atoms: C_18  and  C_17 
ROOT
ATOM      1  C   UNL d   1     -40.683  14.422  19.356  0.00  0.00     0.319 C 
ATOM      2  O   UNL d   1     -41.055  13.681  19.343  0.00  0.00    -0.257 OA
ENDROOT
BRANCH   1   3
ATOM      3  O   UNL d   1     -40.569  14.839  18.656  0.00  0.00    -0.168 OA
BRANCH   3   4
ATOM      4  N   UNL d   1     -40.331  14.443  17.972  0.00  0.00    -0.100 NA
BRANCH   4   5
ATOM      5  C   UNL d   1     -40.262  14.853  17.261  0.00  0.00     0.228 C 
ATOM      6  N   UNL d   1     -40.897  15.292  16.978  0.00  0.00    -0.123 N 
BRANCH   5   7
ATOM      7  C   UNL d   1     -39.556  14.824  16.834  0.00  0.00     0.121 A 
ATOM      8  N   UNL d   1     -39.159  15.528  16.644  0.00  0.00    -0.241 NA
ATOM      9  C   UNL d   1     -38.447  15.498  16.213  0.00  0.00     0.099 A 
ATOM     10  C   UNL d   1     -38.139  14.764  15.976  0.00  0.00     0.021 A 
ATOM     11  C   UNL d   1     -38.535  14.069  16.166  0.00  0.00     0.003 A 
ATOM     12  C   UNL d   1     -39.241  14.098  16.593  0.00  0.00     0.022 A 
ENDBRANCH   5   7
ENDBRANCH   4   5
ENDBRANCH   3   4
ENDBRANCH   1   3
BRANCH   1  13
ATOM     13  C   UNL d   1     -40.426  14.743  20.078  0.00  0.00     0.065 A 
ATOM     14  C   UNL d   1     -40.783  15.429  20.365  0.00  0.00     0.005 A 
ATOM     15  C   UNL d   1     -40.531  15.749  21.079  0.00  0.00     0.000 A 
ATOM     16  C   UNL d   1     -39.921  15.384  21.508  0.00  0.00     0.000 A 
ATOM     17  C   UNL d   1     -39.568  14.698  21.215  0.00  0.00     0.000 A 
ATOM     18  C   UNL d   1     -39.826  14.378  20.493  0.00  0.00     0.005 A 
BRANCH  16  19
ATOM     19  C   UNL d   1     -39.672  15.711  22.225  0.00  0.00     0.000 C 
BRANCH  19  20
ATOM     20  C   UNL d   1     -38.903  15.580  22.494  0.00  0.00     0.000 C 
ATOM     21  C   UNL d   1     -38.638  15.922  23.194  0.00  0.00     0.000 C 
ENDBRANCH  19  20
ENDBRANCH  16  19
ENDBRANCH   1  13
TORSDOF 7
ENDMDL
MODEL 6
REMARK VINA RESULT:      -5.2      1.322      1.597
REMARK  7 active torsions:
REMARK  status: ('A' for Active; 'I' for Inactive)
REMARK    1  A    between atoms: N_2  and  C_1 
REMARK    2  A    between atoms: C_5  and  C_1 
REMARK    3  A    between atoms: O_4  and  N_2 
REMARK    4  A    between atoms: C_3  and  O_4 
REMARK    5  A    between atoms: C_6  and  C_3 
REMARK    6  A    between atoms: C_17  and  C_14 
REMARK    7  A    between atoms: C_18  and  C_17 
ROOT
ATOM      1  C   UNL d   1     -47.279  12.218  23.269  0.00  0.00     0.319 C 
ATOM      2  O   UNL d   1     -47.235  12.969  23.617  0.00  0.00    -0.257 OA
ENDROOT
BRANCH   1   3
ATOM      3  O   UNL d   1     -47.959  11.990  22.864  0.00  0.00    -0.168 OA
BRANCH   3   4
ATOM      4  N   UNL d   1     -48.640  12.453  22.905  0.00  0.00    -0.100 NA
BRANCH   4   5
ATOM      5  C   UNL d   1     -49.308  12.243  22.472  0.00  0.00     0.228 C 
ATOM      6  N   UNL d   1     -49.439  11.454  22.278  0.00  0.00    -0.123 N 
BRANCH   5   7
ATOM      7  C   UNL d   1     -49.845  12.822  22.233  0.00  0.00     0.121 A 
ATOM      8  N   UNL d   1     -50.504  12.996  22.709  0.00  0.00    -0.241 NA
ATOM      9  C   UNL d   1     -51.046  13.580  22.467  0.00  0.00     0.099 A 
ATOM     10  C   UNL d   1     -50.924  13.986  21.753  0.00  0.00     0.021 A 
ATOM     11  C   UNL d   1     -50.271  13.811  21.285  0.00  0.00     0.003 A 
ATOM     12  C   UNL d   1     -49.734  13.232  21.523  0.00  0.00     0.022 A 
ENDBRANCH   5   7
ENDBRANCH   4   5
ENDBRANCH   3   4
ENDBRANCH   1   3
BRANCH   1  13
ATOM     13  C   UNL d   1     -46.636  11.696  23.331  0.00  0.00     0.065 A 
ATOM     14  C   UNL d   1     -46.759  10.939  23.636  0.00  0.00     0.005 A 
ATOM     15  C   UNL d   1     -46.125  10.419  23.698  0.00  0.00     0.000 A 
ATOM     16  C   UNL d   1     -45.366  10.655  23.456  0.00  0.00     0.000 A 
ATOM     17  C   UNL d   1     -45.251  11.413  23.152  0.00  0.00     0.000 A 
ATOM     18  C   UNL d   1     -45.894  11.936  23.091  0.00  0.00     0.005 A 
BRANCH  16  19
ATOM     19  C   UNL d   1     -44.733  10.128  23.521  0.00  0.00     0.000 C 
BRANCH  19  20
ATOM     20  C   UNL d   1     -43.961  10.415  23.574  0.00  0.00     0.000 C 
ATOM     21  C   UNL d   1     -43.329   9.902  23.696  0.00  0.00     0.000 C 
ENDBRANCH  19  20
ENDBRANCH  16  19
ENDBRANCH   1  13
TORSDOF 7
ENDMDL
MODEL 7
REMARK VINA RESULT:      -4.9      8.746      9.870
REMARK  7 active torsions:
REMARK  status: ('A' for Active; 'I' for Inactive)
REMARK    1  A    between atoms: N_2  and  C_1 
REMARK    2  A    between atoms: C_5  and  C_1 
REMARK    3  A    between atoms: O_4  and  N_2 
REMARK    4  A    between atoms: C_3  and  O_4 
REMARK    5  A    between atoms: C_6  and  C_3 
REMARK    6  A    between atoms: C_17  and  C_14 
REMARK    7  A    between atoms: C_18  and  C_17 
ROOT
ATOM      1  C   UNL d   1     -39.314  14.482  19.334  0.00  0.00     0.319 C 
ATOM      2  O   UNL d   1     -38.858  13.802  19.200  0.00  0.00    -0.257 OA
ENDROOT
BRANCH   1   3
ATOM      3  O   UNL d   1     -39.373  14.796  20.093  0.00  0.00    -0.168 OA
BRANCH   3   4
ATOM      4  N   UNL d   1     -39.200  14.328  20.750  0.00  0.00    -0.100 NA
BRANCH   4   5
ATOM      5  C   UNL d   1     -39.400  14.587  21.505  0.00  0.00     0.228 C 
ATOM      6  N   UNL d   1     -40.019  15.120  21.605  0.00  0.00    -0.123 N 
BRANCH   5   7
ATOM      7  C   UNL d   1     -38.980  14.314  22.160  0.00  0.00     0.121 A 
ATOM      8  N   UNL d   1     -39.064  13.523  22.404  0.00  0.00    -0.241 NA
ATOM      9  C   UNL d   1     -38.640  13.247  23.065  0.00  0.00     0.099 A 
ATOM     10  C   UNL d   1     -38.136  13.763  23.477  0.00  0.00     0.021 A 
ATOM     11  C   UNL d   1     -38.056  14.545  23.234  0.00  0.00     0.003 A 
ATOM     12  C   UNL d   1     -38.476  14.819  22.578  0.00  0.00     0.022 A 
ENDBRANCH   5   7
ENDBRANCH   4   5
ENDBRANCH   3   4
ENDBRANCH   1   3
BRANCH   1  13
ATOM     13  C   UNL d   1     -39.711  14.845  18.701  0.00  0.00     0.065 A 
ATOM     14  C   UNL d   1     -40.426  14.528  18.439  0.00  0.00     0.005 A 
ATOM     15  C   UNL d   1     -40.822  14.885  17.812  0.00  0.00     0.000 A 
ATOM     16  C   UNL d   1     -40.502  15.559  17.446  0.00  0.00     0.000 A 
ATOM     17  C   UNL d   1     -39.786  15.869  17.713  0.00  0.00     0.000 A 
ATOM     18  C   UNL d   1     -39.390  15.506  18.347  0.00  0.00     0.005 A 
BRANCH  16  19
ATOM     19  C   UNL d   1     -40.905  15.913  16.817  0.00  0.00     0.000 C 
BRANCH  19  20
ATOM     20  C   UNL d   1     -41.723  15.828  16.751  0.00  0.00     0.000 C 
ATOM     21  C   UNL d   1     -42.097  15.922  16.024  0.00  0.00     0.000 C 
ENDBRANCH  19  20
ENDBRANCH  16  19
ENDBRANCH   1  13
TORSDOF 7
ENDMDL
MODEL 8
REMARK VINA RESULT:      -4.6      9.188     10.471
REMARK  7 active torsions:
REMARK  status: ('A' for Active; 'I' for Inactive)
REMARK    1  A    between atoms: N_2  and  C_1 
REMARK    2  A    between atoms: C_5  and  C_1 
REMARK    3  A    between atoms: O_4  and  N_2 
REMARK    4  A    between atoms: C_3  and  O_4 
REMARK    5  A    between atoms: C_6  and  C_3 
REMARK    6  A    between atoms: C_17  and  C_14 
REMARK    7  A    between atoms: C_18  and  C_17 
ROOT
ATOM      1  C   UNL d   1     -38.849  15.246  17.595  0.00  0.00     0.319 C 
ATOM      2  O   UNL d   1     -38.461  15.882  17.957  0.00  0.00    -0.257 OA
ENDROOT
BRANCH   1   3
ATOM      3  O   UNL d   1     -39.458  14.855  17.988  0.00  0.00    -0.168 OA
BRANCH   3   4
ATOM      4  N   UNL d   1     -39.581  14.986  18.793  0.00  0.00    -0.100 NA
BRANCH   4   5
ATOM      5  C   UNL d   1     -40.246  14.673  19.164  0.00  0.00     0.228 C 
ATOM      6  N   UNL d   1     -40.707  14.113  18.776  0.00  0.00    -0.123 N 
BRANCH   5   7
ATOM      7  C   UNL d   1     -40.450  14.921  19.924  0.00  0.00     0.121 A 
ATOM      8  N   UNL d   1     -40.018  14.646  20.578  0.00  0.00    -0.241 NA
ATOM      9  C   UNL d   1     -40.223  14.896  21.346  0.00  0.00     0.099 A 
ATOM     10  C   UNL d   1     -40.859  15.419  21.452  0.00  0.00     0.021 A 
ATOM     11  C   UNL d   1     -41.285  15.690  20.802  0.00  0.00     0.003 A 
ATOM     12  C   UNL d   1     -41.082  15.442  20.042  0.00  0.00     0.022 A 
ENDBRANCH   5   7
ENDBRANCH   4   5
ENDBRANCH   3   4
ENDBRANCH   1   3
BRANCH   1  13
ATOM     13  C   UNL d   1     -38.622  15.003  16.833  0.00  0.00     0.065 A 
ATOM     14  C   UNL d   1     -38.209  14.295  16.742  0.00  0.00     0.005 A 
ATOM     15  C   UNL d   1     -37.982  14.052  15.990  0.00  0.00     0.000 A 
ATOM     16  C   UNL d   1     -38.170  14.516  15.327  0.00  0.00     0.000 A 
ATOM     17  C   UNL d   1     -38.584  15.222  15.426  0.00  0.00     0.000 A 
ATOM     18  C   UNL d   1     -38.811  15.465  16.187  0.00  0.00     0.005 A 
BRANCH  16  19
ATOM     19  C   UNL d   1     -37.940  14.266  14.573  0.00  0.00     0.000 C 
BRANCH  19  20
ATOM     20  C   UNL d   1     -37.966  13.464  14.379  0.00  0.00     0.000 C 
ATOM     21  C   UNL d   1     -37.941  13.222  13.593  0.00  0.00     0.000 C 
ENDBRANCH  19  20
ENDBRANCH  16  19
ENDBRANCH   1  13
TORSDOF 7
ENDMDL
MODEL 9
REMARK VINA RESULT:      -4.5      1.618      2.188
REMARK  7 active torsions:
REMARK  status: ('A' for Active; 'I' for Inactive)
REMARK    1  A    between atoms: N_2  and  C_1 
REMARK    2  A    between atoms: C_5  and  C_1 
REMARK    3  A    between atoms: O_4  and  N_2 
REMARK    4  A    between atoms: C_3  and  O_4 
REMARK    5  A    between atoms: C_6  and  C_3 
REMARK    6  A    between atoms: C_17  and  C_14 
REMARK    7  A    between atoms: C_18  and  C_17 
ROOT
ATOM      1  C   UNL d   1     -48.658  11.662  23.435  0.00  0.00     0.319 C 
ATOM      2  O   UNL d   1     -48.866  10.865  23.529  0.00  0.00    -0.257 OA
ENDROOT
BRANCH   1   3
ATOM      3  O   UNL d   1     -49.241  12.243  23.426  0.00  0.00    -0.168 OA
BRANCH   3   4
ATOM      4  N   UNL d   1     -49.880  12.179  22.907  0.00  0.00    -0.100 NA
BRANCH   4   5
ATOM      5  C   UNL d   1     -50.552  12.641  23.023  0.00  0.00     0.228 C 
ATOM      6  N   UNL d   1     -51.053  12.484  23.656  0.00  0.00    -0.123 N 
BRANCH   5   7
ATOM      7  C   UNL d   1     -50.722  13.260  22.505  0.00  0.00     0.121 A 
ATOM      8  N   UNL d   1     -50.846  13.101  21.699  0.00  0.00    -0.241 NA
ATOM      9  C   UNL d   1     -51.018  13.726  21.175  0.00  0.00     0.099 A 
ATOM     10  C   UNL d   1     -51.063  14.504  21.463  0.00  0.00     0.021 A 
ATOM     11  C   UNL d   1     -50.939  14.657  22.262  0.00  0.00     0.003 A 
ATOM     12  C   UNL d   1     -50.770  14.038  22.780  0.00  0.00     0.022 A 
ENDBRANCH   5   7
ENDBRANCH   4   5
ENDBRANCH   3   4
ENDBRANCH   1   3
BRANCH   1  13
ATOM     13  C   UNL d   1     -47.859  11.873  23.351  0.00  0.00     0.065 A 
ATOM     14  C   UNL d   1     -47.662  12.664  23.222  0.00  0.00     0.005 A 
ATOM     15  C   UNL d   1     -46.872  12.876  23.138  0.00  0.00     0.000 A 
ATOM     16  C   UNL d   1     -46.277  12.299  23.182  0.00  0.00     0.000 A 
ATOM     17  C   UNL d   1     -46.481  11.510  23.312  0.00  0.00     0.000 A 
ATOM     18  C   UNL d   1     -47.280  11.299  23.396  0.00  0.00     0.005 A 
BRANCH  16  19
ATOM     19  C   UNL d   1     -45.485  12.519  23.097  0.00  0.00     0.000 C 
BRANCH  19  20
ATOM     20  C   UNL d   1     -45.008  12.137  22.542  0.00  0.00     0.000 C 
ATOM     21  C   UNL d   1     -44.397  12.540  22.166  0.00  0.00     0.000 C 
ENDBRANCH  19  20
ENDBRANCH  16  19
ENDBRANCH   1  13
TORSDOF 7
ENDMDL
