MODEL 1
REMARK VINA RESULT:      20.2      0.000      0.000
REMARK  3 active torsions:
REMARK  status: ('A' for Active; 'I' for Inactive)
REMARK    1  A    between atoms: C_2  and  C_1 
REMARK    2  A    between atoms: C_14  and  O_17 
REMARK    3  A    between atoms: O_17  and  C_16 
ROOT
ATOM      1  C   UNL d   1      46.151 -16.811  43.965  0.00  0.00     0.087 A 
ATOM      2  C   UNL d   1      45.606 -16.426  44.456  0.00  0.00     0.201 A 
ATOM      3  C   UNL d   1      45.538 -15.604  44.460  0.00  0.00     0.062 A 
ATOM      4  C   UNL d   1      46.635 -16.356  43.470  0.00  0.00     0.128 A 
ATOM      5  C   UNL d   1      46.025 -15.146  43.963  0.00  0.00     0.105 A 
ATOM      6  O   UNL d   1      46.572 -15.518  43.470  0.00  0.00    -0.305 OA
ATOM      7  C   UNL d   1      45.957 -14.324  43.967  0.00  0.00     0.050 A 
ATOM      8  C   UNL d   1      44.998 -15.220  44.946  0.00  0.00     0.007 A 
ATOM      9  O   UNL d   1      45.116 -16.869  44.955  0.00  0.00    -0.286 OA
ATOM     10  C   UNL d   1      45.415 -13.959  44.457  0.00  0.00     0.105 A 
ATOM     11  C   UNL d   1      44.928 -14.417  44.955  0.00  0.00     0.025 A 
ENDROOT
BRANCH   1  12
ATOM     12  C   UNL d   1      46.215 -17.626  43.963  0.00  0.00     0.116 A 
ATOM     13  N   UNL d   1      46.202 -18.115  44.629  0.00  0.00    -0.238 NA
ATOM     14  C   UNL d   1      46.283 -18.893  44.366  0.00  0.00     0.088 A 
ATOM     15  C   UNL d   1      46.308 -19.603  44.773  0.00  0.00     0.020 A 
ATOM     16  C   UNL d   1      46.347 -18.888  43.548  0.00  0.00     0.049 A 
ATOM     17  C   UNL d   1      46.395 -20.321  44.370  0.00  0.00     0.002 A 
ATOM     18  C   UNL d   1      46.459 -20.306  43.539  0.00  0.00     0.001 A 
ATOM     19  C   UNL d   1      46.435 -19.596  43.132  0.00  0.00     0.008 A 
ATOM     20  S   UNL d   1      46.306 -18.099  43.280  0.00  0.00    -0.066 SA
ENDBRANCH   1  12
BRANCH  10  21
ATOM     21  O   UNL d   1      45.356 -13.129  44.453  0.00  0.00    -0.273 OA
BRANCH  21  22
ATOM     22  C   UNL d   1      45.093 -12.731  43.783  0.00  0.00     0.300 C 
ATOM     23  O   UNL d   1      44.392 -12.956  43.408  0.00  0.00    -0.259 OA
ATOM     24  C   UNL d   1      45.533 -12.093  43.473  0.00  0.00     0.074 C 
ENDBRANCH  21  22
ENDBRANCH  10  21
TORSDOF 3
ENDMDL
