MODEL 1
REMARK VINA RESULT:     -10.9      0.000      0.000
REMARK  4 active torsions:
REMARK  status: ('A' for Active; 'I' for Inactive)
REMARK    1  A    between atoms: C_2  and  C_1 
REMARK       I    between atoms: N_9  and  C_2 
REMARK    2  A    between atoms: C_16  and  N_9 
REMARK    3  A    between atoms: C_13  and  C_16 
REMARK    4  A    between atoms: O_17  and  C_13 
ROOT
ATOM      1  C   UNL d   1      53.337  33.257  53.570  0.00  0.00     0.073 A 
ATOM      2  C   UNL d   1      53.981  33.752  54.680  0.00  0.00     0.001 A 
ATOM      3  C   UNL d   1      52.695  34.304  53.567  0.00  0.00     0.001 A 
ATOM      4  C   UNL d   1      53.003  34.494  54.065  0.00  0.00     0.001 A 
ATOM      5  C   UNL d   1      52.598  33.822  53.108  0.00  0.00     0.009 A 
ATOM      6  C   UNL d   1      53.878  33.173  54.144  0.00  0.00     0.009 A 
ATOM      7  C   UNL d   1      52.896  33.920  53.528  0.00  0.00     0.009 A 
ATOM      8  C   UNL d   1      52.396  34.988  53.707  0.00  0.00     0.000 A 
ATOM      9  C   UNL d   1      53.412  34.193  54.329  0.00  0.00     0.000 A 
ATOM     10  C   UNL d   1      53.544  34.410  54.640  0.00  0.00     0.000 A 
ATOM     11  C   UNL d   1      53.350  34.855  54.731  0.00  0.00     0.000 C 
ATOM     12  C   UNL d   1      52.218  34.162  52.906  0.00  0.00     0.000 C 
ATOM     13  C   UNL d   1      54.583  33.471  55.186  0.00  0.00     0.000 C 
ENDROOT
BRANCH   1  14
ATOM     14  C   UNL d   1      53.737  32.532  53.520  0.00  0.00     0.255 C 
ATOM     15  N   UNL d   1      53.307  31.816  53.540  0.00  0.00    -0.205 NA
ATOM     16  O   UNL d   1      54.561  32.510  53.450  0.00  0.00    -0.270 OA
BRANCH  15  17
ATOM     17  C   UNL d   1      53.707  31.095  53.490  0.00  0.00     0.170 C 
BRANCH  17  18
ATOM     18  C   UNL d   1      53.289  30.385  53.517  0.00  0.00     0.316 C 
ATOM     19  O   UNL d   1      52.876  30.118  52.853  0.00  0.00    -0.257 OA
BRANCH  18  20
ATOM     20  O   UNL d   1      53.285  29.938  54.217  0.00  0.00    -0.295 OA
ATOM     21  C   UNL d   1      53.269  29.113  54.182  0.00  0.00     0.185 C 
ENDBRANCH  18  20
ENDBRANCH  17  18
ENDBRANCH  15  17
ENDBRANCH   1  14
TORSDOF 4
ENDMDL
MODEL 2
REMARK VINA RESULT:     -10.4      1.981      3.238
REMARK  4 active torsions:
REMARK  status: ('A' for Active; 'I' for Inactive)
REMARK    1  A    between atoms: C_2  and  C_1 
REMARK       I    between atoms: N_9  and  C_2 
REMARK    2  A    between atoms: C_16  and  N_9 
REMARK    3  A    between atoms: C_13  and  C_16 
REMARK    4  A    between atoms: O_17  and  C_13 
ROOT
ATOM      1  C   UNL d   1      52.973  33.245  53.493  0.00  0.00     0.073 A 
ATOM      2  C   UNL d   1      53.525  33.799  54.624  0.00  0.00     0.001 A 
ATOM      3  C   UNL d   1      53.583  32.220  53.787  0.00  0.00     0.001 A 
ATOM      4  C   UNL d   1      53.812  32.500  54.286  0.00  0.00     0.001 A 
ATOM      5  C   UNL d   1      53.193  32.262  53.240  0.00  0.00     0.009 A 
ATOM      6  C   UNL d   1      53.061  33.864  53.981  0.00  0.00     0.009 A 
ATOM      7  C   UNL d   1      53.349  32.559  53.643  0.00  0.00     0.009 A 
ATOM      8  C   UNL d   1      54.014  31.683  54.105  0.00  0.00     0.000 A 
ATOM      9  C   UNL d   1      53.699  33.040  54.435  0.00  0.00     0.000 A 
ATOM     10  C   UNL d   1      53.899  33.118  54.774  0.00  0.00     0.000 A 
ATOM     11  C   UNL d   1      54.180  32.770  54.982  0.00  0.00     0.000 C 
ATOM     12  C   UNL d   1      53.343  31.740  53.156  0.00  0.00     0.000 C 
ATOM     13  C   UNL d   1      53.482  34.546  54.995  0.00  0.00     0.000 C 
ENDROOT
BRANCH   1  14
ATOM     14  C   UNL d   1      52.539  33.906  53.242  0.00  0.00     0.255 C 
ATOM     15  N   UNL d   1      51.718  33.837  53.102  0.00  0.00    -0.205 NA
ATOM     16  O   UNL d   1      52.911  34.636  53.129  0.00  0.00    -0.270 OA
BRANCH  15  17
ATOM     17  C   UNL d   1      51.287  34.496  52.853  0.00  0.00     0.170 C 
BRANCH  17  18
ATOM     18  C   UNL d   1      50.492  34.420  52.646  0.00  0.00     0.316 C 
ATOM     19  O   UNL d   1      50.278  34.032  51.950  0.00  0.00    -0.257 OA
BRANCH  18  20
ATOM     20  O   UNL d   1      49.907  34.735  53.144  0.00  0.00    -0.295 OA
ATOM     21  C   UNL d   1      49.214  35.048  52.822  0.00  0.00     0.185 C 
ENDBRANCH  18  20
ENDBRANCH  17  18
ENDBRANCH  15  17
ENDBRANCH   1  14
TORSDOF 4
ENDMDL
MODEL 3
REMARK VINA RESULT:      -8.8      1.495      3.713
REMARK  4 active torsions:
REMARK  status: ('A' for Active; 'I' for Inactive)
REMARK    1  A    between atoms: C_2  and  C_1 
REMARK       I    between atoms: N_9  and  C_2 
REMARK    2  A    between atoms: C_16  and  N_9 
REMARK    3  A    between atoms: C_13  and  C_16 
REMARK    4  A    between atoms: O_17  and  C_13 
ROOT
ATOM      1  C   UNL d   1      53.743  31.554  53.541  0.00  0.00     0.073 A 
ATOM      2  C   UNL d   1      52.562  31.870  52.911  0.00  0.00     0.001 A 
ATOM      3  C   UNL d   1      53.368  30.385  53.497  0.00  0.00     0.001 A 
ATOM      4  C   UNL d   1      52.850  30.562  53.215  0.00  0.00     0.001 A 
ATOM      5  C   UNL d   1      53.957  30.564  53.769  0.00  0.00     0.009 A 
ATOM      6  C   UNL d   1      53.254  32.096  53.230  0.00  0.00     0.009 A 
ATOM      7  C   UNL d   1      53.542  30.783  53.535  0.00  0.00     0.009 A 
ATOM      8  C   UNL d   1      52.996  29.732  53.390  0.00  0.00     0.000 A 
ATOM      9  C   UNL d   1      52.720  31.104  53.084  0.00  0.00     0.000 A 
ATOM     10  C   UNL d   1      52.361  31.104  52.905  0.00  0.00     0.000 A 
ATOM     11  C   UNL d   1      52.119  30.680  52.835  0.00  0.00     0.000 C 
ATOM     12  C   UNL d   1      54.017  30.026  53.865  0.00  0.00     0.000 C 
ATOM     13  C   UNL d   1      52.206  32.577  52.646  0.00  0.00     0.000 C 
ENDROOT
BRANCH   1  14
ATOM     14  C   UNL d   1      54.049  32.323  53.600  0.00  0.00     0.255 C 
ATOM     15  N   UNL d   1      54.124  32.686  54.349  0.00  0.00    -0.205 NA
ATOM     16  O   UNL d   1      54.283  32.736  52.922  0.00  0.00    -0.270 OA
BRANCH  15  17
ATOM     17  C   UNL d   1      54.429  33.451  54.406  0.00  0.00     0.170 C 
BRANCH  17  18
ATOM     18  C   UNL d   1      54.470  33.829  55.138  0.00  0.00     0.316 C 
ATOM     19  O   UNL d   1      55.168  33.812  55.578  0.00  0.00    -0.257 OA
BRANCH  18  20
ATOM     20  O   UNL d   1      53.803  34.229  55.430  0.00  0.00    -0.295 OA
ATOM     21  C   UNL d   1      53.726  35.043  55.319  0.00  0.00     0.185 C 
ENDBRANCH  18  20
ENDBRANCH  17  18
ENDBRANCH  15  17
ENDBRANCH   1  14
TORSDOF 4
ENDMDL
MODEL 4
REMARK VINA RESULT:      -8.4      1.699      3.823
REMARK  4 active torsions:
REMARK  status: ('A' for Active; 'I' for Inactive)
REMARK    1  A    between atoms: C_2  and  C_1 
REMARK       I    between atoms: N_9  and  C_2 
REMARK    2  A    between atoms: C_16  and  N_9 
REMARK    3  A    between atoms: C_13  and  C_16 
REMARK    4  A    between atoms: O_17  and  C_13 
ROOT
ATOM      1  C   UNL d   1      53.310  32.779  53.497  0.00  0.00     0.073 A 
ATOM      2  C   UNL d   1      52.183  32.279  52.888  0.00  0.00     0.001 A 
ATOM      3  C   UNL d   1      53.699  31.616  53.568  0.00  0.00     0.001 A 
ATOM      4  C   UNL d   1      53.181  31.427  53.292  0.00  0.00     0.001 A 
ATOM      5  C   UNL d   1      54.062  32.131  53.801  0.00  0.00     0.009 A 
ATOM      6  C   UNL d   1      52.602  32.898  53.160  0.00  0.00     0.009 A 
ATOM      7  C   UNL d   1      53.603  32.041  53.565  0.00  0.00     0.009 A 
ATOM      8  C   UNL d   1      53.786  30.863  53.532  0.00  0.00     0.000 A 
ATOM      9  C   UNL d   1      52.760  31.773  53.120  0.00  0.00     0.000 A 
ATOM     10  C   UNL d   1      52.473  31.545  52.955  0.00  0.00     0.000 A 
ATOM     11  C   UNL d   1      52.529  31.056  52.931  0.00  0.00     0.000 C 
ATOM     12  C   UNL d   1      54.426  31.744  53.941  0.00  0.00     0.000 C 
ATOM     13  C   UNL d   1      51.484  32.613  52.578  0.00  0.00     0.000 C 
ENDROOT
BRANCH   1  14
ATOM     14  C   UNL d   1      53.102  33.582  53.479  0.00  0.00     0.255 C 
ATOM     15  N   UNL d   1      53.158  34.044  54.173  0.00  0.00    -0.205 NA
ATOM     16  O   UNL d   1      52.840  33.933  52.777  0.00  0.00    -0.270 OA
BRANCH  15  17
ATOM     17  C   UNL d   1      52.951  34.843  54.153  0.00  0.00     0.170 C 
BRANCH  17  18
ATOM     18  C   UNL d   1      53.053  35.316  54.821  0.00  0.00     0.316 C 
ATOM     19  O   UNL d   1      53.380  34.999  55.510  0.00  0.00    -0.257 OA
BRANCH  18  20
ATOM     20  O   UNL d   1      52.826  36.115  54.797  0.00  0.00    -0.295 OA
ATOM     21  C   UNL d   1      53.399  36.709  54.800  0.00  0.00     0.185 C 
ENDBRANCH  18  20
ENDBRANCH  17  18
ENDBRANCH  15  17
ENDBRANCH   1  14
TORSDOF 4
ENDMDL
