MODEL 1
REMARK VINA RESULT:      -3.2      0.000      0.000
REMARK  3 active torsions:
REMARK  status: ('A' for Active; 'I' for Inactive)
REMARK    1  A    between atoms: C_8  and  C_1 
REMARK       I    between atoms: C_5  and  N_7 
REMARK    2  A    between atoms: C_10  and  C_5 
REMARK    3  A    between atoms: N_7  and  C_15 
ROOT
ATOM      1  C   UNL d   1      33.071  20.380 -22.140  0.00  0.00     0.024 A 
ATOM      2  C   UNL d   1      33.078  20.360 -22.956  0.00  0.00     0.004 A 
ATOM      3  C   UNL d   1      33.121  19.684 -21.704  0.00  0.00     0.004 A 
ATOM      4  C   UNL d   1      33.183  18.933 -22.916  0.00  0.00     0.085 A 
ATOM      5  C   UNL d   1      33.177  18.956 -22.089  0.00  0.00     0.019 A 
ATOM      6  C   UNL d   1      33.134  19.636 -23.349  0.00  0.00     0.019 A 
ENDROOT
BRANCH   1   7
ATOM      7  C   UNL d   1      33.015  21.109 -21.749  0.00  0.00     0.112 A 
ATOM      8  S   UNL d   1      33.240  21.850 -22.066  0.00  0.00    -0.047 SA
ATOM      9  C   UNL d   1      33.089  22.429 -21.486  0.00  0.00     0.130 A 
ATOM     10  N   UNL d   1      33.197  23.247 -21.482  0.00  0.00    -0.236 NA
ATOM     11  C   UNL d   1      32.772  22.049 -20.816  0.00  0.00     0.106 A 
ATOM     12  C   UNL d   1      32.992  23.689 -20.814  0.00  0.00     0.100 A 
ATOM     13  C   UNL d   1      32.674  23.304 -20.142  0.00  0.00     0.022 A 
ATOM     14  C   UNL d   1      32.567  22.488 -20.150  0.00  0.00     0.023 A 
ATOM     15  N   UNL d   1      32.730  21.226 -20.990  0.00  0.00    -0.237 NA
ENDBRANCH   1   7
BRANCH   4  16
ATOM     16  N   UNL d   1      33.240  18.206 -23.310  0.00  0.00    -0.206 NA
ATOM     17  C   UNL d   1      32.553  17.801 -23.518  0.00  0.00     0.302 C 
ATOM     18  O   UNL d   1      31.811  18.110 -23.338  0.00  0.00    -0.263 OA
BRANCH  17  19
ATOM     19  C   UNL d   1      32.609  17.081 -23.909  0.00  0.00     0.158 A 
ATOM     20  O   UNL d   1      33.167  16.878 -24.484  0.00  0.00    -0.300 OA
ATOM     21  C   UNL d   1      33.012  16.106 -24.719  0.00  0.00     0.123 A 
ATOM     22  C   UNL d   1      32.359  15.824 -24.292  0.00  0.00     0.029 A 
ATOM     23  C   UNL d   1      32.108  16.425 -23.791  0.00  0.00     0.032 A 
ENDBRANCH  17  19
ENDBRANCH   4  16
TORSDOF 3
ENDMDL
MODEL 2
REMARK VINA RESULT:      -1.5      1.792      2.640
REMARK  3 active torsions:
REMARK  status: ('A' for Active; 'I' for Inactive)
REMARK    1  A    between atoms: C_8  and  C_1 
REMARK       I    between atoms: C_5  and  N_7 
REMARK    2  A    between atoms: C_10  and  C_5 
REMARK    3  A    between atoms: N_7  and  C_15 
ROOT
ATOM      1  C   UNL d   1      33.003  21.717 -20.378  0.00  0.00     0.024 A 
ATOM      2  C   UNL d   1      32.910  22.135 -21.073  0.00  0.00     0.004 A 
ATOM      3  C   UNL d   1      33.166  20.910 -20.393  0.00  0.00     0.004 A 
ATOM      4  C   UNL d   1      33.144  20.936 -21.820  0.00  0.00     0.085 A 
ATOM      5  C   UNL d   1      33.238  20.515 -21.114  0.00  0.00     0.019 A 
ATOM      6  C   UNL d   1      32.980  21.747 -21.798  0.00  0.00     0.019 A 
ENDROOT
BRANCH   1   7
ATOM      7  C   UNL d   1      32.931  22.111 -19.651  0.00  0.00     0.112 A 
ATOM      8  S   UNL d   1      33.223  21.835 -18.918  0.00  0.00    -0.047 SA
ATOM      9  C   UNL d   1      33.029  22.401 -18.339  0.00  0.00     0.130 A 
ATOM     10  N   UNL d   1      33.171  22.431 -17.527  0.00  0.00    -0.236 NA
ATOM     11  C   UNL d   1      32.620  23.024 -18.712  0.00  0.00     0.106 A 
ATOM     12  C   UNL d   1      32.908  23.079 -17.083  0.00  0.00     0.100 A 
ATOM     13  C   UNL d   1      32.497  23.702 -17.461  0.00  0.00     0.022 A 
ATOM     14  C   UNL d   1      32.358  23.669 -18.272  0.00  0.00     0.023 A 
ATOM     15  N   UNL d   1      32.564  22.833 -19.530  0.00  0.00    -0.237 NA
ENDBRANCH   1   7
BRANCH   4  16
ATOM     16  N   UNL d   1      33.215  20.546 -22.548  0.00  0.00    -0.206 NA
ATOM     17  C   UNL d   1      32.910  19.786 -22.634  0.00  0.00     0.302 C 
ATOM     18  O   UNL d   1      32.535  19.409 -22.005  0.00  0.00    -0.263 OA
BRANCH  17  19
ATOM     19  C   UNL d   1      32.979  19.400 -23.355  0.00  0.00     0.158 A 
ATOM     20  O   UNL d   1      32.911  19.744 -24.104  0.00  0.00    -0.300 OA
ATOM     21  C   UNL d   1      33.021  19.150 -24.661  0.00  0.00     0.123 A 
ATOM     22  C   UNL d   1      33.158  18.435 -24.265  0.00  0.00     0.029 A 
ATOM     23  C   UNL d   1      33.133  18.587 -23.457  0.00  0.00     0.032 A 
ENDBRANCH  17  19
ENDBRANCH   4  16
TORSDOF 3
ENDMDL
MODEL 3
REMARK VINA RESULT:      -1.4      3.977      6.053
REMARK  3 active torsions:
REMARK  status: ('A' for Active; 'I' for Inactive)
REMARK    1  A    between atoms: C_8  and  C_1 
REMARK       I    between atoms: C_5  and  N_7 
REMARK    2  A    between atoms: C_10  and  C_5 
REMARK    3  A    between atoms: N_7  and  C_15 
ROOT
ATOM      1  C   UNL d   1      32.555  23.288 -21.509  0.00  0.00     0.024 A 
ATOM      2  C   UNL d   1      33.241  23.210 -21.073  0.00  0.00     0.004 A 
ATOM      3  C   UNL d   1      31.843  23.475 -21.139  0.00  0.00     0.004 A 
ATOM      4  C   UNL d   1      32.511  23.506 -19.879  0.00  0.00     0.085 A 
ATOM      5  C   UNL d   1      31.817  23.585 -20.322  0.00  0.00     0.019 A 
ATOM      6  C   UNL d   1      33.223  23.318 -20.256  0.00  0.00     0.019 A 
ENDROOT
BRANCH   1   7
ATOM      7  C   UNL d   1      32.577  23.178 -22.331  0.00  0.00     0.112 A 
ATOM      8  S   UNL d   1      32.168  23.641 -22.895  0.00  0.00    -0.047 SA
ATOM      9  C   UNL d   1      32.348  23.337 -23.649  0.00  0.00     0.130 A 
ATOM     10  N   UNL d   1      32.110  23.564 -24.407  0.00  0.00    -0.236 NA
ATOM     11  C   UNL d   1      32.865  22.691 -23.553  0.00  0.00     0.106 A 
ATOM     12  C   UNL d   1      32.385  23.150 -25.068  0.00  0.00     0.100 A 
ATOM     13  C   UNL d   1      32.904  22.501 -24.968  0.00  0.00     0.022 A 
ATOM     14  C   UNL d   1      33.139  22.278 -24.211  0.00  0.00     0.023 A 
ATOM     15  N   UNL d   1      33.002  22.600 -22.727  0.00  0.00    -0.237 NA
ENDBRANCH   1   7
BRANCH   4  16
ATOM     16  N   UNL d   1      32.493  23.615 -19.057  0.00  0.00    -0.206 NA
ATOM     17  C   UNL d   1      32.549  22.962 -18.558  0.00  0.00     0.302 C 
ATOM     18  O   UNL d   1      32.623  22.202 -18.866  0.00  0.00    -0.263 OA
BRANCH  17  19
ATOM     19  C   UNL d   1      32.531  23.070 -17.745  0.00  0.00     0.158 A 
ATOM     20  O   UNL d   1      31.886  23.335 -17.300  0.00  0.00    -0.300 OA
ATOM     21  C   UNL d   1      32.121  23.358 -16.513  0.00  0.00     0.123 A 
ATOM     22  C   UNL d   1      32.909  23.109 -16.462  0.00  0.00     0.029 A 
ATOM     23  C   UNL d   1      33.166  22.930 -17.223  0.00  0.00     0.032 A 
ENDBRANCH  17  19
ENDBRANCH   4  16
TORSDOF 3
ENDMDL
MODEL 4
REMARK VINA RESULT:      -0.5      3.522      4.658
REMARK  3 active torsions:
REMARK  status: ('A' for Active; 'I' for Inactive)
REMARK    1  A    between atoms: C_8  and  C_1 
REMARK       I    between atoms: C_5  and  N_7 
REMARK    2  A    between atoms: C_10  and  C_5 
REMARK    3  A    between atoms: N_7  and  C_15 
ROOT
ATOM      1  C   UNL d   1      32.752  23.114 -19.668  0.00  0.00     0.024 A 
ATOM      2  C   UNL d   1      33.235  22.605 -20.084  0.00  0.00     0.004 A 
ATOM      3  C   UNL d   1      32.267  23.649 -20.063  0.00  0.00     0.004 A 
ATOM      4  C   UNL d   1      32.755  23.160 -21.312  0.00  0.00     0.085 A 
ATOM      5  C   UNL d   1      32.266  23.675 -20.888  0.00  0.00     0.019 A 
ATOM      6  C   UNL d   1      33.239  22.625 -20.909  0.00  0.00     0.019 A 
ENDROOT
BRANCH   1   7
ATOM      7  C   UNL d   1      32.750  23.090 -18.838  0.00  0.00     0.112 A 
ATOM      8  S   UNL d   1      32.339  23.619 -18.337  0.00  0.00    -0.047 SA
ATOM      9  C   UNL d   1      32.492  23.392 -17.550  0.00  0.00     0.130 A 
ATOM     10  N   UNL d   1      32.240  23.702 -16.828  0.00  0.00    -0.236 NA
ATOM     11  C   UNL d   1      32.995  22.728 -17.564  0.00  0.00     0.106 A 
ATOM     12  C   UNL d   1      32.487  23.354 -16.119  0.00  0.00     0.100 A 
ATOM     13  C   UNL d   1      32.993  22.687 -16.137  0.00  0.00     0.022 A 
ATOM     14  C   UNL d   1      33.241  22.381 -16.859  0.00  0.00     0.023 A 
ATOM     15  N   UNL d   1      33.150  22.548 -18.372  0.00  0.00    -0.237 NA
ENDBRANCH   1   7
BRANCH   4  16
ATOM     16  N   UNL d   1      32.759  23.181 -22.141  0.00  0.00    -0.206 NA
ATOM     17  C   UNL d   1      32.894  22.488 -22.564  0.00  0.00     0.302 C 
ATOM     18  O   UNL d   1      33.024  21.774 -22.174  0.00  0.00    -0.263 OA
BRANCH  17  19
ATOM     19  C   UNL d   1      32.898  22.508 -23.385  0.00  0.00     0.158 A 
ATOM     20  O   UNL d   1      32.711  23.158 -23.860  0.00  0.00    -0.300 OA
ATOM     21  C   UNL d   1      32.790  22.925 -24.644  0.00  0.00     0.123 A 
ATOM     22  C   UNL d   1      33.026  22.130 -24.662  0.00  0.00     0.029 A 
ATOM     23  C   UNL d   1      33.093  21.870 -23.885  0.00  0.00     0.032 A 
ENDBRANCH  17  19
ENDBRANCH   4  16
TORSDOF 3
ENDMDL
