MODEL 1
REMARK VINA RESULT:      -4.5      0.000      0.000
REMARK  4 active torsions:
REMARK  status: ('A' for Active; 'I' for Inactive)
REMARK    1  A    between atoms: C_17  and  C_4 
REMARK    2  A    between atoms: C_6  and  C_8 
REMARK       I    between atoms: C_8  and  N_16 
REMARK    3  A    between atoms: N_16  and  C_18 
REMARK    4  A    between atoms: C_18  and  C_17 
ROOT
ATOM      1  C   UNL d   1      57.461   0.559  30.850  0.00  0.00     0.042 C 
ENDROOT
BRANCH   1   2
ATOM      2  C   UNL d   1      58.023   0.299  30.299  0.00  0.00     0.103 A 
ATOM      3  N   UNL d   1      57.877  -0.149  29.619  0.00  0.00    -0.221 NA
ATOM      4  C   UNL d   1      58.602  -0.280  29.234  0.00  0.00     0.179 A 
ATOM      5  N   UNL d   1      59.196   0.090  29.679  0.00  0.00    -0.282 N 
ATOM      6  S   UNL d   1      58.956  -0.635  28.581  0.00  0.00    -0.048 SA
ATOM      7  C   UNL d   1      58.834   0.447  30.336  0.00  0.00     0.101 A 
ATOM      8  C   UNL d   1      59.914  -0.039  29.298  0.00  0.00     0.089 A 
ATOM      9  C   UNL d   1      59.769  -0.486  28.620  0.00  0.00     0.057 A 
ENDBRANCH   1   2
BRANCH   1  10
ATOM     10  C   UNL d   1      57.184   0.034  31.427  0.00  0.00     0.104 C 
BRANCH  10  11
ATOM     11  N   UNL d   1      56.710   0.315  32.053  0.00  0.00    -0.206 NA
ATOM     12  C   UNL d   1      56.396  -0.216  32.604  0.00  0.00     0.285 C 
ATOM     13  O   UNL d   1      56.554  -1.025  32.535  0.00  0.00    -0.265 OA
BRANCH  12  14
ATOM     14  C   UNL d   1      55.927   0.062  33.224  0.00  0.00     0.087 A 
ATOM     15  S   UNL d   1      56.186   0.524  33.866  0.00  0.00    -0.082 SA
ATOM     16  C   UNL d   1      55.534   0.673  34.348  0.00  0.00     0.036 A 
ATOM     17  C   UNL d   1      54.874   0.300  33.999  0.00  0.00     0.008 A 
ATOM     18  C   UNL d   1      55.127  -0.067  33.317  0.00  0.00     0.012 A 
ENDBRANCH  12  14
ENDBRANCH  10  11
ENDBRANCH   1  10
TORSDOF 4
ENDMDL
MODEL 2
REMARK VINA RESULT:      -4.4      1.204      4.906
REMARK  4 active torsions:
REMARK  status: ('A' for Active; 'I' for Inactive)
REMARK    1  A    between atoms: C_17  and  C_4 
REMARK    2  A    between atoms: C_6  and  C_8 
REMARK       I    between atoms: C_8  and  N_16 
REMARK    3  A    between atoms: N_16  and  C_18 
REMARK    4  A    between atoms: C_18  and  C_17 
ROOT
ATOM      1  C   UNL d   1      56.748  -0.684  32.044  0.00  0.00     0.042 C 
ENDROOT
BRANCH   1   2
ATOM      2  C   UNL d   1      56.339  -0.350  32.683  0.00  0.00     0.103 A 
ATOM      3  N   UNL d   1      55.518  -0.335  32.788  0.00  0.00    -0.221 NA
ATOM      4  C   UNL d   1      55.356   0.055  33.505  0.00  0.00     0.179 A 
ATOM      5  N   UNL d   1      56.080   0.280  33.841  0.00  0.00    -0.282 N 
ATOM      6  S   UNL d   1      54.753   0.303  34.009  0.00  0.00    -0.048 SA
ATOM      7  C   UNL d   1      56.684   0.027  33.329  0.00  0.00     0.101 A 
ATOM      8  C   UNL d   1      55.920   0.666  34.550  0.00  0.00     0.089 A 
ATOM      9  C   UNL d   1      55.103   0.681  34.656  0.00  0.00     0.057 A 
ENDBRANCH   1   2
BRANCH   1  10
ATOM     10  C   UNL d   1      57.010  -0.197  31.429  0.00  0.00     0.104 C 
BRANCH  10  11
ATOM     11  N   UNL d   1      57.636  -0.446  30.937  0.00  0.00    -0.206 NA
ATOM     12  C   UNL d   1      57.829  -0.011  30.261  0.00  0.00     0.285 C 
ATOM     13  O   UNL d   1      57.402   0.673  30.074  0.00  0.00    -0.265 OA
BRANCH  12  14
ATOM     14  C   UNL d   1      58.448  -0.257  29.774  0.00  0.00     0.087 A 
ATOM     15  S   UNL d   1      59.126   0.186  29.581  0.00  0.00    -0.082 SA
ATOM     16  C   UNL d   1      59.593  -0.275  29.081  0.00  0.00     0.036 A 
ATOM     17  C   UNL d   1      59.199  -1.001  28.969  0.00  0.00     0.008 A 
ATOM     18  C   UNL d   1      58.506  -0.977  29.395  0.00  0.00     0.012 A 
ENDBRANCH  12  14
ENDBRANCH  10  11
ENDBRANCH   1  10
TORSDOF 4
ENDMDL
MODEL 3
REMARK VINA RESULT:      -2.5      9.804     10.062
REMARK  4 active torsions:
REMARK  status: ('A' for Active; 'I' for Inactive)
REMARK    1  A    between atoms: C_17  and  C_4 
REMARK    2  A    between atoms: C_6  and  C_8 
REMARK       I    between atoms: C_8  and  N_16 
REMARK    3  A    between atoms: N_16  and  C_18 
REMARK    4  A    between atoms: C_18  and  C_17 
ROOT
ATOM      1  C   UNL d   1      58.629  -9.818  32.907  0.00  0.00     0.042 C 
ENDROOT
BRANCH   1   2
ATOM      2  C   UNL d   1      58.399  -9.817  32.110  0.00  0.00     0.103 A 
ATOM      3  N   UNL d   1      58.902  -9.818  31.452  0.00  0.00    -0.221 NA
ATOM      4  C   UNL d   1      58.430  -9.817  30.767  0.00  0.00     0.179 A 
ATOM      5  N   UNL d   1      57.636  -9.816  31.004  0.00  0.00    -0.282 N 
ATOM      6  S   UNL d   1      58.450  -9.817  29.943  0.00  0.00    -0.048 SA
ATOM      7  C   UNL d   1      57.622  -9.816  31.835  0.00  0.00     0.101 A 
ATOM      8  C   UNL d   1      57.170  -9.815  30.327  0.00  0.00     0.089 A 
ATOM      9  C   UNL d   1      57.669  -9.816  29.671  0.00  0.00     0.057 A 
ENDBRANCH   1   2
BRANCH   1  10
ATOM     10  C   UNL d   1      59.362  -9.497  33.119  0.00  0.00     0.104 C 
BRANCH  10  11
ATOM     11  N   UNL d   1      59.475  -9.186  33.884  0.00  0.00    -0.206 NA
ATOM     12  C   UNL d   1      60.239  -9.116  34.194  0.00  0.00     0.285 C 
ATOM     13  O   UNL d   1      60.890  -9.355  33.743  0.00  0.00    -0.265 OA
BRANCH  12  14
ATOM     14  C   UNL d   1      60.351  -8.809  34.951  0.00  0.00     0.087 A 
ATOM     15  S   UNL d   1      60.882  -9.099  35.524  0.00  0.00    -0.082 SA
ATOM     16  C   UNL d   1      60.810  -8.625  36.196  0.00  0.00     0.036 A 
ATOM     17  C   UNL d   1      60.234  -8.044  36.032  0.00  0.00     0.008 A 
ATOM     18  C   UNL d   1      59.964  -8.168  35.273  0.00  0.00     0.012 A 
ENDBRANCH  12  14
ENDBRANCH  10  11
ENDBRANCH   1  10
TORSDOF 4
ENDMDL
