MODEL 1
REMARK VINA RESULT:      -5.1      0.000      0.000
REMARK  1 active torsions:
REMARK  status: ('A' for Active; 'I' for Inactive)
REMARK    1  A    between atoms: C_8  and  C_3 
ROOT
ATOM      1  C   UNL d   1     -41.665-123.087 -52.760  0.00  0.00     0.199 A 
ATOM      2  C   UNL d   1     -41.366-121.792 -52.563  0.00  0.00     0.199 A 
ATOM      3  C   UNL d   1     -41.583-122.360 -53.130  0.00  0.00     0.078 A 
ATOM      4  C   UNL d   1     -41.504-123.002 -51.957  0.00  0.00     0.042 A 
ATOM      5  C   UNL d   1     -41.319-122.199 -51.835  0.00  0.00     0.042 A 
ATOM      6  O   UNL d   1     -41.223-120.965 -52.707  0.00  0.00    -0.286 OA
ATOM      7  O   UNL d   1     -41.882-123.817 -53.141  0.00  0.00    -0.286 OA
ATOM      8  C   UNL d   1     -41.127-121.921 -51.083  0.00  0.00     0.003 A 
ATOM      9  C   UNL d   1     -41.497-123.520 -51.326  0.00  0.00     0.003 A 
ATOM     10  C   UNL d   1     -41.123-122.455 -50.446  0.00  0.00     0.000 A 
ATOM     11  C   UNL d   1     -41.308-123.258 -50.568  0.00  0.00     0.000 A 
ENDROOT
BRANCH   3  12
ATOM     12  C   UNL d   1     -41.702-122.236 -53.937  0.00  0.00     0.009 A 
ATOM     13  C   UNL d   1     -42.419-121.924 -54.200  0.00  0.00     0.021 A 
ATOM     14  C   UNL d   1     -42.536-121.801 -54.999  0.00  0.00     0.099 A 
ATOM     15  N   UNL d   1     -41.969-121.975 -55.560  0.00  0.00    -0.242 NA
ATOM     16  C   UNL d   1     -41.242-122.292 -55.275  0.00  0.00     0.099 A 
ATOM     17  C   UNL d   1     -41.123-122.417 -54.467  0.00  0.00     0.021 A 
ENDBRANCH   3  12
TORSDOF 1
ENDMDL
MODEL 2
REMARK VINA RESULT:      -3.4      1.405      3.487
REMARK  1 active torsions:
REMARK  status: ('A' for Active; 'I' for Inactive)
REMARK    1  A    between atoms: C_8  and  C_3 
ROOT
ATOM      1  C   UNL d   1     -41.958-121.812 -53.366  0.00  0.00     0.199 A 
ATOM      2  C   UNL d   1     -41.447-123.053 -53.451  0.00  0.00     0.199 A 
ATOM      3  C   UNL d   1     -41.673-122.446 -52.930  0.00  0.00     0.078 A 
ATOM      4  C   UNL d   1     -41.921-121.997 -54.167  0.00  0.00     0.042 A 
ATOM      5  C   UNL d   1     -41.605-122.766 -54.220  0.00  0.00     0.042 A 
ATOM      6  O   UNL d   1     -41.123-123.809 -53.235  0.00  0.00    -0.286 OA
ATOM      7  O   UNL d   1     -42.246-121.077 -53.046  0.00  0.00    -0.286 OA
ATOM      8  C   UNL d   1     -41.493-123.126 -54.954  0.00  0.00     0.003 A 
ATOM      9  C   UNL d   1     -42.123-121.594 -54.848  0.00  0.00     0.003 A 
ATOM     10  C   UNL d   1     -41.701-122.708 -55.642  0.00  0.00     0.000 A 
ATOM     11  C   UNL d   1     -42.017-121.939 -55.589  0.00  0.00     0.000 A 
ENDROOT
BRANCH   3  12
ATOM     12  C   UNL d   1     -41.627-122.456 -52.107  0.00  0.00     0.009 A 
ATOM     13  C   UNL d   1     -41.168-121.894 -51.717  0.00  0.00     0.021 A 
ATOM     14  C   UNL d   1     -41.123-121.905 -50.901  0.00  0.00     0.099 A 
ATOM     15  N   UNL d   1     -41.516-122.455 -50.444  0.00  0.00    -0.242 NA
ATOM     16  C   UNL d   1     -41.981-123.024 -50.859  0.00  0.00     0.099 A 
ATOM     17  C   UNL d   1     -42.027-123.013 -51.683  0.00  0.00     0.021 A 
ENDBRANCH   3  12
TORSDOF 1
ENDMDL
MODEL 3
REMARK VINA RESULT:      -3.3      1.481      3.266
REMARK  1 active torsions:
REMARK  status: ('A' for Active; 'I' for Inactive)
REMARK    1  A    between atoms: C_8  and  C_3 
ROOT
ATOM      1  C   UNL d   1     -41.446-123.087 -53.105  0.00  0.00     0.199 A 
ATOM      2  C   UNL d   1     -41.979-121.858 -53.216  0.00  0.00     0.199 A 
ATOM      3  C   UNL d   1     -41.714-122.438 -52.682  0.00  0.00     0.078 A 
ATOM      4  C   UNL d   1     -41.533-122.939 -53.911  0.00  0.00     0.042 A 
ATOM      5  C   UNL d   1     -41.864-122.177 -53.979  0.00  0.00     0.042 A 
ATOM      6  O   UNL d   1     -42.302-121.096 -53.014  0.00  0.00    -0.286 OA
ATOM      7  O   UNL d   1     -41.128-123.803 -52.771  0.00  0.00    -0.286 OA
ATOM      8  C   UNL d   1     -42.025-121.854 -54.720  0.00  0.00     0.003 A 
ATOM      9  C   UNL d   1     -41.366-123.371 -54.584  0.00  0.00     0.003 A 
ATOM     10  C   UNL d   1     -41.852-122.300 -55.400  0.00  0.00     0.000 A 
ATOM     11  C   UNL d   1     -41.521-123.062 -55.331  0.00  0.00     0.000 A 
ENDROOT
BRANCH   3  12
ATOM     12  C   UNL d   1     -41.711-122.390 -51.859  0.00  0.00     0.009 A 
ATOM     13  C   UNL d   1     -41.133-121.941 -51.479  0.00  0.00     0.021 A 
ATOM     14  C   UNL d   1     -41.130-121.894 -50.663  0.00  0.00     0.099 A 
ATOM     15  N   UNL d   1     -41.681-122.275 -50.197  0.00  0.00    -0.242 NA
ATOM     16  C   UNL d   1     -42.266-122.730 -50.601  0.00  0.00     0.099 A 
ATOM     17  C   UNL d   1     -42.269-122.778 -51.425  0.00  0.00     0.021 A 
ENDBRANCH   3  12
TORSDOF 1
ENDMDL
MODEL 4
REMARK VINA RESULT:      -3.0      1.694      2.418
REMARK  1 active torsions:
REMARK  status: ('A' for Active; 'I' for Inactive)
REMARK    1  A    between atoms: C_8  and  C_3 
ROOT
ATOM      1  C   UNL d   1     -41.730-123.271 -50.555  0.00  0.00     0.199 A 
ATOM      2  C   UNL d   1     -42.621-122.265 -50.577  0.00  0.00     0.199 A 
ATOM      3  C   UNL d   1     -42.043-122.670 -51.017  0.00  0.00     0.078 A 
ATOM      4  C   UNL d   1     -42.096-123.264 -49.818  0.00  0.00     0.042 A 
ATOM      5  C   UNL d   1     -42.649-122.641 -49.831  0.00  0.00     0.042 A 
ATOM      6  O   UNL d   1     -43.086-121.602 -50.842  0.00  0.00    -0.286 OA
ATOM      7  O   UNL d   1     -41.123-123.817 -50.795  0.00  0.00    -0.286 OA
ATOM      8  C   UNL d   1     -43.116-122.479 -49.172  0.00  0.00     0.003 A 
ATOM      9  C   UNL d   1     -42.015-123.721 -49.145  0.00  0.00     0.003 A 
ATOM     10  C   UNL d   1     -43.027-122.948 -48.491  0.00  0.00     0.000 A 
ATOM     11  C   UNL d   1     -42.475-123.572 -48.478  0.00  0.00     0.000 A 
ENDROOT
BRANCH   3  12
ATOM     12  C   UNL d   1     -41.808-122.511 -51.791  0.00  0.00     0.009 A 
ATOM     13  C   UNL d   1     -42.034-123.020 -52.398  0.00  0.00     0.021 A 
ATOM     14  C   UNL d   1     -41.800-122.862 -53.166  0.00  0.00     0.099 A 
ATOM     15  N   UNL d   1     -41.346-122.214 -53.364  0.00  0.00    -0.242 NA
ATOM     16  C   UNL d   1     -41.123-121.702 -52.731  0.00  0.00     0.099 A 
ATOM     17  C   UNL d   1     -41.359-121.862 -51.956  0.00  0.00     0.021 A 
ENDBRANCH   3  12
TORSDOF 1
ENDMDL
