MODEL 1
REMARK VINA RESULT:      55.1      0.000      0.000
REMARK  4 active torsions:
REMARK  status: ('A' for Active; 'I' for Inactive)
REMARK    1  A    between atoms: S_7  and  C_1 
REMARK       I    between atoms: N_5  and  C_9 
REMARK    2  A    between atoms: C_10  and  S_7 
REMARK    3  A    between atoms: C_15  and  N_8 
REMARK    4  A    between atoms: C_9  and  C_10 
ROOT
ATOM      1  N   UNL d   1      13.499  13.302  -3.724  0.00  0.00    -0.269 N 
ATOM      2  N   UNL d   1      13.739  14.727  -4.530  0.00  0.00    -0.301 N 
ATOM      3  C   UNL d   1      13.374  12.583  -3.322  0.00  0.00     0.271 C 
ATOM      4  C   UNL d   1      14.101  13.818  -3.485  0.00  0.00     0.102 A 
ATOM      5  C   UNL d   1      13.016  13.495  -4.365  0.00  0.00     0.102 A 
ATOM      6  C   UNL d   1      13.138  14.208  -4.765  0.00  0.00     0.100 A 
ATOM      7  C   UNL d   1      14.221  14.525  -3.884  0.00  0.00     0.100 A 
ATOM      8  O   UNL d   1      12.771  12.070  -3.565  0.00  0.00    -0.266 OA
ENDROOT
BRANCH   3   9
ATOM      9  C   UNL d   1      13.861  12.393  -2.681  0.00  0.00     0.097 C 
BRANCH   9  10
ATOM     10  S   UNL d   1      13.581  11.873  -2.104  0.00  0.00    -0.080 SA
BRANCH  10  11
ATOM     11  C   UNL d   1      13.957  11.844  -1.362  0.00  0.00     0.049 A 
ATOM     12  C   UNL d   1      13.584  11.803  -0.631  0.00  0.00     0.087 A 
ATOM     13  N   UNL d   1      14.164  11.786  -0.044  0.00  0.00    -0.245 NA
ATOM     14  C   UNL d   1      12.769  11.783  -0.512  0.00  0.00     0.021 C 
ATOM     15  C   UNL d   1      14.902  11.817  -0.429  0.00  0.00     0.082 A 
ATOM     16  C   UNL d   1      14.768  11.853  -1.241  0.00  0.00     0.025 A 
ATOM     17  C   UNL d   1      15.674  11.817  -0.134  0.00  0.00     0.019 A 
ATOM     18  C   UNL d   1      15.405  11.889  -1.757  0.00  0.00     0.002 A 
ATOM     19  C   UNL d   1      16.179  11.889  -1.475  0.00  0.00     0.000 A 
ATOM     20  C   UNL d   1      16.307  11.852  -0.651  0.00  0.00     0.002 A 
ENDBRANCH  10  11
ENDBRANCH   9  10
ENDBRANCH   3   9
BRANCH   2  21
ATOM     21  C   UNL d   1      13.854  15.435  -4.933  0.00  0.00     0.064 A 
ATOM     22  C   UNL d   1      13.283  15.705  -5.464  0.00  0.00     0.018 A 
ATOM     23  C   UNL d   1      13.404  16.423  -5.871  0.00  0.00     0.002 A 
ATOM     24  C   UNL d   1      14.095  16.859  -5.739  0.00  0.00     0.000 A 
ATOM     25  C   UNL d   1      14.663  16.587  -5.209  0.00  0.00     0.002 A 
ATOM     26  C   UNL d   1      14.543  15.880  -4.810  0.00  0.00     0.018 A 
ENDBRANCH   2  21
TORSDOF 4
ENDMDL
MODEL 2
REMARK VINA RESULT:      57.2      2.387      3.594
REMARK  4 active torsions:
REMARK  status: ('A' for Active; 'I' for Inactive)
REMARK    1  A    between atoms: S_7  and  C_1 
REMARK       I    between atoms: N_5  and  C_9 
REMARK    2  A    between atoms: C_10  and  S_7 
REMARK    3  A    between atoms: C_15  and  N_8 
REMARK    4  A    between atoms: C_9  and  C_10 
ROOT
ATOM      1  N   UNL d   1      13.964  12.506  -1.244  0.00  0.00    -0.269 N 
ATOM      2  N   UNL d   1      13.537  12.506  -2.842  0.00  0.00    -0.301 N 
ATOM      3  C   UNL d   1      14.178  12.501  -0.439  0.00  0.00     0.271 C 
ATOM      4  C   UNL d   1      13.850  13.223  -1.644  0.00  0.00     0.102 A 
ATOM      5  C   UNL d   1      13.865  11.789  -1.640  0.00  0.00     0.102 A 
ATOM      6  C   UNL d   1      13.652  11.792  -2.438  0.00  0.00     0.100 A 
ATOM      7  C   UNL d   1      13.638  13.223  -2.436  0.00  0.00     0.100 A 
ATOM      8  O   UNL d   1      14.291  11.783  -0.043  0.00  0.00    -0.266 OA
ENDROOT
BRANCH   3   9
ATOM      9  C   UNL d   1      14.276  13.223  -0.046  0.00  0.00     0.097 C 
BRANCH   9  10
ATOM     10  S   UNL d   1      14.348  13.916  -0.490  0.00  0.00    -0.080 SA
BRANCH  10  11
ATOM     11  C   UNL d   1      15.044  14.368  -0.432  0.00  0.00     0.049 A 
ATOM     12  C   UNL d   1      15.788  14.088  -0.222  0.00  0.00     0.087 A 
ATOM     13  N   UNL d   1      16.316  14.721  -0.235  0.00  0.00    -0.245 NA
ATOM     14  C   UNL d   1      15.966  13.307  -0.031  0.00  0.00     0.021 C 
ATOM     15  C   UNL d   1      15.884  15.397  -0.458  0.00  0.00     0.082 A 
ATOM     16  C   UNL d   1      15.100  15.173  -0.578  0.00  0.00     0.025 A 
ATOM     17  C   UNL d   1      16.113  16.184  -0.564  0.00  0.00     0.019 A 
ATOM     18  C   UNL d   1      14.547  15.736  -0.804  0.00  0.00     0.002 A 
ATOM     19  C   UNL d   1      14.764  16.523  -0.913  0.00  0.00     0.000 A 
ATOM     20  C   UNL d   1      15.559  16.742  -0.789  0.00  0.00     0.002 A 
ENDBRANCH  10  11
ENDBRANCH   9  10
ENDBRANCH   3   9
BRANCH   2  21
ATOM     21  C   UNL d   1      13.325  12.500  -3.637  0.00  0.00     0.064 A 
ATOM     22  C   UNL d   1      13.436  13.176  -4.098  0.00  0.00     0.018 A 
ATOM     23  C   UNL d   1      13.220  13.167  -4.904  0.00  0.00     0.002 A 
ATOM     24  C   UNL d   1      12.895  12.481  -5.235  0.00  0.00     0.000 A 
ATOM     25  C   UNL d   1      12.785  11.809  -4.772  0.00  0.00     0.002 A 
ATOM     26  C   UNL d   1      12.998  11.820  -3.980  0.00  0.00     0.018 A 
ENDBRANCH   2  21
TORSDOF 4
ENDMDL
