MODEL 1
REMARK VINA RESULT:      -2.9      0.000      0.000
REMARK  4 active torsions:
REMARK  status: ('A' for Active; 'I' for Inactive)
REMARK    1  A    between atoms: N_3  and  C_1 
REMARK       I    between atoms: C_7  and  N_3 
REMARK    2  A    between atoms: C_15  and  C_7 
REMARK    3  A    between atoms: C_10  and  S_11 
REMARK    4  A    between atoms: S_11  and  C_15 
ROOT
ATOM      1  C   UNL d   1      33.183  19.480 -23.150  0.00  0.00     0.182 A 
ATOM      2  N   UNL d   1      33.058  19.179 -23.910  0.00  0.00    -0.283 N 
ATOM      3  S   UNL d   1      33.240  18.837 -22.628  0.00  0.00    -0.048 SA
ATOM      4  C   UNL d   1      33.149  18.141 -23.072  0.00  0.00     0.051 A 
ATOM      5  C   UNL d   1      33.037  18.352 -23.862  0.00  0.00     0.072 A 
ATOM      6  C   UNL d   1      33.157  17.344 -22.846  0.00  0.00     0.038 A 
ATOM      7  C   UNL d   1      32.933  17.766 -24.426  0.00  0.00     0.020 A 
ATOM      8  C   UNL d   1      33.050  16.771 -23.423  0.00  0.00     0.141 A 
ATOM      9  C   UNL d   1      32.938  16.982 -24.214  0.00  0.00     0.031 A 
ATOM     10  C   UNL d   1      32.971  19.627 -24.589  0.00  0.00     0.101 C 
ATOM     11  F   UNL d   1      33.055  15.969 -23.211  0.00  0.00    -0.204 F 
ENDROOT
BRANCH   1  12
ATOM     12  N   UNL d   1      33.241  20.278 -22.946  0.00  0.00    -0.183 NA
ATOM     13  C   UNL d   1      33.014  20.310 -22.149  0.00  0.00     0.288 C 
ATOM     14  O   UNL d   1      32.797  19.615 -21.753  0.00  0.00    -0.265 OA
BRANCH  13  15
ATOM     15  C   UNL d   1      33.003  21.024 -21.748  0.00  0.00     0.101 C 
BRANCH  15  16
ATOM     16  S   UNL d   1      32.547  21.115 -21.062  0.00  0.00    -0.040 SA
BRANCH  16  17
ATOM     17  C   UNL d   1      32.401  21.874 -20.755  0.00  0.00     0.226 C 
ATOM     18  O   UNL d   1      31.723  22.279 -20.991  0.00  0.00    -0.279 OA
ATOM     19  C   UNL d   1      32.927  22.209 -20.227  0.00  0.00     0.053 C 
ENDBRANCH  16  17
ENDBRANCH  15  16
ENDBRANCH  13  15
ENDBRANCH   1  12
TORSDOF 4
ENDMDL
MODEL 2
REMARK VINA RESULT:      -2.6      2.054      4.212
REMARK  4 active torsions:
REMARK  status: ('A' for Active; 'I' for Inactive)
REMARK    1  A    between atoms: N_3  and  C_1 
REMARK       I    between atoms: C_7  and  N_3 
REMARK    2  A    between atoms: C_15  and  C_7 
REMARK    3  A    between atoms: C_10  and  S_11 
REMARK    4  A    between atoms: S_11  and  C_15 
ROOT
ATOM      1  C   UNL d   1      33.239  19.089 -23.241  0.00  0.00     0.182 A 
ATOM      2  N   UNL d   1      33.239  19.906 -23.367  0.00  0.00    -0.283 N 
ATOM      3  S   UNL d   1      33.236  18.959 -22.421  0.00  0.00    -0.048 SA
ATOM      4  C   UNL d   1      33.234  19.700 -22.046  0.00  0.00     0.051 A 
ATOM      5  C   UNL d   1      33.236  20.284 -22.630  0.00  0.00     0.072 A 
ATOM      6  C   UNL d   1      33.232  19.906 -21.244  0.00  0.00     0.038 A 
ATOM      7  C   UNL d   1      33.235  21.074 -22.411  0.00  0.00     0.020 A 
ATOM      8  C   UNL d   1      33.230  20.702 -21.043  0.00  0.00     0.141 A 
ATOM      9  C   UNL d   1      33.232  21.286 -21.627  0.00  0.00     0.031 A 
ATOM     10  C   UNL d   1      33.241  20.272 -24.099  0.00  0.00     0.101 C 
ATOM     11  F   UNL d   1      33.228  20.923 -20.243  0.00  0.00    -0.204 F 
ENDROOT
BRANCH   1  12
ATOM     12  N   UNL d   1      33.241  18.505 -23.825  0.00  0.00    -0.183 NA
ATOM     13  C   UNL d   1      32.645  17.976 -23.598  0.00  0.00     0.288 C 
ATOM     14  O   UNL d   1      32.208  18.115 -22.908  0.00  0.00    -0.265 OA
BRANCH  13  15
ATOM     15  C   UNL d   1      32.483  17.313 -24.052  0.00  0.00     0.101 C 
BRANCH  15  16
ATOM     16  S   UNL d   1      31.838  16.825 -23.869  0.00  0.00    -0.040 SA
BRANCH  16  17
ATOM     17  C   UNL d   1      31.660  16.172 -24.352  0.00  0.00     0.226 C 
ATOM     18  O   UNL d   1      31.095  16.255 -24.947  0.00  0.00    -0.279 OA
ATOM     19  C   UNL d   1      32.043  15.460 -24.233  0.00  0.00     0.053 C 
ENDBRANCH  16  17
ENDBRANCH  15  16
ENDBRANCH  13  15
ENDBRANCH   1  12
TORSDOF 4
ENDMDL
MODEL 3
REMARK VINA RESULT:      -2.1      2.717      3.930
REMARK  4 active torsions:
REMARK  status: ('A' for Active; 'I' for Inactive)
REMARK    1  A    between atoms: N_3  and  C_1 
REMARK       I    between atoms: C_7  and  N_3 
REMARK    2  A    between atoms: C_15  and  C_7 
REMARK    3  A    between atoms: C_10  and  S_11 
REMARK    4  A    between atoms: S_11  and  C_15 
ROOT
ATOM      1  C   UNL d   1      32.858  22.387 -20.404  0.00  0.00     0.182 A 
ATOM      2  N   UNL d   1      32.779  22.395 -21.226  0.00  0.00    -0.283 N 
ATOM      3  S   UNL d   1      32.993  21.602 -20.170  0.00  0.00    -0.048 SA
ATOM      4  C   UNL d   1      32.996  21.130 -20.853  0.00  0.00     0.051 A 
ATOM      5  C   UNL d   1      32.864  21.619 -21.505  0.00  0.00     0.072 A 
ATOM      6  C   UNL d   1      33.103  20.315 -20.953  0.00  0.00     0.038 A 
ATOM      7  C   UNL d   1      32.839  21.294 -22.256  0.00  0.00     0.020 A 
ATOM      8  C   UNL d   1      33.075  20.005 -21.713  0.00  0.00     0.141 A 
ATOM      9  C   UNL d   1      32.943  20.495 -22.365  0.00  0.00     0.031 A 
ATOM     10  C   UNL d   1      32.640  23.060 -21.682  0.00  0.00     0.101 C 
ATOM     11  F   UNL d   1      33.181  19.190 -21.829  0.00  0.00    -0.204 F 
ENDROOT
BRANCH   1  12
ATOM     12  N   UNL d   1      32.812  23.042 -19.902  0.00  0.00    -0.183 NA
ATOM     13  C   UNL d   1      32.858  22.727 -19.137  0.00  0.00     0.288 C 
ATOM     14  O   UNL d   1      32.933  21.908 -19.030  0.00  0.00    -0.265 OA
BRANCH  13  15
ATOM     15  C   UNL d   1      32.829  23.219 -18.483  0.00  0.00     0.101 C 
BRANCH  15  16
ATOM     16  S   UNL d   1      32.702  22.906 -17.726  0.00  0.00    -0.040 SA
BRANCH  16  17
ATOM     17  C   UNL d   1      32.593  23.415 -17.077  0.00  0.00     0.226 C 
ATOM     18  O   UNL d   1      31.828  23.631 -16.859  0.00  0.00    -0.279 OA
ATOM     19  C   UNL d   1      33.241  23.695 -16.666  0.00  0.00     0.053 C 
ENDBRANCH  16  17
ENDBRANCH  15  16
ENDBRANCH  13  15
ENDBRANCH   1  12
TORSDOF 4
ENDMDL
