MODEL 1
REMARK VINA RESULT:      -9.4      0.000      0.000
REMARK  2 active torsions:
REMARK  status: ('A' for Active; 'I' for Inactive)
REMARK    1  A    between atoms: N_2  and  S_1 
REMARK    2  A    between atoms: C_3  and  S_1 
ROOT
ATOM      1  S   UNL d   1      53.449  32.625  54.030  0.00  0.00     0.287 S 
ATOM      2  O   UNL d   1      52.795  32.192  54.285  0.00  0.00    -0.198 OA
ATOM      3  O   UNL d   1      53.982  32.284  53.483  0.00  0.00    -0.198 OA
ENDROOT
BRANCH   1   4
ATOM      4  N   UNL d   1      53.581  33.399  54.314  0.00  0.00    -0.152 N 
ATOM      5  N   UNL d   1      53.124  34.035  54.022  0.00  0.00    -0.155 NA
ATOM      6  C   UNL d   1      53.256  34.810  54.307  0.00  0.00     0.104 A 
ATOM      7  C   UNL d   1      52.915  35.567  54.147  0.00  0.00     0.022 C 
ATOM      8  C   UNL d   1      54.292  34.317  55.169  0.00  0.00     0.041 A 
ATOM      9  C   UNL d   1      54.160  33.542  54.884  0.00  0.00     0.096 A 
ATOM     10  C   UNL d   1      54.617  32.906  55.176  0.00  0.00     0.022 C 
ENDBRANCH   1   4
BRANCH   1  11
ATOM     11  C   UNL d   1      53.257  31.500  53.617  0.00  0.00     0.117 A 
ATOM     12  C   UNL d   1      53.522  30.870  53.981  0.00  0.00     0.025 A 
ATOM     13  C   UNL d   1      53.379  30.160  53.686  0.00  0.00     0.059 A 
ATOM     14 CL   UNL d   1      53.665  29.475  54.081  0.00  0.00    -0.082 Cl
ATOM     15  C   UNL d   1      52.972  30.098  53.027  0.00  0.00     0.012 A 
ATOM     16  C   UNL d   1      52.707  30.729  52.660  0.00  0.00     0.013 A 
ATOM     17  C   UNL d   1      52.851  31.435  52.958  0.00  0.00     0.070 A 
ATOM     18 CL   UNL d   1      52.567  32.115  52.567  0.00  0.00    -0.082 Cl
ENDBRANCH   1  11
TORSDOF 2
ENDMDL
MODEL 2
REMARK VINA RESULT:      -9.1      1.517      3.800
REMARK  2 active torsions:
REMARK  status: ('A' for Active; 'I' for Inactive)
REMARK    1  A    between atoms: N_2  and  S_1 
REMARK    2  A    between atoms: C_3  and  S_1 
ROOT
ATOM      1  S   UNL d   1      53.328  32.018  53.898  0.00  0.00     0.287 S 
ATOM      2  O   UNL d   1      52.773  32.404  54.371  0.00  0.00    -0.198 OA
ATOM      3  O   UNL d   1      54.002  32.434  53.630  0.00  0.00    -0.198 OA
ENDROOT
BRANCH   1   4
ATOM      4  N   UNL d   1      53.221  31.217  53.688  0.00  0.00    -0.152 N 
ATOM      5  N   UNL d   1      53.479  30.612  54.204  0.00  0.00    -0.155 NA
ATOM      6  C   UNL d   1      53.372  29.810  53.993  0.00  0.00     0.104 A 
ATOM      7  C   UNL d   1      53.555  29.070  54.360  0.00  0.00     0.022 C 
ATOM      8  C   UNL d   1      52.754  30.215  52.763  0.00  0.00     0.041 A 
ATOM      9  C   UNL d   1      52.861  31.017  52.973  0.00  0.00     0.096 A 
ATOM     10  C   UNL d   1      52.603  31.622  52.458  0.00  0.00     0.022 C 
ENDBRANCH   1   4
BRANCH   1  11
ATOM     11  C   UNL d   1      53.484  33.183  54.204  0.00  0.00     0.117 A 
ATOM     12  C   UNL d   1      53.152  33.765  53.815  0.00  0.00     0.025 A 
ATOM     13  C   UNL d   1      53.275  34.503  54.040  0.00  0.00     0.059 A 
ATOM     14 CL   UNL d   1      52.916  35.136  53.619  0.00  0.00    -0.082 Cl
ATOM     15  C   UNL d   1      53.730  34.642  54.655  0.00  0.00     0.012 A 
ATOM     16  C   UNL d   1      54.063  34.059  55.045  0.00  0.00     0.013 A 
ATOM     17  C   UNL d   1      53.939  33.324  54.817  0.00  0.00     0.070 A 
ATOM     18 CL   UNL d   1      54.295  32.695  55.234  0.00  0.00    -0.082 Cl
ENDBRANCH   1  11
TORSDOF 2
ENDMDL
MODEL 3
REMARK VINA RESULT:      -7.9      2.211      3.356
REMARK  2 active torsions:
REMARK  status: ('A' for Active; 'I' for Inactive)
REMARK    1  A    between atoms: N_2  and  S_1 
REMARK    2  A    between atoms: C_3  and  S_1 
ROOT
ATOM      1  S   UNL d   1      52.554  33.417  53.354  0.00  0.00     0.287 S 
ATOM      2  O   UNL d   1      51.901  32.930  53.224  0.00  0.00    -0.198 OA
ATOM      3  O   UNL d   1      52.521  34.220  53.123  0.00  0.00    -0.198 OA
ENDROOT
BRANCH   1   4
ATOM      4  N   UNL d   1      53.243  33.114  53.714  0.00  0.00    -0.152 N 
ATOM      5  N   UNL d   1      53.641  33.561  54.298  0.00  0.00    -0.155 NA
ATOM      6  C   UNL d   1      54.332  33.257  54.658  0.00  0.00     0.104 A 
ATOM      7  C   UNL d   1      54.866  33.539  55.250  0.00  0.00     0.022 C 
ATOM      8  C   UNL d   1      54.228  32.070  53.858  0.00  0.00     0.041 A 
ATOM      9  C   UNL d   1      53.537  32.374  53.498  0.00  0.00     0.096 A 
ATOM     10  C   UNL d   1      53.139  31.927  52.914  0.00  0.00     0.022 C 
ENDBRANCH   1   4
BRANCH   1  11
ATOM     11  C   UNL d   1      51.551  33.858  52.831  0.00  0.00     0.117 A 
ATOM     12  C   UNL d   1      51.487  33.954  52.065  0.00  0.00     0.025 A 
ATOM     13  C   UNL d   1      50.825  34.240  51.762  0.00  0.00     0.059 A 
ATOM     14 CL   UNL d   1      50.754  34.345  50.931  0.00  0.00    -0.082 Cl
ATOM     15  C   UNL d   1      50.239  34.426  52.238  0.00  0.00     0.012 A 
ATOM     16  C   UNL d   1      50.303  34.331  53.006  0.00  0.00     0.013 A 
ATOM     17  C   UNL d   1      50.964  34.044  53.304  0.00  0.00     0.070 A 
ATOM     18 CL   UNL d   1      51.036  33.940  54.129  0.00  0.00    -0.082 Cl
ENDBRANCH   1  11
TORSDOF 2
ENDMDL
MODEL 4
REMARK VINA RESULT:      -7.6      2.409      3.445
REMARK  2 active torsions:
REMARK  status: ('A' for Active; 'I' for Inactive)
REMARK    1  A    between atoms: N_2  and  S_1 
REMARK    2  A    between atoms: C_3  and  S_1 
ROOT
ATOM      1  S   UNL d   1      51.985  34.149  53.413  0.00  0.00     0.287 S 
ATOM      2  O   UNL d   1      52.697  34.519  53.224  0.00  0.00    -0.198 OA
ATOM      3  O   UNL d   1      51.963  33.587  54.032  0.00  0.00    -0.198 OA
ENDROOT
BRANCH   1   4
ATOM      4  N   UNL d   1      51.288  34.333  52.992  0.00  0.00    -0.152 N 
ATOM      5  N   UNL d   1      50.631  34.659  53.393  0.00  0.00    -0.155 NA
ATOM      6  C   UNL d   1      49.933  34.843  52.971  0.00  0.00     0.104 A 
ATOM      7  C   UNL d   1      49.181  35.169  53.180  0.00  0.00     0.022 C 
ATOM      8  C   UNL d   1      50.543  34.378  51.758  0.00  0.00     0.041 A 
ATOM      9  C   UNL d   1      51.241  34.194  52.180  0.00  0.00     0.096 A 
ATOM     10  C   UNL d   1      51.898  33.868  51.779  0.00  0.00     0.022 C 
ENDBRANCH   1   4
BRANCH   1  11
ATOM     11  C   UNL d   1      52.998  33.882  54.026  0.00  0.00     0.117 A 
ATOM     12  C   UNL d   1      53.396  33.228  53.910  0.00  0.00     0.025 A 
ATOM     13  C   UNL d   1      54.046  33.089  54.323  0.00  0.00     0.059 A 
ATOM     14 CL   UNL d   1      54.479  32.380  54.199  0.00  0.00    -0.082 Cl
ATOM     15  C   UNL d   1      54.282  33.613  54.847  0.00  0.00     0.012 A 
ATOM     16  C   UNL d   1      53.883  34.269  54.963  0.00  0.00     0.013 A 
ATOM     17  C   UNL d   1      53.236  34.404  54.549  0.00  0.00     0.070 A 
ATOM     18 CL   UNL d   1      52.806  35.108  54.672  0.00  0.00    -0.082 Cl
ENDBRANCH   1  11
TORSDOF 2
ENDMDL
