MODEL 1
REMARK VINA RESULT:      88.8      0.000      0.000
REMARK  8 active torsions:
REMARK  status: ('A' for Active; 'I' for Inactive)
REMARK    1  A    between atoms: N_5  and  S_1 
REMARK    2  A    between atoms: C_8  and  S_1 
REMARK    3  A    between atoms: C_2  and  N_10 
REMARK    4  A    between atoms: C_9  and  N_5 
REMARK    5  A    between atoms: C_13  and  C_9 
REMARK    6  A    between atoms: N_10  and  O_14 
REMARK    7  A    between atoms: C_17  and  C_13 
REMARK    8  A    between atoms: O_14  and  C_17 
ROOT
ATOM      1  C   UNL d   1      60.489  48.994  51.161  0.00  0.00     0.193 C 
ENDROOT
BRANCH   1   2
ATOM      2  O   UNL d   1      59.729  49.005  51.485  0.00  0.00    -0.206 OA
BRANCH   2   3
ATOM      3  N   UNL d   1      59.282  49.706  51.470  0.00  0.00    -0.126 NA
BRANCH   3   4
ATOM      4  C   UNL d   1      58.525  49.706  51.139  0.00  0.00     0.108 A 
ATOM      5  C   UNL d   1      58.344  49.706  50.328  0.00  0.00     0.020 A 
ATOM      6  C   UNL d   1      57.523  49.707  50.257  0.00  0.00     0.002 A 
ATOM      7  C   UNL d   1      58.824  49.706  49.667  0.00  0.00     0.002 A 
ATOM      8  C   UNL d   1      57.180  49.707  49.501  0.00  0.00     0.000 A 
ATOM      9  C   UNL d   1      57.192  49.707  51.005  0.00  0.00     0.002 A 
ATOM     10  C   UNL d   1      57.661  49.707  48.834  0.00  0.00     0.000 A 
ATOM     11  C   UNL d   1      58.488  49.707  48.913  0.00  0.00     0.000 A 
ATOM     12  C   UNL d   1      57.808  49.707  51.556  0.00  0.00     0.020 A 
ATOM     13  C   UNL d   1      56.413  49.708  51.264  0.00  0.00     0.000 A 
ATOM     14  C   UNL d   1      57.647  49.707  52.363  0.00  0.00     0.002 A 
ATOM     15  C   UNL d   1      56.858  49.707  52.623  0.00  0.00     0.000 A 
ATOM     16  C   UNL d   1      56.245  49.708  52.069  0.00  0.00     0.000 A 
ENDBRANCH   3   4
ENDBRANCH   2   3
ENDBRANCH   1   2
BRANCH   1  17
ATOM     17  C   UNL d   1      60.751  48.332  50.751  0.00  0.00     0.240 C 
ATOM     18  O   UNL d   1      61.380  48.397  50.220  0.00  0.00    -0.283 OA
BRANCH  17  19
ATOM     19  C   UNL d   1      60.747  47.530  50.537  0.00  0.00     0.136 C 
BRANCH  19  20
ATOM     20  N   UNL d   1      61.248  47.274  49.928  0.00  0.00    -0.225 N 
ATOM     21  C   UNL d   1      61.709  47.684  49.386  0.00  0.00     0.111 C 
BRANCH  20  22
ATOM     22  S   UNL d   1      61.347  46.465  49.787  0.00  0.00     0.272 S 
ATOM     23  O   UNL d   1      61.198  46.757  49.022  0.00  0.00    -0.200 OA
ATOM     24  O   UNL d   1      61.507  45.990  50.440  0.00  0.00    -0.200 OA
BRANCH  22  25
ATOM     25  C   UNL d   1      61.481  45.660  49.904  0.00  0.00     0.104 A 
ATOM     26  C   UNL d   1      61.987  45.250  49.397  0.00  0.00     0.013 A 
ATOM     27  C   UNL d   1      62.121  44.448  49.513  0.00  0.00     0.007 A 
ATOM     28  C   UNL d   1      61.747  44.050  50.139  0.00  0.00     0.035 A 
ATOM     29  C   UNL d   1      61.246  44.509  50.621  0.00  0.00     0.007 A 
ATOM     30 BR   UNL d   1      61.866  43.247  50.275  0.00  0.00    -0.049 Br
ATOM     31  C   UNL d   1      61.088  45.313  50.536  0.00  0.00     0.013 A 
ENDBRANCH  22  25
ENDBRANCH  20  22
ENDBRANCH  19  20
ENDBRANCH  17  19
ENDBRANCH   1  17
TORSDOF 8
ENDMDL
