MODEL 1
REMARK VINA RESULT:      46.0      0.000      0.000
REMARK  7 active torsions:
REMARK  status: ('A' for Active; 'I' for Inactive)
REMARK    1  A    between atoms: C_23  and  C_3 
REMARK    2  A    between atoms: S_18  and  C_5 
REMARK    3  A    between atoms: C_11  and  C_16 
REMARK       I    between atoms: N_14  and  C_11 
REMARK    4  A    between atoms: C_17  and  N_14 
REMARK    5  A    between atoms: C_16  and  C_21 
REMARK    6  A    between atoms: C_21  and  S_18 
REMARK    7  A    between atoms: O_24  and  C_22 
ROOT
ATOM      1  C   UNL d   1     -43.128-122.970 -49.916  0.00  0.00     0.092 A 
ATOM      2  C   UNL d   1     -42.270-122.920 -51.052  0.00  0.00     0.057 A 
ATOM      3  C   UNL d   1     -42.460-123.236 -50.315  0.00  0.00     0.016 A 
ATOM      4  N   UNL d   1     -43.418-122.073 -50.987  0.00  0.00    -0.239 NA
ATOM      5  C   UNL d   1     -43.608-122.389 -50.252  0.00  0.00     0.120 A 
ATOM      6  C   UNL d   1     -42.749-122.338 -51.388  0.00  0.00     0.081 A 
ATOM      7  C   UNL d   1     -41.601-123.185 -51.451  0.00  0.00     0.193 A 
ATOM      8  C   UNL d   1     -43.323-123.290 -49.167  0.00  0.00     0.103 C 
ATOM      9  N   UNL d   1     -43.508-123.615 -48.423  0.00  0.00    -0.191 NA
ATOM     10  C   UNL d   1     -41.886-122.287 -52.531  0.00  0.00     0.042 A 
ATOM     11  C   UNL d   1     -41.407-122.869 -52.195  0.00  0.00     0.019 A 
ATOM     12  C   UNL d   1     -42.560-122.023 -52.124  0.00  0.00    -0.003 A 
ATOM     13  O   UNL d   1     -41.123-123.766 -51.116  0.00  0.00    -0.287 OA
ATOM     14  C   UNL d   1     -42.173-121.726 -53.072  0.00  0.00     0.009 C 
ATOM     15  C   UNL d   1     -41.220-122.547 -52.938  0.00  0.00     0.009 C 
ENDROOT
BRANCH   3  16
ATOM     16  C   UNL d   1     -41.981-123.817 -49.979  0.00  0.00     0.001 C 
ATOM     17  C   UNL d   1     -41.161-123.744 -50.009  0.00  0.00     0.000 C 
ENDBRANCH   3  16
BRANCH   5  18
ATOM     18  S   UNL d   1     -44.284-122.124 -49.841  0.00  0.00    -0.067 SA
BRANCH  18  19
ATOM     19  C   UNL d   1     -44.732-121.499 -50.141  0.00  0.00     0.042 C 
BRANCH  19  20
ATOM     20  C   UNL d   1     -45.450-121.300 -49.784  0.00  0.00     0.070 C 
BRANCH  20  21
ATOM     21  C   UNL d   1     -45.702-120.502 -49.779  0.00  0.00     0.280 C 
ATOM     22  N   UNL d   1     -46.141-120.221 -49.141  0.00  0.00    -0.208 NA
ATOM     23  O   UNL d   1     -45.507-120.008 -50.410  0.00  0.00    -0.265 OA
BRANCH  22  24
ATOM     24  C   UNL d   1     -46.395-119.420 -49.134  0.00  0.00     0.087 A 
ATOM     25  C   UNL d   1     -46.039-118.886 -48.615  0.00  0.00     0.043 A 
ATOM     26  C   UNL d   1     -46.291-118.101 -48.612  0.00  0.00     0.096 A 
ATOM     27  C   UNL d   1     -46.895-117.840 -49.120  0.00  0.00     0.024 A 
ATOM     28  C   UNL d   1     -47.248-118.378 -49.637  0.00  0.00     0.004 A 
ATOM     29  C   UNL d   1     -47.002-119.170 -49.649  0.00  0.00     0.019 A 
BRANCH  26  30
ATOM     30  O   UNL d   1     -45.935-117.567 -48.093  0.00  0.00    -0.328 OA
ATOM     31  C   UNL d   1     -45.757-116.801 -48.350  0.00  0.00     0.181 C 
ENDBRANCH  26  30
ENDBRANCH  22  24
ENDBRANCH  20  21
ENDBRANCH  19  20
ENDBRANCH  18  19
ENDBRANCH   5  18
TORSDOF 7
ENDMDL
