MODEL 1
REMARK VINA RESULT:      54.8      0.000      0.000
REMARK  9 active torsions:
REMARK  status: ('A' for Active; 'I' for Inactive)
REMARK    1  A    between atoms: C_12  and  N_1 
REMARK    2  A    between atoms: C_13  and  N_2 
REMARK    3  A    between atoms: O_9  and  C_23 
REMARK    4  A    between atoms: C_10  and  O_9 
REMARK    5  A    between atoms: C_11  and  C_12 
REMARK    6  A    between atoms: C_18  and  C_13 
REMARK    7  A    between atoms: C_26  and  C_15 
REMARK    8  A    between atoms: C_16  and  C_26 
REMARK    9  A    between atoms: C_23  and  C_18 
ROOT
ATOM      1  N   UNL d   1      14.957  17.396  -5.131  0.00  0.00    -0.300 N 
ATOM      2  N   UNL d   1      14.341  16.328  -4.014  0.00  0.00    -0.297 N 
ATOM      3  C   UNL d   1      15.138  17.466  -4.351  0.00  0.00     0.100 A 
ATOM      4  C   UNL d   1      14.145  16.241  -4.805  0.00  0.00     0.100 A 
ATOM      5  C   UNL d   1      14.844  16.946  -3.778  0.00  0.00     0.100 A 
ATOM      6  C   UNL d   1      14.453  16.775  -5.364  0.00  0.00     0.100 A 
ENDROOT
BRANCH   2   7
ATOM      7  C   UNL d   1      14.048  15.815  -3.462  0.00  0.00     0.125 C 
BRANCH   7   8
ATOM      8  C   UNL d   1      14.430  15.130  -3.264  0.00  0.00     0.238 C 
ATOM      9  O   UNL d   1      15.059  15.182  -2.722  0.00  0.00    -0.283 OA
BRANCH   8  10
ATOM     10  C   UNL d   1      14.211  14.428  -3.578  0.00  0.00     0.166 C 
BRANCH  10  11
ATOM     11  O   UNL d   1      14.185  13.748  -3.105  0.00  0.00    -0.302 OA
BRANCH  11  12
ATOM     12  C   UNL d   1      13.747  13.105  -3.334  0.00  0.00     0.100 A 
ATOM     13  C   UNL d   1      13.631  12.473  -2.826  0.00  0.00     0.023 A 
ATOM     14  C   UNL d   1      13.188  11.815  -3.047  0.00  0.00     0.002 A 
ATOM     15  C   UNL d   1      12.848  11.784  -3.803  0.00  0.00     0.000 A 
ATOM     16  C   UNL d   1      12.959  12.422  -4.333  0.00  0.00     0.002 A 
ATOM     17  C   UNL d   1      13.414  13.084  -4.086  0.00  0.00     0.025 A 
BRANCH  13  18
ATOM     18  C   UNL d   1      13.962  12.500  -2.084  0.00  0.00     0.002 C 
BRANCH  18  19
ATOM     19  C   UNL d   1      13.787  11.921  -1.537  0.00  0.00     0.000 C 
ATOM     20  C   UNL d   1      14.280  11.802  -0.880  0.00  0.00     0.000 C 
ENDBRANCH  18  19
ENDBRANCH  13  18
ENDBRANCH  11  12
ENDBRANCH  10  11
ENDBRANCH   8  10
ENDBRANCH   7   8
ENDBRANCH   2   7
BRANCH   1  21
ATOM     21  C   UNL d   1      15.256  17.915  -5.673  0.00  0.00     0.080 C 
BRANCH  21  22
ATOM     22  C   UNL d   1      14.863  18.615  -5.799  0.00  0.00     0.020 A 
ATOM     23  C   UNL d   1      15.214  19.316  -5.588  0.00  0.00     0.028 A 
ATOM     24  C   UNL d   1      14.791  20.016  -5.727  0.00  0.00     0.119 A 
ATOM     25  O   UNL d   1      15.028  20.786  -5.563  0.00  0.00    -0.300 OA
ATOM     26  C   UNL d   1      14.052  20.003  -6.063  0.00  0.00     0.119 A 
ATOM     27  C   UNL d   1      14.403  21.301  -5.807  0.00  0.00     0.304 A 
ATOM     28  O   UNL d   1      13.803  20.798  -6.116  0.00  0.00    -0.300 OA
ATOM     29  C   UNL d   1      13.694  19.289  -6.278  0.00  0.00     0.026 A 
ATOM     30  C   UNL d   1      14.110  18.590  -6.142  0.00  0.00     0.004 A 
ENDBRANCH  21  22
ENDBRANCH   1  21
TORSDOF 9
ENDMDL
MODEL 2
REMARK VINA RESULT:      55.8      1.251      2.051
REMARK  9 active torsions:
REMARK  status: ('A' for Active; 'I' for Inactive)
REMARK    1  A    between atoms: C_12  and  N_1 
REMARK    2  A    between atoms: C_13  and  N_2 
REMARK    3  A    between atoms: O_9  and  C_23 
REMARK    4  A    between atoms: C_10  and  O_9 
REMARK    5  A    between atoms: C_11  and  C_12 
REMARK    6  A    between atoms: C_18  and  C_13 
REMARK    7  A    between atoms: C_26  and  C_15 
REMARK    8  A    between atoms: C_16  and  C_26 
REMARK    9  A    between atoms: C_23  and  C_18 
ROOT
ATOM      1  N   UNL d   1      14.447  16.274  -5.257  0.00  0.00    -0.300 N 
ATOM      2  N   UNL d   1      14.064  15.297  -3.966  0.00  0.00    -0.297 N 
ATOM      3  C   UNL d   1      13.891  15.698  -5.327  0.00  0.00     0.100 A 
ATOM      4  C   UNL d   1      14.634  15.879  -3.875  0.00  0.00     0.100 A 
ATOM      5  C   UNL d   1      13.684  15.200  -4.699  0.00  0.00     0.100 A 
ATOM      6  C   UNL d   1      14.825  16.368  -4.521  0.00  0.00     0.100 A 
ENDROOT
BRANCH   2   7
ATOM      7  C   UNL d   1      13.870  14.817  -3.345  0.00  0.00     0.125 C 
BRANCH   7   8
ATOM      8  C   UNL d   1      13.645  14.047  -3.450  0.00  0.00     0.238 C 
ATOM      9  O   UNL d   1      13.093  13.885  -4.053  0.00  0.00    -0.283 OA
BRANCH   8  10
ATOM     10  C   UNL d   1      13.939  13.462  -2.992  0.00  0.00     0.166 C 
BRANCH  10  11
ATOM     11  O   UNL d   1      14.298  13.639  -2.266  0.00  0.00    -0.302 OA
BRANCH  11  12
ATOM     12  C   UNL d   1      14.331  13.082  -1.677  0.00  0.00     0.100 A 
ATOM     13  C   UNL d   1      14.748  13.223  -0.988  0.00  0.00     0.023 A 
ATOM     14  C   UNL d   1      14.788  12.664  -0.383  0.00  0.00     0.002 A 
ATOM     15  C   UNL d   1      14.397  11.938  -0.469  0.00  0.00     0.000 A 
ATOM     16  C   UNL d   1      13.966  11.780  -1.169  0.00  0.00     0.002 A 
ATOM     17  C   UNL d   1      13.939  12.364  -1.772  0.00  0.00     0.025 A 
BRANCH  13  18
ATOM     18  C   UNL d   1      15.133  13.933  -0.900  0.00  0.00     0.002 C 
BRANCH  18  19
ATOM     19  C   UNL d   1      15.048  14.363  -0.213  0.00  0.00     0.000 C 
ATOM     20  C   UNL d   1      15.158  15.185  -0.215  0.00  0.00     0.000 C 
ENDBRANCH  18  19
ENDBRANCH  13  18
ENDBRANCH  11  12
ENDBRANCH  10  11
ENDBRANCH   8  10
ENDBRANCH   7   8
ENDBRANCH   2   7
BRANCH   1  21
ATOM     21  C   UNL d   1      14.633  16.748  -5.885  0.00  0.00     0.080 C 
BRANCH  21  22
ATOM     22  C   UNL d   1      14.185  17.414  -6.014  0.00  0.00     0.020 A 
ATOM     23  C   UNL d   1      14.517  18.148  -5.909  0.00  0.00     0.028 A 
ATOM     24  C   UNL d   1      14.038  18.810  -6.048  0.00  0.00     0.119 A 
ATOM     25  O   UNL d   1      14.246  19.603  -5.979  0.00  0.00    -0.300 OA
ATOM     26  C   UNL d   1      13.264  18.731  -6.281  0.00  0.00     0.119 A 
ATOM     27  C   UNL d   1      13.565  20.063  -6.180  0.00  0.00     0.304 A 
ATOM     28  O   UNL d   1      12.963  19.505  -6.365  0.00  0.00    -0.300 OA
ATOM     29  C   UNL d   1      12.926  17.984  -6.388  0.00  0.00     0.026 A 
ATOM     30  C   UNL d   1      13.397  17.321  -6.252  0.00  0.00     0.004 A 
ENDBRANCH  21  22
ENDBRANCH   1  21
TORSDOF 9
ENDMDL
