MODEL 1
REMARK VINA RESULT:      43.7      0.000      0.000
REMARK  5 active torsions:
REMARK  status: ('A' for Active; 'I' for Inactive)
REMARK    1  A    between atoms: N_2  and  S_1 
REMARK    2  A    between atoms: C_4  and  S_1 
REMARK    3  A    between atoms: C_3  and  N_2 
REMARK    4  A    between atoms: N_7  and  C_3 
REMARK    5  A    between atoms: C_15  and  N_7 
ROOT
ATOM      1  S   UNL d   1     -50.685  25.853  33.323  0.00  0.00     0.287 S 
ATOM      2  O   UNL d   1     -51.265  26.452  33.338  0.00  0.00    -0.198 OA
ATOM      3  O   UNL d   1     -50.112  25.260  33.309  0.00  0.00    -0.198 OA
ENDROOT
BRANCH   1   4
ATOM      4  N   UNL d   1     -50.090  26.430  33.327  0.00  0.00    -0.128 NA
BRANCH   4   5
ATOM      5  C   UNL d   1     -49.831  27.175  33.560  0.00  0.00     0.232 C 
ATOM      6  S   UNL d   1     -50.338  27.824  33.507  0.00  0.00    -0.036 SA
BRANCH   5   7
ATOM      7  N   UNL d   1     -49.065  27.272  33.847  0.00  0.00    -0.217 NA
BRANCH   7   8
ATOM      8  C   UNL d   1     -48.848  27.987  34.197  0.00  0.00     0.084 A 
ATOM      9  C   UNL d   1     -48.383  27.983  34.877  0.00  0.00     0.019 A 
ATOM     10  C   UNL d   1     -48.165  28.695  35.228  0.00  0.00     0.002 A 
ATOM     11  C   UNL d   1     -48.410  29.407  34.902  0.00  0.00     0.000 A 
ATOM     12  C   UNL d   1     -48.875  29.411  34.223  0.00  0.00     0.002 A 
ATOM     13  C   UNL d   1     -49.095  28.703  33.869  0.00  0.00     0.019 A 
ENDBRANCH   7   8
ENDBRANCH   5   7
ENDBRANCH   4   5
ENDBRANCH   1   4
BRANCH   1  14
ATOM     14  C   UNL d   1     -51.286  25.274  33.319  0.00  0.00     0.105 A 
ATOM     15  C   UNL d   1     -52.076  25.509  33.325  0.00  0.00     0.013 A 
ATOM     16  C   UNL d   1     -52.682  24.935  33.322  0.00  0.00     0.007 A 
ATOM     17  C   UNL d   1     -52.486  24.125  33.312  0.00  0.00     0.035 A 
ATOM     18  C   UNL d   1     -51.689  23.896  33.306  0.00  0.00     0.007 A 
ATOM     19 BR   UNL d   1     -53.088  23.560  33.309  0.00  0.00    -0.049 Br
ATOM     20  C   UNL d   1     -51.090  24.463  33.310  0.00  0.00     0.013 A 
ENDBRANCH   1  14
TORSDOF 5
ENDMDL
