MODEL 1
REMARK VINA RESULT:      46.5      0.000      0.000
REMARK  3 active torsions:
REMARK  status: ('A' for Active; 'I' for Inactive)
REMARK    1  A    between atoms: N_12  and  C_6 
REMARK    2  A    between atoms: C_18  and  N_12 
REMARK    3  A    between atoms: C_19  and  C_18 
ROOT
ATOM      1  N   UNL d   1     -54.723-101.028 -42.655  0.00  0.00    -0.175 N 
ATOM      2  C   UNL d   1     -54.728-101.776 -42.926  0.00  0.00     0.167 A 
ATOM      3  N   UNL d   1     -54.722-100.401 -43.191  0.00  0.00    -0.142 NA
ATOM      4  C   UNL d   1     -54.720-100.878 -41.875  0.00  0.00     0.283 A 
ATOM      5  N   UNL d   1     -54.729-102.391 -42.423  0.00  0.00    -0.227 NA
ATOM      6  C   UNL d   1     -54.725-100.540 -44.004  0.00  0.00     0.182 A 
ATOM      7  C   UNL d   1     -54.721-101.505 -41.339  0.00  0.00     0.076 A 
ATOM      8  C   UNL d   1     -54.731-101.914 -43.740  0.00  0.00     0.039 A 
ATOM      9  C   UNL d   1     -54.726-102.253 -41.610  0.00  0.00     0.088 A 
ATOM     10  C   UNL d   1     -54.729-101.287 -44.275  0.00  0.00     0.041 A 
ATOM     11  O   UNL d   1     -54.715-100.096 -41.592  0.00  0.00    -0.265 OA
ATOM     12  C   UNL d   1     -54.718-101.367 -40.525  0.00  0.00     0.006 A 
ATOM     13  C   UNL d   1     -54.736-102.695 -44.023  0.00  0.00     0.003 A 
ATOM     14  C   UNL d   1     -54.733-101.425 -45.089  0.00  0.00     0.003 A 
ATOM     15  C   UNL d   1     -54.727-102.880 -41.073  0.00  0.00     0.019 A 
ATOM     16  C   UNL d   1     -54.720-102.017 -39.998  0.00  0.00     0.000 A 
ATOM     17  C   UNL d   1     -54.739-102.834 -44.835  0.00  0.00     0.000 A 
ATOM     18  C   UNL d   1     -54.737-102.206 -45.372  0.00  0.00     0.000 A 
ATOM     19  C   UNL d   1     -54.724-102.719 -40.252  0.00  0.00     0.002 A 
ENDROOT
BRANCH   6  20
ATOM     20  N   UNL d   1     -54.724 -99.928 -44.585  0.00  0.00    -0.220 NA
BRANCH  20  21
ATOM     21  C   UNL d   1     -55.234 -99.281 -44.511  0.00  0.00     0.146 C 
BRANCH  21  22
ATOM     22  C   UNL d   1     -55.876 -99.191 -44.998  0.00  0.00     0.255 C 
ATOM     23  O   UNL d   1     -56.585 -98.878 -44.680  0.00  0.00    -0.281 OA
ENDBRANCH  21  22
ENDBRANCH  20  21
ENDBRANCH   6  20
TORSDOF 3
ENDMDL
