MODEL 1
REMARK VINA RESULT:      -8.6      0.000      0.000
REMARK  3 active torsions:
REMARK  status: ('A' for Active; 'I' for Inactive)
REMARK    1  A    between atoms: C_3  and  C_1 
REMARK       I    between atoms: N_6  and  C_3 
REMARK    2  A    between atoms: C_12  and  N_5 
REMARK    3  A    between atoms: C_8  and  N_6 
ROOT
ATOM      1  C   UNL d   1      54.322  32.509  53.661  0.00  0.00     0.348 C 
ATOM      2  N   UNL d   1      53.873  31.808  53.657  0.00  0.00    -0.362 NA
ATOM      3  O   UNL d   1      54.983  32.596  53.130  0.00  0.00    -0.249 OA
ENDROOT
BRANCH   1   4
ATOM      4  C   UNL d   1      54.117  33.122  54.190  0.00  0.00     0.173 A 
ATOM      5  N   UNL d   1      53.567  33.729  54.040  0.00  0.00    -0.159 NA
ATOM      6  N   UNL d   1      53.541  34.210  54.720  0.00  0.00    -0.227 N 
ATOM      7  C   UNL d   1      54.065  33.902  55.275  0.00  0.00     0.102 A 
ATOM      8  C   UNL d   1      54.424  33.228  54.951  0.00  0.00     0.048 A 
BRANCH   6   9
ATOM      9  C   UNL d   1      53.068  34.882  54.816  0.00  0.00     0.101 C 
ATOM     10  C   UNL d   1      52.978  35.593  54.408  0.00  0.00     0.022 C 
ENDBRANCH   6   9
ENDBRANCH   1   4
BRANCH   2  11
ATOM     11  C   UNL d   1      53.499  31.074  53.568  0.00  0.00     0.146 A 
ATOM     12  C   UNL d   1      52.854  30.992  53.043  0.00  0.00     0.087 A 
ATOM     13 CL   UNL d   1      52.590  31.653  52.609  0.00  0.00    -0.080 Cl
ATOM     14  C   UNL d   1      52.488  30.274  52.957  0.00  0.00     0.014 A 
ATOM     15  C   UNL d   1      52.755  29.625  53.390  0.00  0.00     0.001 A 
ATOM     16  C   UNL d   1      53.391  29.698  53.911  0.00  0.00     0.003 A 
ATOM     17  C   UNL d   1      53.766  30.427  54.002  0.00  0.00     0.033 A 
ENDBRANCH   2  11
TORSDOF 3
ENDMDL
MODEL 2
REMARK VINA RESULT:      -8.5      1.170      3.912
REMARK  3 active torsions:
REMARK  status: ('A' for Active; 'I' for Inactive)
REMARK    1  A    between atoms: C_3  and  C_1 
REMARK       I    between atoms: N_6  and  C_3 
REMARK    2  A    between atoms: C_12  and  N_5 
REMARK    3  A    between atoms: C_8  and  N_6 
ROOT
ATOM      1  C   UNL d   1      54.019  32.399  53.400  0.00  0.00     0.348 C 
ATOM      2  N   UNL d   1      53.639  33.088  53.673  0.00  0.00    -0.362 NA
ATOM      3  O   UNL d   1      54.845  32.421  53.193  0.00  0.00    -0.249 OA
ENDROOT
BRANCH   1   4
ATOM      4  C   UNL d   1      53.581  31.691  53.334  0.00  0.00     0.173 A 
ATOM      5  N   UNL d   1      53.723  30.989  53.759  0.00  0.00    -0.159 NA
ATOM      6  N   UNL d   1      53.153  30.434  53.515  0.00  0.00    -0.227 N 
ATOM      7  C   UNL d   1      52.670  30.790  52.951  0.00  0.00     0.102 A 
ATOM      8  C   UNL d   1      52.931  31.568  52.836  0.00  0.00     0.048 A 
BRANCH   6   9
ATOM      9  C   UNL d   1      53.086  29.658  53.793  0.00  0.00     0.101 C 
ATOM     10  C   UNL d   1      53.361  29.253  54.457  0.00  0.00     0.022 C 
ENDBRANCH   6   9
ENDBRANCH   1   4
BRANCH   2  11
ATOM     11  C   UNL d   1      53.365  33.826  53.930  0.00  0.00     0.146 A 
ATOM     12  C   UNL d   1      53.545  34.096  54.700  0.00  0.00     0.087 A 
ATOM     13 CL   UNL d   1      54.002  33.618  55.208  0.00  0.00    -0.080 Cl
ATOM     14  C   UNL d   1      53.276  34.818  54.952  0.00  0.00     0.014 A 
ATOM     15  C   UNL d   1      52.825  35.285  54.444  0.00  0.00     0.001 A 
ATOM     16  C   UNL d   1      52.643  35.026  53.682  0.00  0.00     0.003 A 
ATOM     17  C   UNL d   1      52.914  34.292  53.422  0.00  0.00     0.033 A 
ENDBRANCH   2  11
TORSDOF 3
ENDMDL
MODEL 3
REMARK VINA RESULT:      -8.0      2.290      3.334
REMARK  3 active torsions:
REMARK  status: ('A' for Active; 'I' for Inactive)
REMARK    1  A    between atoms: C_3  and  C_1 
REMARK       I    between atoms: N_6  and  C_3 
REMARK    2  A    between atoms: C_12  and  N_5 
REMARK    3  A    between atoms: C_8  and  N_6 
ROOT
ATOM      1  C   UNL d   1      52.429  32.807  53.227  0.00  0.00     0.348 C 
ATOM      2  N   UNL d   1      53.044  33.081  53.716  0.00  0.00    -0.362 NA
ATOM      3  O   UNL d   1      52.380  31.980  53.025  0.00  0.00    -0.249 OA
ENDROOT
BRANCH   1   4
ATOM      4  C   UNL d   1      51.864  33.350  52.938  0.00  0.00     0.173 A 
ATOM      5  N   UNL d   1      51.128  33.520  53.290  0.00  0.00    -0.159 NA
ATOM      6  N   UNL d   1      50.753  34.091  52.814  0.00  0.00    -0.227 N 
ATOM      7  C   UNL d   1      51.251  34.268  52.183  0.00  0.00     0.102 A 
ATOM      8  C   UNL d   1      51.940  33.812  52.255  0.00  0.00     0.048 A 
BRANCH   6   9
ATOM      9  C   UNL d   1      50.009  34.422  52.954  0.00  0.00     0.101 C 
ATOM     10  C   UNL d   1      49.460  34.833  52.497  0.00  0.00     0.022 C 
ENDBRANCH   6   9
ENDBRANCH   1   4
BRANCH   2  11
ATOM     11  C   UNL d   1      53.692  33.244  54.205  0.00  0.00     0.146 A 
ATOM     12  C   UNL d   1      54.466  33.054  53.955  0.00  0.00     0.087 A 
ATOM     13 CL   UNL d   1      54.582  32.700  53.208  0.00  0.00    -0.080 Cl
ATOM     14  C   UNL d   1      55.100  33.213  54.434  0.00  0.00     0.014 A 
ATOM     15  C   UNL d   1      54.977  33.562  55.170  0.00  0.00     0.001 A 
ATOM     16  C   UNL d   1      54.216  33.753  55.425  0.00  0.00     0.003 A 
ATOM     17  C   UNL d   1      53.568  33.593  54.941  0.00  0.00     0.033 A 
ENDBRANCH   2  11
TORSDOF 3
ENDMDL
MODEL 4
REMARK VINA RESULT:      -7.9      2.235      3.110
REMARK  3 active torsions:
REMARK  status: ('A' for Active; 'I' for Inactive)
REMARK    1  A    between atoms: C_3  and  C_1 
REMARK       I    between atoms: N_6  and  C_3 
REMARK    2  A    between atoms: C_12  and  N_5 
REMARK    3  A    between atoms: C_8  and  N_6 
ROOT
ATOM      1  C   UNL d   1      52.807  32.446  53.004  0.00  0.00     0.348 C 
ATOM      2  N   UNL d   1      52.176  32.989  52.985  0.00  0.00    -0.362 NA
ATOM      3  O   UNL d   1      52.753  31.713  52.572  0.00  0.00    -0.249 OA
ENDROOT
BRANCH   1   4
ATOM      4  C   UNL d   1      53.488  32.628  53.451  0.00  0.00     0.173 A 
ATOM      5  N   UNL d   1      53.499  32.853  54.253  0.00  0.00    -0.159 NA
ATOM      6  N   UNL d   1      54.295  32.979  54.463  0.00  0.00    -0.227 N 
ATOM      7  C   UNL d   1      54.762  32.833  53.802  0.00  0.00     0.102 A 
ATOM      8  C   UNL d   1      54.268  32.615  53.173  0.00  0.00     0.048 A 
BRANCH   6   9
ATOM      9  C   UNL d   1      54.565  33.211  55.209  0.00  0.00     0.101 C 
ATOM     10  C   UNL d   1      55.137  33.737  55.482  0.00  0.00     0.022 C 
ENDBRANCH   6   9
ENDBRANCH   1   4
BRANCH   2  11
ATOM     11  C   UNL d   1      51.496  33.453  52.896  0.00  0.00     0.146 A 
ATOM     12  C   UNL d   1      51.470  34.055  52.317  0.00  0.00     0.087 A 
ATOM     13 CL   UNL d   1      52.134  34.185  51.830  0.00  0.00    -0.080 Cl
ATOM     14  C   UNL d   1      50.804  34.508  52.230  0.00  0.00     0.014 A 
ATOM     15  C   UNL d   1      50.152  34.372  52.716  0.00  0.00     0.001 A 
ATOM     16  C   UNL d   1      50.169  33.779  53.290  0.00  0.00     0.003 A 
ATOM     17  C   UNL d   1      50.844  33.316  53.382  0.00  0.00     0.033 A 
ENDBRANCH   2  11
TORSDOF 3
ENDMDL
MODEL 5
REMARK VINA RESULT:      -7.6      1.514      1.791
REMARK  3 active torsions:
REMARK  status: ('A' for Active; 'I' for Inactive)
REMARK    1  A    between atoms: C_3  and  C_1 
REMARK       I    between atoms: N_6  and  C_3 
REMARK    2  A    between atoms: C_12  and  N_5 
REMARK    3  A    between atoms: C_8  and  N_6 
ROOT
ATOM      1  C   UNL d   1      53.604  32.905  53.288  0.00  0.00     0.348 C 
ATOM      2  N   UNL d   1      53.371  32.108  53.355  0.00  0.00    -0.362 NA
ATOM      3  O   UNL d   1      54.424  33.102  53.167  0.00  0.00    -0.249 OA
ENDROOT
BRANCH   1   4
ATOM      4  C   UNL d   1      53.025  33.505  53.341  0.00  0.00     0.173 A 
ATOM      5  N   UNL d   1      52.330  33.552  52.884  0.00  0.00    -0.159 NA
ATOM      6  N   UNL d   1      51.923  34.237  53.125  0.00  0.00    -0.227 N 
ATOM      7  C   UNL d   1      52.360  34.602  53.719  0.00  0.00     0.102 A 
ATOM      8  C   UNL d   1      53.043  34.152  53.857  0.00  0.00     0.048 A 
BRANCH   6   9
ATOM      9  C   UNL d   1      51.202  34.502  52.818  0.00  0.00     0.101 C 
ATOM     10  C   UNL d   1      50.443  34.186  52.761  0.00  0.00     0.022 C 
ENDBRANCH   6   9
ENDBRANCH   1   4
BRANCH   2  11
ATOM     11  C   UNL d   1      53.252  31.290  53.406  0.00  0.00     0.146 A 
ATOM     12  C   UNL d   1      53.441  30.882  54.110  0.00  0.00     0.087 A 
ATOM     13 CL   UNL d   1      53.750  31.304  54.760  0.00  0.00    -0.080 Cl
ATOM     14  C   UNL d   1      53.325  30.081  54.161  0.00  0.00     0.014 A 
ATOM     15  C   UNL d   1      53.020  29.672  53.513  0.00  0.00     0.001 A 
ATOM     16  C   UNL d   1      52.830  30.068  52.814  0.00  0.00     0.003 A 
ATOM     17  C   UNL d   1      52.947  30.882  52.759  0.00  0.00     0.033 A 
ENDBRANCH   2  11
TORSDOF 3
ENDMDL
