MODEL 1
REMARK VINA RESULT:      -6.4      0.000      0.000
REMARK  5 active torsions:
REMARK  status: ('A' for Active; 'I' for Inactive)
REMARK    1  A    between atoms: N_5  and  C_1 
REMARK    2  A    between atoms: C_9  and  C_2 
REMARK       I    between atoms: C_6  and  N_5 
REMARK    3  A    between atoms: C_8  and  C_6 
REMARK    4  A    between atoms: O_14  and  C_9 
REMARK    5  A    between atoms: C_16  and  O_14 
ROOT
ATOM      1  C   UNL d   1     -48.424  13.035  22.946  0.00  0.00     0.114 A 
ATOM      2  C   UNL d   1     -47.093  12.946  23.048  0.00  0.00     0.094 A 
ATOM      3  S   UNL d   1     -47.704  13.418  22.796  0.00  0.00    -0.062 SA
ATOM      4  C   UNL d   1     -47.458  12.248  23.363  0.00  0.00     0.013 A 
ATOM      5  C   UNL d   1     -48.242  12.314  23.297  0.00  0.00     0.027 A 
ATOM      6  C   UNL d   1     -47.059  11.595  23.691  0.00  0.00     0.001 C 
ENDROOT
BRANCH   1   7
ATOM      7  N   UNL d   1     -49.220  13.327  22.772  0.00  0.00    -0.201 NA
ATOM      8  C   UNL d   1     -49.518  13.265  22.006  0.00  0.00     0.280 C 
ATOM      9  O   UNL d   1     -49.067  12.927  21.402  0.00  0.00    -0.265 OA
BRANCH   8  10
ATOM     10  C   UNL d   1     -50.274  13.542  21.840  0.00  0.00     0.058 A 
ATOM     11  C   UNL d   1     -51.048  13.440  21.575  0.00  0.00     0.005 A 
ATOM     12  C   UNL d   1     -50.899  14.166  21.801  0.00  0.00     0.005 A 
ENDBRANCH   8  10
ENDBRANCH   1   7
BRANCH   2  13
ATOM     13  C   UNL d   1     -46.270  13.109  23.007  0.00  0.00     0.306 C 
ATOM     14  O   UNL d   1     -45.906  13.439  23.665  0.00  0.00    -0.258 OA
BRANCH  13  15
ATOM     15  O   UNL d   1     -45.830  12.948  22.330  0.00  0.00    -0.271 OA
BRANCH  15  16
ATOM     16  C   UNL d   1     -45.071  13.264  22.236  0.00  0.00     0.126 C 
ATOM     17  C   UNL d   1     -44.609  13.015  21.589  0.00  0.00     0.029 C 
ENDBRANCH  15  16
ENDBRANCH  13  15
ENDBRANCH   2  13
TORSDOF 5
ENDMDL
MODEL 2
REMARK VINA RESULT:      -5.8      0.980      1.525
REMARK  5 active torsions:
REMARK  status: ('A' for Active; 'I' for Inactive)
REMARK    1  A    between atoms: N_5  and  C_1 
REMARK    2  A    between atoms: C_9  and  C_2 
REMARK       I    between atoms: C_6  and  N_5 
REMARK    3  A    between atoms: C_8  and  C_6 
REMARK    4  A    between atoms: O_14  and  C_9 
REMARK    5  A    between atoms: C_16  and  O_14 
ROOT
ATOM      1  C   UNL d   1     -48.107  13.396  22.932  0.00  0.00     0.114 A 
ATOM      2  C   UNL d   1     -46.825  13.013  22.948  0.00  0.00     0.094 A 
ATOM      3  S   UNL d   1     -47.592  12.747  22.948  0.00  0.00    -0.062 SA
ATOM      4  C   UNL d   1     -46.877  13.860  22.931  0.00  0.00     0.013 A 
ATOM      5  C   UNL d   1     -47.637  14.072  22.922  0.00  0.00     0.027 A 
ATOM      6  C   UNL d   1     -46.233  14.388  22.925  0.00  0.00     0.001 C 
ENDROOT
BRANCH   1   7
ATOM      7  N   UNL d   1     -48.972  13.380  22.927  0.00  0.00    -0.201 NA
ATOM      8  C   UNL d   1     -49.371  13.178  22.235  0.00  0.00     0.280 C 
ATOM      9  O   UNL d   1     -48.956  12.989  21.546  0.00  0.00    -0.265 OA
BRANCH   8  10
ATOM     10  C   UNL d   1     -50.193  13.162  22.230  0.00  0.00     0.058 A 
ATOM     11  C   UNL d   1     -50.927  13.409  21.945  0.00  0.00     0.005 A 
ATOM     12  C   UNL d   1     -50.983  12.883  22.511  0.00  0.00     0.005 A 
ENDBRANCH   8  10
ENDBRANCH   1   7
BRANCH   2  13
ATOM     13  C   UNL d   1     -46.123  12.552  22.961  0.00  0.00     0.306 C 
ATOM     14  O   UNL d   1     -45.457  12.846  22.581  0.00  0.00    -0.258 OA
BRANCH  13  15
ATOM     15  O   UNL d   1     -46.092  11.822  23.343  0.00  0.00    -0.271 OA
BRANCH  15  16
ATOM     16  C   UNL d   1     -45.397  11.373  23.334  0.00  0.00     0.126 C 
ATOM     17  C   UNL d   1     -45.399  10.623  23.698  0.00  0.00     0.029 C 
ENDBRANCH  15  16
ENDBRANCH  13  15
ENDBRANCH   2  13
TORSDOF 5
ENDMDL
MODEL 3
REMARK VINA RESULT:      -5.5      1.478      4.144
REMARK  5 active torsions:
REMARK  status: ('A' for Active; 'I' for Inactive)
REMARK    1  A    between atoms: N_5  and  C_1 
REMARK    2  A    between atoms: C_9  and  C_2 
REMARK       I    between atoms: C_6  and  N_5 
REMARK    3  A    between atoms: C_8  and  C_6 
REMARK    4  A    between atoms: O_14  and  C_9 
REMARK    5  A    between atoms: C_16  and  O_14 
ROOT
ATOM      1  C   UNL d   1     -47.569  13.828  22.324  0.00  0.00     0.114 A 
ATOM      2  C   UNL d   1     -48.887  13.741  22.538  0.00  0.00     0.094 A 
ATOM      3  S   UNL d   1     -48.234  13.335  22.279  0.00  0.00    -0.062 SA
ATOM      4  C   UNL d   1     -48.607  14.514  22.749  0.00  0.00     0.013 A 
ATOM      5  C   UNL d   1     -47.829  14.551  22.618  0.00  0.00     0.027 A 
ATOM      6  C   UNL d   1     -49.073  15.137  23.047  0.00  0.00     0.001 C 
ENDROOT
BRANCH   1   7
ATOM      7  N   UNL d   1     -46.755  13.633  22.107  0.00  0.00    -0.201 NA
ATOM      8  C   UNL d   1     -46.293  13.184  22.622  0.00  0.00     0.280 C 
ATOM      9  O   UNL d   1     -46.597  12.918  23.341  0.00  0.00    -0.265 OA
BRANCH   8  10
ATOM     10  C   UNL d   1     -45.519  12.998  22.416  0.00  0.00     0.058 A 
ATOM     11  C   UNL d   1     -44.843  12.528  22.461  0.00  0.00     0.005 A 
ATOM     12  C   UNL d   1     -44.759  13.131  21.983  0.00  0.00     0.005 A 
ENDBRANCH   8  10
ENDBRANCH   1   7
BRANCH   2  13
ATOM     13  C   UNL d   1     -49.677  13.461  22.589  0.00  0.00     0.306 C 
ATOM     14  O   UNL d   1     -50.222  13.730  22.035  0.00  0.00    -0.258 OA
BRANCH  13  15
ATOM     15  O   UNL d   1     -49.912  12.930  23.174  0.00  0.00    -0.271 OA
BRANCH  15  16
ATOM     16  C   UNL d   1     -50.560  12.430  23.053  0.00  0.00     0.126 C 
ATOM     17  C   UNL d   1     -50.848  11.983  23.695  0.00  0.00     0.029 C 
ENDBRANCH  15  16
ENDBRANCH  13  15
ENDBRANCH   2  13
TORSDOF 5
ENDMDL
MODEL 4
REMARK VINA RESULT:      -4.9      7.772      9.733
REMARK  5 active torsions:
REMARK  status: ('A' for Active; 'I' for Inactive)
REMARK    1  A    between atoms: N_5  and  C_1 
REMARK    2  A    between atoms: C_9  and  C_2 
REMARK       I    between atoms: C_6  and  N_5 
REMARK    3  A    between atoms: C_8  and  C_6 
REMARK    4  A    between atoms: O_14  and  C_9 
REMARK    5  A    between atoms: C_16  and  O_14 
ROOT
ATOM      1  C   UNL d   1     -40.403  14.633  18.245  0.00  0.00     0.114 A 
ATOM      2  C   UNL d   1     -39.732  14.922  17.124  0.00  0.00     0.094 A 
ATOM      3  S   UNL d   1     -39.679  14.559  17.849  0.00  0.00    -0.062 SA
ATOM      4  C   UNL d   1     -40.522  15.229  17.080  0.00  0.00     0.013 A 
ATOM      5  C   UNL d   1     -40.906  15.052  17.746  0.00  0.00     0.027 A 
ATOM      6  C   UNL d   1     -40.846  15.650  16.438  0.00  0.00     0.001 C 
ENDROOT
BRANCH   1   7
ATOM      7  N   UNL d   1     -40.603  14.334  19.032  0.00  0.00    -0.201 NA
ATOM      8  C   UNL d   1     -40.471  14.807  19.694  0.00  0.00     0.280 C 
ATOM      9  O   UNL d   1     -40.150  15.563  19.616  0.00  0.00    -0.265 OA
BRANCH   8  10
ATOM     10  C   UNL d   1     -40.662  14.522  20.441  0.00  0.00     0.058 A 
ATOM     11  C   UNL d   1     -40.465  14.298  21.210  0.00  0.00     0.005 A 
ATOM     12  C   UNL d   1     -41.220  14.217  21.056  0.00  0.00     0.005 A 
ENDBRANCH   8  10
ENDBRANCH   1   7
BRANCH   2  13
ATOM     13  C   UNL d   1     -39.134  14.983  16.537  0.00  0.00     0.306 C 
ATOM     14  O   UNL d   1     -38.810  15.724  16.388  0.00  0.00    -0.258 OA
BRANCH  13  15
ATOM     15  O   UNL d   1     -38.872  14.326  16.116  0.00  0.00    -0.271 OA
BRANCH  15  16
ATOM     16  C   UNL d   1     -38.176  14.363  15.669  0.00  0.00     0.126 C 
ATOM     17  C   UNL d   1     -37.954  13.700  15.215  0.00  0.00     0.029 C 
ENDBRANCH  15  16
ENDBRANCH  13  15
ENDBRANCH   2  13
TORSDOF 5
ENDMDL
MODEL 5
REMARK VINA RESULT:      -4.5      8.466      9.368
REMARK  5 active torsions:
REMARK  status: ('A' for Active; 'I' for Inactive)
REMARK    1  A    between atoms: N_5  and  C_1 
REMARK    2  A    between atoms: C_9  and  C_2 
REMARK       I    between atoms: C_6  and  N_5 
REMARK    3  A    between atoms: C_8  and  C_6 
REMARK    4  A    between atoms: O_14  and  C_9 
REMARK    5  A    between atoms: C_16  and  O_14 
ROOT
ATOM      1  C   UNL d   1     -39.515  14.720  20.444  0.00  0.00     0.114 A 
ATOM      2  C   UNL d   1     -39.981  14.684  19.190  0.00  0.00     0.094 A 
ATOM      3  S   UNL d   1     -39.484  14.320  19.719  0.00  0.00    -0.062 SA
ATOM      4  C   UNL d   1     -40.329  15.332  19.614  0.00  0.00     0.013 A 
ATOM      5  C   UNL d   1     -40.046  15.341  20.350  0.00  0.00     0.027 A 
ATOM      6  C   UNL d   1     -40.882  15.874  19.306  0.00  0.00     0.001 C 
ENDROOT
BRANCH   1   7
ATOM      7  N   UNL d   1     -39.080  14.530  21.167  0.00  0.00    -0.201 NA
ATOM      8  C   UNL d   1     -39.411  14.014  21.719  0.00  0.00     0.280 C 
ATOM      9  O   UNL d   1     -40.153  13.676  21.590  0.00  0.00    -0.265 OA
BRANCH   8  10
ATOM     10  C   UNL d   1     -38.997  13.834  22.406  0.00  0.00     0.058 A 
ATOM     11  C   UNL d   1     -38.553  13.326  22.880  0.00  0.00     0.005 A 
ATOM     12  C   UNL d   1     -38.674  14.016  23.209  0.00  0.00     0.005 A 
ENDBRANCH   8  10
ENDBRANCH   1   7
BRANCH   2  13
ATOM     13  C   UNL d   1     -40.125  14.469  18.391  0.00  0.00     0.306 C 
ATOM     14  O   UNL d   1     -40.797  14.026  18.223  0.00  0.00    -0.258 OA
BRANCH  13  15
ATOM     15  O   UNL d   1     -39.614  14.690  17.784  0.00  0.00    -0.271 OA
BRANCH  15  16
ATOM     16  C   UNL d   1     -39.668  14.336  17.039  0.00  0.00     0.126 C 
ATOM     17  C   UNL d   1     -39.102  14.530  16.459  0.00  0.00     0.029 C 
ENDBRANCH  15  16
ENDBRANCH  13  15
ENDBRANCH   2  13
TORSDOF 5
ENDMDL
MODEL 6
REMARK VINA RESULT:      -3.6      7.570      8.652
REMARK  5 active torsions:
REMARK  status: ('A' for Active; 'I' for Inactive)
REMARK    1  A    between atoms: N_5  and  C_1 
REMARK    2  A    between atoms: C_9  and  C_2 
REMARK       I    between atoms: C_6  and  N_5 
REMARK    3  A    between atoms: C_8  and  C_6 
REMARK    4  A    between atoms: O_14  and  C_9 
REMARK    5  A    between atoms: C_16  and  O_14 
ROOT
ATOM      1  C   UNL d   1     -40.466  14.983  19.582  0.00  0.00     0.114 A 
ATOM      2  C   UNL d   1     -39.990  14.556  20.758  0.00  0.00     0.094 A 
ATOM      3  S   UNL d   1     -39.788  14.907  20.054  0.00  0.00    -0.062 SA
ATOM      4  C   UNL d   1     -40.825  14.411  20.709  0.00  0.00     0.013 A 
ATOM      5  C   UNL d   1     -41.092  14.667  20.012  0.00  0.00     0.027 A 
ATOM      6  C   UNL d   1     -41.293  14.056  21.300  0.00  0.00     0.001 C 
ENDROOT
BRANCH   1   7
ATOM      7  N   UNL d   1     -40.517  15.324  18.789  0.00  0.00    -0.201 NA
ATOM      8  C   UNL d   1     -40.569  14.826  18.134  0.00  0.00     0.280 C 
ATOM      9  O   UNL d   1     -40.572  14.006  18.225  0.00  0.00    -0.265 OA
BRANCH   8  10
ATOM     10  C   UNL d   1     -40.618  15.150  17.380  0.00  0.00     0.058 A 
ATOM     11  C   UNL d   1     -41.012  15.567  16.788  0.00  0.00     0.005 A 
ATOM     12  C   UNL d   1     -40.307  15.332  16.572  0.00  0.00     0.005 A 
ENDBRANCH   8  10
ENDBRANCH   1   7
BRANCH   2  13
ATOM     13  C   UNL d   1     -39.483  14.371  21.401  0.00  0.00     0.306 C 
ATOM     14  O   UNL d   1     -39.491  14.866  22.057  0.00  0.00    -0.258 OA
BRANCH  13  15
ATOM     15  O   UNL d   1     -38.987  13.713  21.387  0.00  0.00    -0.271 OA
BRANCH  15  16
ATOM     16  C   UNL d   1     -38.381  13.631  21.944  0.00  0.00     0.126 C 
ATOM     17  C   UNL d   1     -37.939  12.925  21.957  0.00  0.00     0.029 C 
ENDBRANCH  15  16
ENDBRANCH  13  15
ENDBRANCH   2  13
TORSDOF 5
ENDMDL
