MODEL 1
REMARK VINA RESULT:      -2.3      0.000      0.000
REMARK  7 active torsions:
REMARK  status: ('A' for Active; 'I' for Inactive)
REMARK    1  A    between atoms: S_10  and  C_4 
REMARK    2  A    between atoms: C_19  and  C_9 
REMARK    3  A    between atoms: C_13  and  S_10 
REMARK    4  A    between atoms: C_11  and  C_13 
REMARK       I    between atoms: N_14  and  C_11 
REMARK    5  A    between atoms: C_16  and  N_14 
REMARK    6  A    between atoms: C_20  and  C_16 
REMARK    7  A    between atoms: C_18  and  C_20 
ROOT
ATOM      1  C   UNL d   1     -41.918-123.198 -49.391  0.00  0.00     0.141 A 
ATOM      2  C   UNL d   1     -42.484-122.934 -48.853  0.00  0.00     0.110 A 
ATOM      3  O   UNL d   1     -41.316-123.572 -48.966  0.00  0.00    -0.303 OA
ATOM      4  C   UNL d   1     -42.021-123.065 -50.198  0.00  0.00     0.137 A 
ATOM      5  N   UNL d   1     -42.692-122.666 -50.468  0.00  0.00    -0.218 NA
ATOM      6  C   UNL d   1     -42.234-123.145 -48.095  0.00  0.00     0.043 A 
ATOM      7  N   UNL d   1     -43.155-122.536 -49.122  0.00  0.00    -0.225 NA
ATOM      8  C   UNL d   1     -41.512-123.539 -48.165  0.00  0.00     0.102 A 
ATOM      9  C   UNL d   1     -43.258-122.403 -49.930  0.00  0.00     0.163 A 
ATOM     10  C   UNL d   1     -42.570-123.029 -47.350  0.00  0.00     0.004 A 
ATOM     11  C   UNL d   1     -41.127-123.817 -47.491  0.00  0.00     0.025 A 
ATOM     12  C   UNL d   1     -42.184-123.307 -46.676  0.00  0.00     0.000 A 
ATOM     13  C   UNL d   1     -41.463-123.701 -46.746  0.00  0.00     0.002 A 
ENDROOT
BRANCH   4  14
ATOM     14  S   UNL d   1     -41.454-123.329 -50.737  0.00  0.00    -0.060 SA
BRANCH  14  15
ATOM     15  C   UNL d   1     -41.123-122.801 -51.277  0.00  0.00     0.099 C 
BRANCH  15  16
ATOM     16  C   UNL d   1     -41.161-122.964 -52.086  0.00  0.00     0.286 C 
ATOM     17  O   UNL d   1     -41.135-123.746 -52.351  0.00  0.00    -0.265 OA
ATOM     18  N   UNL d   1     -41.224-122.346 -52.628  0.00  0.00    -0.206 NA
BRANCH  18  19
ATOM     19  C   UNL d   1     -41.261-122.508 -53.435  0.00  0.00     0.102 C 
BRANCH  19  20
ATOM     20  C   UNL d   1     -41.269-121.890 -53.982  0.00  0.00     0.021 C 
BRANCH  20  21
ATOM     21  C   UNL d   1     -41.729-121.947 -54.664  0.00  0.00     0.002 A 
ATOM     22  C   UNL d   1     -41.385-122.191 -55.375  0.00  0.00     0.000 A 
ATOM     23  C   UNL d   1     -41.845-122.247 -56.057  0.00  0.00     0.000 A 
ATOM     24  C   UNL d   1     -42.647-122.060 -56.030  0.00  0.00     0.000 A 
ATOM     25  C   UNL d   1     -42.991-121.816 -55.322  0.00  0.00     0.000 A 
ATOM     26  C   UNL d   1     -42.531-121.759 -54.638  0.00  0.00     0.000 A 
ENDBRANCH  20  21
ENDBRANCH  19  20
ENDBRANCH  18  19
ENDBRANCH  15  16
ENDBRANCH  14  15
ENDBRANCH   4  14
BRANCH   9  27
ATOM     27  C   UNL d   1     -43.930-122.004 -50.198  0.00  0.00     0.039 C 
ATOM     28  C   UNL d   1     -44.493-122.403 -50.650  0.00  0.00     0.003 C 
ENDBRANCH   9  27
TORSDOF 7
ENDMDL
MODEL 2
REMARK VINA RESULT:       0.7      1.337      5.999
REMARK  7 active torsions:
REMARK  status: ('A' for Active; 'I' for Inactive)
REMARK    1  A    between atoms: S_10  and  C_4 
REMARK    2  A    between atoms: C_19  and  C_9 
REMARK    3  A    between atoms: C_13  and  S_10 
REMARK    4  A    between atoms: C_11  and  C_13 
REMARK       I    between atoms: N_14  and  C_11 
REMARK    5  A    between atoms: C_16  and  N_14 
REMARK    6  A    between atoms: C_20  and  C_16 
REMARK    7  A    between atoms: C_18  and  C_20 
ROOT
ATOM      1  C   UNL d   1     -41.980-122.369 -53.421  0.00  0.00     0.141 A 
ATOM      2  C   UNL d   1     -41.862-121.673 -53.846  0.00  0.00     0.110 A 
ATOM      3  O   UNL d   1     -42.266-122.943 -53.944  0.00  0.00    -0.303 OA
ATOM      4  C   UNL d   1     -41.813-122.394 -52.614  0.00  0.00     0.137 A 
ATOM      5  N   UNL d   1     -41.527-121.721 -52.231  0.00  0.00    -0.218 NA
ATOM      6  C   UNL d   1     -42.075-121.814 -54.631  0.00  0.00     0.043 A 
ATOM      7  N   UNL d   1     -41.577-121.000 -53.463  0.00  0.00    -0.225 NA
ATOM      8  C   UNL d   1     -42.324-122.598 -54.691  0.00  0.00     0.102 A 
ATOM      9  C   UNL d   1     -41.409-121.025 -52.656  0.00  0.00     0.163 A 
ATOM     10  C   UNL d   1     -42.074-121.329 -55.299  0.00  0.00     0.004 A 
ATOM     11  C   UNL d   1     -42.572-122.898 -55.418  0.00  0.00     0.025 A 
ATOM     12  C   UNL d   1     -42.322-121.630 -56.027  0.00  0.00     0.000 A 
ATOM     13  C   UNL d   1     -42.571-122.413 -56.086  0.00  0.00     0.002 A 
ENDROOT
BRANCH   4  14
ATOM     14  S   UNL d   1     -41.930-123.092 -52.188  0.00  0.00    -0.060 SA
BRANCH  14  15
ATOM     15  C   UNL d   1     -41.398-123.308 -51.597  0.00  0.00     0.099 C 
BRANCH  15  16
ATOM     16  C   UNL d   1     -41.679-123.562 -50.863  0.00  0.00     0.286 C 
ATOM     17  O   UNL d   1     -42.463-123.812 -50.787  0.00  0.00    -0.265 OA
ATOM     18  N   UNL d   1     -41.179-123.565 -50.208  0.00  0.00    -0.206 NA
BRANCH  18  19
ATOM     19  C   UNL d   1     -41.461-123.817 -49.476  0.00  0.00     0.102 C 
BRANCH  19  20
ATOM     20  C   UNL d   1     -41.183-123.467 -48.782  0.00  0.00     0.021 C 
BRANCH  20  21
ATOM     21  C   UNL d   1     -41.667-123.429 -48.115  0.00  0.00     0.002 A 
ATOM     22  C   UNL d   1     -41.387-123.698 -47.386  0.00  0.00     0.000 A 
ATOM     23  C   UNL d   1     -41.870-123.660 -46.719  0.00  0.00     0.000 A 
ATOM     24  C   UNL d   1     -42.633-123.352 -46.780  0.00  0.00     0.000 A 
ATOM     25  C   UNL d   1     -42.913-123.083 -47.507  0.00  0.00     0.000 A 
ATOM     26  C   UNL d   1     -42.429-123.122 -48.175  0.00  0.00     0.000 A 
ENDBRANCH  20  21
ENDBRANCH  19  20
ENDBRANCH  18  19
ENDBRANCH  15  16
ENDBRANCH  14  15
ENDBRANCH   4  14
BRANCH   9  27
ATOM     27  C   UNL d   1     -41.124-120.351 -52.274  0.00  0.00     0.039 C 
ATOM     28  C   UNL d   1     -41.204-120.275 -51.457  0.00  0.00     0.003 C 
ENDBRANCH   9  27
TORSDOF 7
ENDMDL
