MODEL 1
REMARK VINA RESULT:      10.0      0.000      0.000
REMARK  1 active torsions:
REMARK  status: ('A' for Active; 'I' for Inactive)
REMARK       I    between atoms: N_2  and  C_1 
REMARK    1  A    between atoms: C_4  and  N_2 
ROOT
ATOM      1  C   UNL d   1      57.960  49.702  50.123  0.00  0.00     0.101 A 
ATOM      2  C   UNL d   1      57.461  49.695  49.466  0.00  0.00     0.031 A 
ATOM      3  C   UNL d   1      56.637  49.692  49.574  0.00  0.00     0.059 A 
ATOM      4 CL   UNL d   1      56.137  49.685  48.918  0.00  0.00    -0.082 Cl
ATOM      5  C   UNL d   1      56.819  49.703  50.991  0.00  0.00     0.002 A 
ATOM      6  C   UNL d   1      57.636  49.706  50.887  0.00  0.00     0.020 A 
ATOM      7  C   UNL d   1      56.320  49.697  50.335  0.00  0.00     0.011 A 
ENDROOT
BRANCH   1   8
ATOM      8  N   UNL d   1      58.779  49.704  50.022  0.00  0.00    -0.056 NA
ATOM      9  C   UNL d   1      59.277  49.690  50.677  0.00  0.00     0.787 C 
ATOM     10  N   UNL d   1      60.095  49.692  50.580  0.00  0.00     0.064 N 
ATOM     11  N   UNL d   1      58.951  49.673  51.434  0.00  0.00     0.064 N 
ENDBRANCH   1   8
TORSDOF 1
ENDMDL
MODEL 2
REMARK VINA RESULT:      11.1      2.107      3.366
REMARK  1 active torsions:
REMARK  status: ('A' for Active; 'I' for Inactive)
REMARK       I    between atoms: N_2  and  C_1 
REMARK    1  A    between atoms: C_4  and  N_2 
ROOT
ATOM      1  C   UNL d   1      59.341  49.706  51.023  0.00  0.00     0.101 A 
ATOM      2  C   UNL d   1      59.862  49.702  51.663  0.00  0.00     0.031 A 
ATOM      3  C   UNL d   1      60.682  49.700  51.528  0.00  0.00     0.059 A 
ATOM      4 CL   UNL d   1      61.203  49.696  52.168  0.00  0.00    -0.082 Cl
ATOM      5  C   UNL d   1      60.453  49.706  50.118  0.00  0.00     0.002 A 
ATOM      6  C   UNL d   1      59.640  49.708  50.248  0.00  0.00     0.020 A 
ATOM      7  C   UNL d   1      60.974  49.702  50.757  0.00  0.00     0.011 A 
ENDROOT
BRANCH   1   8
ATOM      8  N   UNL d   1      58.526  49.708  51.150  0.00  0.00    -0.056 NA
ATOM      9  C   UNL d   1      58.006  49.705  50.512  0.00  0.00     0.787 C 
ATOM     10  N   UNL d   1      57.193  49.707  50.636  0.00  0.00     0.064 N 
ATOM     11  N   UNL d   1      58.308  49.700  49.744  0.00  0.00     0.064 N 
ENDBRANCH   1   8
TORSDOF 1
ENDMDL
