MODEL 1
REMARK VINA RESULT:      83.2      0.000      0.000
REMARK  4 active torsions:
REMARK  status: ('A' for Active; 'I' for Inactive)
REMARK    1  A    between atoms: C_10  and  C_1 
REMARK    2  A    between atoms: C_18  and  N_6 
REMARK       I    between atoms: N_13  and  C_10 
REMARK    3  A    between atoms: C_12  and  C_20 
REMARK    4  A    between atoms: C_20  and  N_13 
ROOT
ATOM      1  C   UNL d   1     -51.392  26.058  33.499  0.00  0.00     0.077 A 
ATOM      2  C   UNL d   1     -51.596  24.638  33.400  0.00  0.00     0.121 A 
ATOM      3  C   UNL d   1     -51.090  25.291  33.454  0.00  0.00     0.028 A 
ATOM      4  C   UNL d   1     -52.420  24.756  33.391  0.00  0.00     0.281 A 
ATOM      5  N   UNL d   1     -51.129  23.964  33.364  0.00  0.00    -0.300 N 
ATOM      6  N   UNL d   1     -52.734  25.517  33.436  0.00  0.00    -0.272 N 
ATOM      7  C   UNL d   1     -52.214  26.177  33.490  0.00  0.00     0.088 A 
ATOM      8  C   UNL d   1     -50.310  25.003  33.450  0.00  0.00     0.018 A 
ATOM      9  C   UNL d   1     -50.351  24.181  33.394  0.00  0.00     0.064 A 
ATOM     10  O   UNL d   1     -52.932  24.095  33.337  0.00  0.00    -0.265 OA
ATOM     11  C   UNL d   1     -51.430  23.189  33.306  0.00  0.00     0.100 C 
ATOM     12  C   UNL d   1     -49.589  25.381  33.490  0.00  0.00     0.002 A 
ATOM     13  C   UNL d   1     -49.647  23.749  33.380  0.00  0.00     0.018 A 
ATOM     14  C   UNL d   1     -48.892  24.940  33.475  0.00  0.00     0.000 A 
ATOM     15  C   UNL d   1     -48.918  24.131  33.420  0.00  0.00     0.002 A 
ENDROOT
BRANCH   1  16
ATOM     16  C   UNL d   1     -50.892  26.703  33.552  0.00  0.00     0.281 C 
ATOM     17  N   UNL d   1     -50.127  26.612  33.845  0.00  0.00    -0.204 NA
ATOM     18  O   UNL d   1     -51.154  27.452  33.312  0.00  0.00    -0.265 OA
BRANCH  17  19
ATOM     19  C   UNL d   1     -49.624  27.261  33.898  0.00  0.00     0.127 C 
BRANCH  19  20
ATOM     20  C   UNL d   1     -49.435  27.572  34.640  0.00  0.00     0.119 A 
ATOM     21  O   UNL d   1     -48.927  28.202  34.791  0.00  0.00    -0.306 OA
ATOM     22  C   UNL d   1     -48.906  28.319  35.610  0.00  0.00     0.100 A 
ATOM     23  C   UNL d   1     -48.469  28.890  36.003  0.00  0.00     0.027 C 
ATOM     24  C   UNL d   1     -49.390  27.772  35.962  0.00  0.00     0.027 A 
ATOM     25  C   UNL d   1     -49.723  27.305  35.369  0.00  0.00     0.028 A 
ENDBRANCH  19  20
ENDBRANCH  17  19
ENDBRANCH   1  16
BRANCH   6  26
ATOM     26  C   UNL d   1     -53.549  25.628  33.427  0.00  0.00     0.067 A 
ATOM     27  C   UNL d   1     -54.113  25.037  33.319  0.00  0.00     0.018 A 
ATOM     28  C   UNL d   1     -54.848  25.391  33.350  0.00  0.00     0.002 A 
ATOM     29  C   UNL d   1     -54.740  26.196  33.475  0.00  0.00     0.002 A 
ATOM     30  C   UNL d   1     -53.931  26.340  33.522  0.00  0.00     0.018 A 
ENDBRANCH   6  26
TORSDOF 4
ENDMDL
MODEL 2
REMARK VINA RESULT:      84.9      1.385      3.152
REMARK  4 active torsions:
REMARK  status: ('A' for Active; 'I' for Inactive)
REMARK    1  A    between atoms: C_10  and  C_1 
REMARK    2  A    between atoms: C_18  and  N_6 
REMARK       I    between atoms: N_13  and  C_10 
REMARK    3  A    between atoms: C_12  and  C_20 
REMARK    4  A    between atoms: C_20  and  N_13 
ROOT
ATOM      1  C   UNL d   1     -49.670  26.536  33.839  0.00  0.00     0.077 A 
ATOM      2  C   UNL d   1     -51.084  26.513  33.579  0.00  0.00     0.121 A 
ATOM      3  C   UNL d   1     -50.379  26.932  33.693  0.00  0.00     0.028 A 
ATOM      4  C   UNL d   1     -51.077  25.682  33.611  0.00  0.00     0.281 A 
ATOM      5  N   UNL d   1     -51.681  27.061  33.448  0.00  0.00    -0.300 N 
ATOM      6  N   UNL d   1     -50.376  25.274  33.756  0.00  0.00    -0.272 N 
ATOM      7  C   UNL d   1     -49.662  25.706  33.872  0.00  0.00     0.088 A 
ATOM      8  C   UNL d   1     -50.557  27.742  33.630  0.00  0.00     0.018 A 
ATOM      9  C   UNL d   1     -51.366  27.805  33.478  0.00  0.00     0.064 A 
ATOM     10  O   UNL d   1     -51.791  25.257  33.495  0.00  0.00    -0.265 OA
ATOM     11  C   UNL d   1     -52.478  26.861  33.308  0.00  0.00     0.100 C 
ATOM     12  C   UNL d   1     -50.092  28.409  33.691  0.00  0.00     0.002 A 
ATOM     13  C   UNL d   1     -51.694  28.557  33.389  0.00  0.00     0.018 A 
ATOM     14  C   UNL d   1     -50.431  29.156  33.600  0.00  0.00     0.000 A 
ATOM     15  C   UNL d   1     -51.224  29.233  33.451  0.00  0.00     0.002 A 
ENDROOT
BRANCH   1  16
ATOM     16  C   UNL d   1     -48.974  26.950  33.952  0.00  0.00     0.281 C 
ATOM     17  N   UNL d   1     -48.808  27.292  34.684  0.00  0.00    -0.204 NA
ATOM     18  O   UNL d   1     -48.430  27.026  33.330  0.00  0.00    -0.265 OA
BRANCH  17  19
ATOM     19  C   UNL d   1     -48.108  27.709  34.797  0.00  0.00     0.127 C 
BRANCH  19  20
ATOM     20  C   UNL d   1     -48.091  28.344  35.325  0.00  0.00     0.119 A 
ATOM     21  O   UNL d   1     -47.639  29.029  35.251  0.00  0.00    -0.306 OA
ATOM     22  C   UNL d   1     -47.800  29.509  35.906  0.00  0.00     0.100 A 
ATOM     23  C   UNL d   1     -47.469  30.244  36.055  0.00  0.00     0.027 C 
ATOM     24  C   UNL d   1     -48.341  29.131  36.377  0.00  0.00     0.027 A 
ATOM     25  C   UNL d   1     -48.527  28.409  36.025  0.00  0.00     0.028 A 
ENDBRANCH  19  20
ENDBRANCH  17  19
ENDBRANCH   1  16
BRANCH   6  26
ATOM     26  C   UNL d   1     -50.375  24.452  33.787  0.00  0.00     0.067 A 
ATOM     27  C   UNL d   1     -49.724  23.979  33.965  0.00  0.00     0.018 A 
ATOM     28  C   UNL d   1     -49.969  23.201  33.934  0.00  0.00     0.002 A 
ATOM     29  C   UNL d   1     -50.767  23.192  33.737  0.00  0.00     0.002 A 
ATOM     30  C   UNL d   1     -51.016  23.971  33.646  0.00  0.00     0.018 A 
ENDBRANCH   6  26
TORSDOF 4
ENDMDL
