MODEL 1
REMARK VINA RESULT:      -4.1      0.000      0.000
REMARK  5 active torsions:
REMARK  status: ('A' for Active; 'I' for Inactive)
REMARK    1  A    between atoms: C_14  and  N_4 
REMARK    2  A    between atoms: C_12  and  N_6 
REMARK    3  A    between atoms: C_10  and  C_12 
REMARK       I    between atoms: N_11  and  C_10 
REMARK    4  A    between atoms: C_13  and  N_11 
REMARK    5  A    between atoms: O_18  and  C_17 
ROOT
ATOM      1  C   UNL d   1      56.732   0.671  32.891  0.00  0.00     0.172 A 
ATOM      2  C   UNL d   1      57.556   0.674  32.914  0.00  0.00     0.113 A 
ATOM      3  N   UNL d   1      56.338   0.665  32.171  0.00  0.00    -0.206 NA
ATOM      4  N   UNL d   1      56.462   0.676  33.676  0.00  0.00    -0.212 N 
ATOM      5  C   UNL d   1      57.989   0.671  32.216  0.00  0.00     0.271 A 
ATOM      6  N   UNL d   1      57.596   0.664  31.487  0.00  0.00    -0.251 N 
ATOM      7  N   UNL d   1      57.118   0.682  34.165  0.00  0.00    -0.162 NA
ATOM      8  C   UNL d   1      56.771   0.661  31.465  0.00  0.00     0.187 A 
ATOM      9  C   UNL d   1      57.782   0.681  33.712  0.00  0.00     0.129 A 
ATOM     10  O   UNL d   1      58.813   0.674  32.239  0.00  0.00    -0.266 OA
ENDROOT
BRANCH   6  11
ATOM     11  C   UNL d   1      58.029   0.661  30.773  0.00  0.00     0.147 C 
BRANCH  11  12
ATOM     12  C   UNL d   1      58.139  -0.052  30.357  0.00  0.00     0.297 C 
ATOM     13  N   UNL d   1      58.819  -0.146  29.899  0.00  0.00    -0.205 NA
ATOM     14  O   UNL d   1      57.577  -0.643  30.407  0.00  0.00    -0.264 OA
BRANCH  13  15
ATOM     15  C   UNL d   1      58.930  -0.858  29.484  0.00  0.00     0.107 A 
ATOM     16  C   UNL d   1      59.579  -0.928  28.991  0.00  0.00     0.112 A 
ATOM     17  C   UNL d   1      59.689  -1.640  28.575  0.00  0.00     0.026 A 
ATOM     18  C   UNL d   1      59.158  -2.255  28.660  0.00  0.00     0.002 A 
ATOM     19  C   UNL d   1      58.509  -2.186  29.153  0.00  0.00     0.002 A 
ATOM     20  C   UNL d   1      58.403  -1.477  29.564  0.00  0.00     0.021 A 
BRANCH  16  21
ATOM     21  O   UNL d   1      60.110  -0.313  28.906  0.00  0.00    -0.327 OA
ATOM     22  C   UNL d   1      60.900  -0.458  28.756  0.00  0.00     0.181 C 
ENDBRANCH  16  21
ENDBRANCH  13  15
ENDBRANCH  11  12
ENDBRANCH   6  11
BRANCH   4  23
ATOM     23  C   UNL d   1      55.695   0.675  33.953  0.00  0.00     0.085 A 
ATOM     24  C   UNL d   1      55.548   0.682  34.774  0.00  0.00     0.019 A 
ATOM     25  C   UNL d   1      54.777   0.681  35.045  0.00  0.00     0.002 A 
ATOM     26  C   UNL d   1      54.134   0.674  34.501  0.00  0.00     0.000 A 
ATOM     27  C   UNL d   1      54.290   0.667  33.704  0.00  0.00     0.002 A 
ATOM     28  C   UNL d   1      55.063   0.668  33.422  0.00  0.00     0.019 A 
ENDBRANCH   4  23
TORSDOF 5
ENDMDL
