MODEL 1
REMARK VINA RESULT:     -10.4      0.000      0.000
REMARK  1 active torsions:
REMARK  status: ('A' for Active; 'I' for Inactive)
REMARK    1  A    between atoms: C_7  and  C_1 
ROOT
ATOM      1  C   UNL d   1      53.344  32.887  53.648  0.00  0.00     0.062 A 
ATOM      2  C   UNL d   1      52.692  32.413  53.537  0.00  0.00     0.199 A 
ATOM      3  C   UNL d   1      54.103  32.573  53.672  0.00  0.00     0.103 A 
ATOM      4  C   UNL d   1      52.784  31.582  53.443  0.00  0.00     0.062 A 
ATOM      5  C   UNL d   1      53.523  31.249  53.464  0.00  0.00     0.106 A 
ATOM      6  O   UNL d   1      54.194  31.742  53.578  0.00  0.00    -0.307 OA
ATOM      7  C   UNL d   1      53.612  30.434  53.372  0.00  0.00     0.067 A 
ATOM      8  C   UNL d   1      52.098  31.108  53.330  0.00  0.00     0.009 A 
ATOM      9  O   UNL d   1      51.915  32.782  53.518  0.00  0.00    -0.286 OA
ATOM     10  C   UNL d   1      52.961  29.964  53.261  0.00  0.00     0.198 A 
ATOM     11  C   UNL d   1      52.189  30.278  53.236  0.00  0.00     0.042 A 
ATOM     12  C   UNL d   1      54.777  33.065  53.787  0.00  0.00     0.027 C 
ATOM     13  O   UNL d   1      53.051  29.138  53.169  0.00  0.00    -0.286 OA
ENDROOT
BRANCH   1  14
ATOM     14  C   UNL d   1      53.236  33.692  53.736  0.00  0.00     0.005 A 
ATOM     15  C   UNL d   1      53.281  34.046  54.481  0.00  0.00     0.000 A 
ATOM     16  C   UNL d   1      53.441  33.578  55.159  0.00  0.00     0.000 C 
ATOM     17  C   UNL d   1      53.171  34.860  54.567  0.00  0.00     0.000 A 
ATOM     18  C   UNL d   1      53.018  35.306  53.910  0.00  0.00     0.000 A 
ATOM     19  C   UNL d   1      52.968  34.988  53.169  0.00  0.00     0.000 A 
ATOM     20  C   UNL d   1      53.078  34.164  53.078  0.00  0.00     0.000 A 
ENDBRANCH   1  14
TORSDOF 1
ENDMDL
MODEL 2
REMARK VINA RESULT:     -10.2      1.726      3.142
REMARK  1 active torsions:
REMARK  status: ('A' for Active; 'I' for Inactive)
REMARK    1  A    between atoms: C_7  and  C_1 
ROOT
ATOM      1  C   UNL d   1      52.234  33.620  53.419  0.00  0.00     0.062 A 
ATOM      2  C   UNL d   1      52.589  34.171  53.899  0.00  0.00     0.199 A 
ATOM      3  C   UNL d   1      52.555  32.869  53.318  0.00  0.00     0.103 A 
ATOM      4  C   UNL d   1      53.300  33.984  54.308  0.00  0.00     0.062 A 
ATOM      5  C   UNL d   1      53.635  33.250  54.224  0.00  0.00     0.106 A 
ATOM      6  O   UNL d   1      53.266  32.682  53.727  0.00  0.00    -0.307 OA
ATOM      7  C   UNL d   1      54.333  33.066  54.624  0.00  0.00     0.067 A 
ATOM      8  C   UNL d   1      53.652  34.568  54.799  0.00  0.00     0.009 A 
ATOM      9  O   UNL d   1      52.220  34.945  53.977  0.00  0.00    -0.286 OA
ATOM     10  C   UNL d   1      54.684  33.619  55.102  0.00  0.00     0.198 A 
ATOM     11  C   UNL d   1      54.363  34.380  55.208  0.00  0.00     0.042 A 
ATOM     12  C   UNL d   1      52.186  32.298  52.821  0.00  0.00     0.027 C 
ATOM     13  O   UNL d   1      55.392  33.432  55.509  0.00  0.00    -0.286 OA
ENDROOT
BRANCH   1  14
ATOM     14  C   UNL d   1      51.543  33.820  53.030  0.00  0.00     0.005 A 
ATOM     15  C   UNL d   1      51.565  34.165  52.280  0.00  0.00     0.000 A 
ATOM     16  C   UNL d   1      52.302  34.314  51.908  0.00  0.00     0.000 C 
ATOM     17  C   UNL d   1      50.865  34.366  51.891  0.00  0.00     0.000 A 
ATOM     18  C   UNL d   1      50.158  34.220  52.254  0.00  0.00     0.000 A 
ATOM     19  C   UNL d   1      50.106  33.884  52.988  0.00  0.00     0.000 A 
ATOM     20  C   UNL d   1      50.813  33.679  53.385  0.00  0.00     0.000 A 
ENDBRANCH   1  14
TORSDOF 1
ENDMDL
MODEL 3
REMARK VINA RESULT:     -10.2      1.188      3.652
REMARK  1 active torsions:
REMARK  status: ('A' for Active; 'I' for Inactive)
REMARK    1  A    between atoms: C_7  and  C_1 
ROOT
ATOM      1  C   UNL d   1      53.246  32.554  53.909  0.00  0.00     0.062 A 
ATOM      2  C   UNL d   1      52.930  33.166  53.477  0.00  0.00     0.199 A 
ATOM      3  C   UNL d   1      53.582  32.680  54.649  0.00  0.00     0.103 A 
ATOM      4  C   UNL d   1      52.941  33.951  53.783  0.00  0.00     0.062 A 
ATOM      5  C   UNL d   1      53.267  34.099  54.511  0.00  0.00     0.106 A 
ATOM      6  O   UNL d   1      53.593  33.463  54.954  0.00  0.00    -0.307 OA
ATOM      7  C   UNL d   1      53.277  34.867  54.810  0.00  0.00     0.067 A 
ATOM      8  C   UNL d   1      52.609  34.571  53.322  0.00  0.00     0.009 A 
ATOM      9  O   UNL d   1      52.588  32.992  52.707  0.00  0.00    -0.286 OA
ATOM     10  C   UNL d   1      52.962  35.476  54.377  0.00  0.00     0.198 A 
ATOM     11  C   UNL d   1      52.620  35.354  53.627  0.00  0.00     0.042 A 
ATOM     12  C   UNL d   1      53.909  32.044  55.095  0.00  0.00     0.027 C 
ATOM     13  O   UNL d   1      52.972  36.256  54.681  0.00  0.00    -0.286 OA
ENDROOT
BRANCH   1  14
ATOM     14  C   UNL d   1      53.226  31.799  53.596  0.00  0.00     0.005 A 
ATOM     15  C   UNL d   1      53.889  31.478  53.224  0.00  0.00     0.000 A 
ATOM     16  C   UNL d   1      54.596  31.928  53.163  0.00  0.00     0.000 C 
ATOM     17  C   UNL d   1      53.866  30.715  52.909  0.00  0.00     0.000 A 
ATOM     18  C   UNL d   1      53.183  30.287  52.970  0.00  0.00     0.000 A 
ATOM     19  C   UNL d   1      52.518  30.575  53.329  0.00  0.00     0.000 A 
ATOM     20  C   UNL d   1      52.538  31.347  53.649  0.00  0.00     0.000 A 
ENDBRANCH   1  14
TORSDOF 1
ENDMDL
MODEL 4
REMARK VINA RESULT:     -10.0      1.429      2.996
REMARK  1 active torsions:
REMARK  status: ('A' for Active; 'I' for Inactive)
REMARK    1  A    between atoms: C_7  and  C_1 
ROOT
ATOM      1  C   UNL d   1      53.211  33.359  54.001  0.00  0.00     0.062 A 
ATOM      2  C   UNL d   1      52.799  34.041  53.838  0.00  0.00     0.199 A 
ATOM      3  C   UNL d   1      52.927  32.622  53.770  0.00  0.00     0.103 A 
ATOM      4  C   UNL d   1      52.067  34.007  53.424  0.00  0.00     0.062 A 
ATOM      5  C   UNL d   1      51.768  33.291  53.186  0.00  0.00     0.106 A 
ATOM      6  O   UNL d   1      52.196  32.588  53.356  0.00  0.00    -0.307 OA
ATOM      7  C   UNL d   1      51.051  33.258  52.780  0.00  0.00     0.067 A 
ATOM      8  C   UNL d   1      51.657  34.723  53.265  0.00  0.00     0.009 A 
ATOM      9  O   UNL d   1      53.130  34.792  54.098  0.00  0.00    -0.286 OA
ATOM     10  C   UNL d   1      50.643  33.940  52.619  0.00  0.00     0.198 A 
ATOM     11  C   UNL d   1      50.925  34.689  52.851  0.00  0.00     0.042 A 
ATOM     12  C   UNL d   1      53.354  31.916  53.939  0.00  0.00     0.027 C 
ATOM     13  O   UNL d   1      49.915  33.906  52.208  0.00  0.00    -0.286 OA
ENDROOT
BRANCH   1  14
ATOM     14  C   UNL d   1      53.920  33.412  54.404  0.00  0.00     0.005 A 
ATOM     15  C   UNL d   1      54.639  33.384  54.000  0.00  0.00     0.000 A 
ATOM     16  C   UNL d   1      54.649  33.300  53.165  0.00  0.00     0.000 C 
ATOM     17  C   UNL d   1      55.353  33.438  54.410  0.00  0.00     0.000 A 
ATOM     18  C   UNL d   1      55.338  33.519  55.214  0.00  0.00     0.000 A 
ATOM     19  C   UNL d   1      54.649  33.549  55.637  0.00  0.00     0.000 A 
ATOM     20  C   UNL d   1      53.924  33.495  55.224  0.00  0.00     0.000 A 
ENDBRANCH   1  14
TORSDOF 1
ENDMDL
