MODEL 1
REMARK VINA RESULT:      40.0      0.000      0.000
REMARK  5 active torsions:
REMARK  status: ('A' for Active; 'I' for Inactive)
REMARK    1  A    between atoms: C_3  and  N_1 
REMARK    2  A    between atoms: C_6  and  C_3 
REMARK    3  A    between atoms: C_9  and  C_3 
REMARK    4  A    between atoms: N_5  and  C_6 
REMARK    5  A    between atoms: O_18  and  C_14 
ROOT
ATOM      1  C   UNL d   1     -55.152-100.490 -44.100  0.00  0.00     0.106 C 
ENDROOT
BRANCH   1   2
ATOM      2  N   UNL d   1     -55.718 -99.902 -44.278  0.00  0.00    -0.228 N 
ATOM      3  N   UNL d   1     -56.521 -99.846 -44.109  0.00  0.00    -0.165 NA
ATOM      4  C   UNL d   1     -56.783 -99.128 -44.433  0.00  0.00     0.103 A 
ATOM      5  C   UNL d   1     -57.549 -98.821 -44.410  0.00  0.00     0.022 C 
ATOM      6  C   UNL d   1     -56.131 -98.761 -44.792  0.00  0.00     0.040 A 
ATOM      7  C   UNL d   1     -55.488 -99.232 -44.697  0.00  0.00     0.085 A 
ATOM      8  C   UNL d   1     -54.718 -99.054 -44.984  0.00  0.00     0.021 C 
ENDBRANCH   1   2
BRANCH   1   9
ATOM      9  C   UNL d   1     -54.711-100.827 -44.726  0.00  0.00     0.167 C 
BRANCH   9  10
ATOM     10  N   UNL d   1     -54.989-101.488 -45.121  0.00  0.00    -0.111 N 
ATOM     11  O   UNL d   1     -55.197-102.164 -44.698  0.00  0.00    -0.532 OA
ATOM     12  O   UNL d   1     -55.057-101.475 -45.937  0.00  0.00    -0.532 OA
ENDBRANCH   9  10
ENDBRANCH   1   9
BRANCH   1  13
ATOM     13  C   UNL d   1     -55.034-100.730 -43.309  0.00  0.00     0.019 A 
ATOM     14  C   UNL d   1     -54.817-100.188 -42.716  0.00  0.00     0.004 A 
ATOM     15  C   UNL d   1     -54.713-100.467 -41.958  0.00  0.00     0.024 A 
ATOM     16  C   UNL d   1     -54.824-101.276 -41.796  0.00  0.00     0.094 A 
ATOM     17  C   UNL d   1     -55.032-101.784 -42.375  0.00  0.00     0.024 A 
ATOM     18  C   UNL d   1     -55.142-101.520 -43.146  0.00  0.00     0.004 A 
BRANCH  16  19
ATOM     19  O   UNL d   1     -54.715-101.554 -41.016  0.00  0.00    -0.328 OA
ATOM     20  C   UNL d   1     -54.760-102.371 -40.848  0.00  0.00     0.181 C 
ENDBRANCH  16  19
ENDBRANCH   1  13
TORSDOF 5
ENDMDL
