MODEL 1
REMARK VINA RESULT:      -3.4      0.000      0.000
REMARK  5 active torsions:
REMARK  status: ('A' for Active; 'I' for Inactive)
REMARK    1  A    between atoms: C_5  and  N_1 
REMARK    2  A    between atoms: C_8  and  C_3 
REMARK    3  A    between atoms: C_7  and  C_4 
REMARK    4  A    between atoms: N_12  and  C_5 
REMARK    5  A    between atoms: N_11  and  C_10 
ROOT
ATOM      1  N   UNL d   1      57.798  -0.251  30.448  0.00  0.00    -0.203 N 
ATOM      2  N   UNL d   1      57.294   0.100  30.997  0.00  0.00    -0.163 NA
ATOM      3  C   UNL d   1      57.036  -0.436  31.508  0.00  0.00     0.103 A 
ATOM      4  C   UNL d   1      57.860  -1.048  30.621  0.00  0.00     0.087 A 
ATOM      5  C   UNL d   1      57.381  -1.183  31.294  0.00  0.00     0.040 A 
ENDROOT
BRANCH   4   6
ATOM      6  C   UNL d   1      58.335  -1.561  30.160  0.00  0.00     0.018 A 
ATOM      7  C   UNL d   1      59.152  -1.515  30.217  0.00  0.00     0.003 A 
ATOM      8  C   UNL d   1      59.622  -2.002  29.778  0.00  0.00     0.018 A 
ATOM      9  C   UNL d   1      59.278  -2.563  29.259  0.00  0.00     0.064 A 
ATOM     10  C   UNL d   1      58.461  -2.609  29.202  0.00  0.00     0.018 A 
ATOM     11  C   UNL d   1      57.980  -2.102  29.658  0.00  0.00     0.003 A 
BRANCH   9  12
ATOM     12  N   UNL d   1      59.802  -3.062  28.811  0.00  0.00    -0.301 N 
ATOM     13  C   UNL d   1      60.565  -2.768  28.613  0.00  0.00     0.100 C 
ATOM     14  C   UNL d   1      59.674  -3.797  28.539  0.00  0.00     0.100 C 
ENDBRANCH   9  12
ENDBRANCH   4   6
BRANCH   1  15
ATOM     15  C   UNL d   1      58.190   0.144  29.806  0.00  0.00     0.222 C 
ATOM     16  S   UNL d   1      58.947   0.505  29.950  0.00  0.00    -0.037 SA
BRANCH  15  17
ATOM     17  N   UNL d   1      57.840   0.172  29.071  0.00  0.00    -0.214 NA
ATOM     18  C   UNL d   1      58.146   0.677  28.459  0.00  0.00     0.122 C 
ENDBRANCH  15  17
ENDBRANCH   1  15
BRANCH   3  19
ATOM     19  C   UNL d   1      56.523  -0.273  32.131  0.00  0.00     0.019 A 
ATOM     20  C   UNL d   1      56.322  -0.860  32.697  0.00  0.00     0.002 A 
ATOM     21  C   UNL d   1      55.809  -0.697  33.320  0.00  0.00     0.007 A 
ATOM     22  C   UNL d   1      55.497   0.056  33.374  0.00  0.00     0.035 A 
ATOM     23  C   UNL d   1      55.684   0.652  32.823  0.00  0.00     0.007 A 
ATOM     24 BR   UNL d   1      54.959   0.220  34.030  0.00  0.00    -0.049 Br
ATOM     25  C   UNL d   1      56.197   0.482  32.203  0.00  0.00     0.002 A 
ENDBRANCH   3  19
TORSDOF 5
ENDMDL
