MODEL 1
REMARK VINA RESULT:      65.9      0.000      0.000
REMARK  7 active torsions:
REMARK  status: ('A' for Active; 'I' for Inactive)
REMARK    1  A    between atoms: C_17  and  N_1 
REMARK       I    between atoms: C_4  and  N_7 
REMARK    2  A    between atoms: C_8  and  C_4 
REMARK    3  A    between atoms: N_7  and  C_26 
REMARK    4  A    between atoms: C_9  and  N_7 
REMARK    5  A    between atoms: C_27  and  C_17 
REMARK    6  A    between atoms: C_26  and  C_28 
REMARK    7  A    between atoms: C_28  and  C_27 
ROOT
ATOM      1  C   UNL d   1     -48.098  29.406  35.361  0.00  0.00     0.287 C 
ATOM      2  N   UNL d   1     -48.384  29.736  34.659  0.00  0.00    -0.272 N 
ATOM      3  O   UNL d   1     -48.312  28.654  35.573  0.00  0.00    -0.264 OA
ENDROOT
BRANCH   2   4
ATOM      4  C   UNL d   1     -48.877  29.303  34.185  0.00  0.00     0.083 C 
BRANCH   4   5
ATOM      5  C   UNL d   1     -49.088  28.530  34.403  0.00  0.00     0.021 C 
BRANCH   5   6
ATOM      6  C   UNL d   1     -49.081  27.935  33.847  0.00  0.00     0.021 C 
BRANCH   6   7
ATOM      7  C   UNL d   1     -49.734  27.834  33.354  0.00  0.00     0.086 C 
BRANCH   7   8
ATOM      8  N   UNL d   1     -50.133  27.096  33.347  0.00  0.00    -0.240 N 
ATOM      9  C   UNL d   1     -50.917  26.998  33.325  0.00  0.00     0.267 A 
ATOM     10  C   UNL d   1     -51.079  26.194  33.324  0.00  0.00     0.061 A 
ATOM     11  O   UNL d   1     -51.512  27.620  33.306  0.00  0.00    -0.267 OA
ATOM     12  C   UNL d   1     -51.776  25.777  33.307  0.00  0.00     0.005 A 
ATOM     13  C   UNL d   1     -50.342  25.796  33.346  0.00  0.00     0.061 A 
ATOM     14  C   UNL d   1     -51.753  24.947  33.311  0.00  0.00     0.000 A 
ATOM     15  C   UNL d   1     -51.016  24.548  33.333  0.00  0.00     0.000 A 
ATOM     16  C   UNL d   1     -50.318  24.988  33.351  0.00  0.00     0.005 A 
ATOM     17  C   UNL d   1     -49.758  26.371  33.360  0.00  0.00     0.267 A 
ATOM     18  O   UNL d   1     -48.917  26.217  33.384  0.00  0.00    -0.267 OA
ENDBRANCH   7   8
ENDBRANCH   6   7
ENDBRANCH   5   6
ENDBRANCH   4   5
ENDBRANCH   2   4
BRANCH   2  19
ATOM     19  C   UNL d   1     -48.171  30.503  34.435  0.00  0.00     0.067 A 
ATOM     20  C   UNL d   1     -47.377  30.706  34.322  0.00  0.00     0.018 A 
ATOM     21  C   UNL d   1     -47.165  31.473  34.098  0.00  0.00     0.013 A 
ATOM     22  C   UNL d   1     -47.747  32.039  33.987  0.00  0.00     0.058 A 
ATOM     23  C   UNL d   1     -48.538  31.833  34.100  0.00  0.00     0.013 A 
ATOM     24 CL   UNL d   1     -47.531  32.803  33.763  0.00  0.00    -0.082 Cl
ATOM     25  C   UNL d   1     -48.754  31.068  34.323  0.00  0.00     0.018 A 
ENDBRANCH   2  19
BRANCH   1  26
ATOM     26  C   UNL d   1     -47.599  29.844  35.841  0.00  0.00     0.156 A 
ATOM     27  O   UNL d   1     -47.473  30.654  35.942  0.00  0.00    -0.300 OA
ATOM     28  C   UNL d   1     -46.892  30.768  36.511  0.00  0.00     0.123 A 
ATOM     29  C   UNL d   1     -46.662  30.053  36.757  0.00  0.00     0.029 A 
ATOM     30  C   UNL d   1     -47.086  29.453  36.356  0.00  0.00     0.032 A 
ENDBRANCH   1  26
TORSDOF 7
ENDMDL
