MODEL 1
REMARK VINA RESULT:      52.2      0.000      0.000
REMARK  1 active torsions:
REMARK  status: ('A' for Active; 'I' for Inactive)
REMARK    1  A    between atoms: C_7  and  N_2 
ROOT
ATOM      1  C   UNL d   1      59.201  49.556  51.429  0.00  0.00     0.304 A 
ATOM      2  N   UNL d   1      60.000  49.512  51.167  0.00  0.00    -0.272 N 
ATOM      3  C   UNL d   1      59.201  49.640  52.268  0.00  0.00     0.253 A 
ATOM      4  C   UNL d   1      60.484  49.566  51.814  0.00  0.00     0.070 A 
ATOM      5  C   UNL d   1      60.001  49.643  52.479  0.00  0.00     0.060 A 
ATOM      6  O   UNL d   1      58.506  49.522  50.929  0.00  0.00    -0.263 OA
ATOM      7  O   UNL d   1      58.582  49.706  52.787  0.00  0.00    -0.281 OA
ATOM      8  C   UNL d   1      61.240  49.558  51.903  0.00  0.00     0.018 A 
ATOM      9  C   UNL d   1      60.306  49.707  53.187  0.00  0.00     0.005 A 
ATOM     10  C   UNL d   1      61.627  49.623  52.639  0.00  0.00     0.002 A 
ATOM     11  C   UNL d   1      61.144  49.700  53.303  0.00  0.00     0.000 A 
ENDROOT
BRANCH   2  12
ATOM     12  C   UNL d   1      60.289  49.430  50.412  0.00  0.00     0.067 A 
ATOM     13  C   UNL d   1      59.871  49.708  49.768  0.00  0.00     0.018 A 
ATOM     14  C   UNL d   1      60.173  49.619  49.003  0.00  0.00     0.002 A 
ATOM     15  C   UNL d   1      60.891  49.253  48.896  0.00  0.00     0.000 A 
ATOM     16  C   UNL d   1      61.321  48.969  49.547  0.00  0.00     0.002 A 
ATOM     17  C   UNL d   1      61.019  49.057  50.306  0.00  0.00     0.018 A 
ENDBRANCH   2  12
TORSDOF 1
ENDMDL
