MODEL 1
REMARK VINA RESULT:      79.8      0.000      0.000
REMARK  8 active torsions:
REMARK  status: ('A' for Active; 'I' for Inactive)
REMARK    1  A    between atoms: C_22  and  N_1 
REMARK       I    between atoms: N_8  and  C_12 
REMARK    2  A    between atoms: C_12  and  C_27 
REMARK    3  A    between atoms: C_23  and  N_13 
REMARK    4  A    between atoms: C_30  and  C_22 
REMARK    5  A    between atoms: C_26  and  C_23 
REMARK    6  A    between atoms: C_27  and  C_31 
REMARK    7  A    between atoms: C_32  and  C_30 
REMARK    8  A    between atoms: C_31  and  C_32 
ROOT
ATOM      1  C   UNL d   1     -49.761  27.501  34.547  0.00  0.00     0.002 C 
ENDROOT
BRANCH   1   2
ATOM      2  C   UNL d   1     -49.230  27.800  35.110  0.00  0.00     0.005 C 
BRANCH   2   3
ATOM      3  C   UNL d   1     -48.741  28.443  34.921  0.00  0.00     0.061 C 
BRANCH   3   4
ATOM      4  C   UNL d   1     -48.428  28.916  35.531  0.00  0.00     0.265 C 
ATOM      5  N   UNL d   1     -48.029  29.625  35.353  0.00  0.00    -0.269 N 
ATOM      6  C   UNL d   1     -47.722  30.086  35.963  0.00  0.00     0.102 A 
ATOM      7  C   UNL d   1     -47.939  29.867  34.571  0.00  0.00     0.102 A 
ATOM      8  C   UNL d   1     -47.324  30.793  35.790  0.00  0.00     0.100 A 
ATOM      9  N   UNL d   1     -47.235  31.034  35.007  0.00  0.00    -0.300 N 
ATOM     10  C   UNL d   1     -47.541  30.573  34.398  0.00  0.00     0.100 A 
ATOM     11  O   UNL d   1     -48.513  28.682  36.319  0.00  0.00    -0.267 OA
BRANCH   9  12
ATOM     12  C   UNL d   1     -46.839  31.737  34.835  0.00  0.00     0.080 C 
BRANCH  12  13
ATOM     13  C   UNL d   1     -47.209  32.321  34.389  0.00  0.00     0.018 A 
ATOM     14  C   UNL d   1     -48.018  32.270  34.238  0.00  0.00     0.002 A 
ATOM     15  C   UNL d   1     -48.395  32.857  33.789  0.00  0.00     0.000 A 
ATOM     16  C   UNL d   1     -47.958  33.492  33.493  0.00  0.00     0.000 A 
ATOM     17  C   UNL d   1     -47.145  33.539  33.647  0.00  0.00     0.000 A 
ATOM     18  C   UNL d   1     -46.773  32.955  34.093  0.00  0.00     0.002 A 
ENDBRANCH  12  13
ENDBRANCH   9  12
ENDBRANCH   3   4
ENDBRANCH   2   3
ENDBRANCH   1   2
BRANCH   1  19
ATOM     19  C   UNL d   1     -50.172  26.799  34.690  0.00  0.00     0.019 C 
BRANCH  19  20
ATOM     20  C   UNL d   1     -50.992  26.772  34.623  0.00  0.00     0.085 C 
BRANCH  20  21
ATOM     21  N   UNL d   1     -51.359  26.108  34.294  0.00  0.00    -0.249 N 
ATOM     22  C   UNL d   1     -52.079  25.830  34.604  0.00  0.00     0.268 A 
ATOM     23  C   UNL d   1     -52.442  25.169  34.275  0.00  0.00     0.076 A 
ATOM     24  O   UNL d   1     -52.427  26.219  35.243  0.00  0.00    -0.267 OA
ATOM     25  C   UNL d   1     -53.155  24.897  34.585  0.00  0.00     0.033 A 
ATOM     26  C   UNL d   1     -52.093  24.780  33.636  0.00  0.00     0.090 A 
ATOM     27  C   UNL d   1     -53.521  24.233  34.255  0.00  0.00     0.119 A 
ATOM     28  O   UNL d   1     -54.221  23.839  34.442  0.00  0.00    -0.300 OA
ATOM     29  C   UNL d   1     -53.173  23.844  33.617  0.00  0.00     0.121 A 
ATOM     30  C   UNL d   1     -54.301  23.211  33.919  0.00  0.00     0.304 A 
ATOM     31  O   UNL d   1     -53.659  23.213  33.412  0.00  0.00    -0.299 OA
ATOM     32  C   UNL d   1     -52.458  24.119  33.307  0.00  0.00     0.046 A 
ATOM     33  N   UNL d   1     -51.381  25.053  33.326  0.00  0.00    -0.218 NA
ATOM     34  C   UNL d   1     -51.011  25.719  33.655  0.00  0.00     0.208 A 
ATOM     35  S   UNL d   1     -50.292  25.991  33.340  0.00  0.00    -0.038 SA
ENDBRANCH  20  21
ENDBRANCH  19  20
ENDBRANCH   1  19
TORSDOF 8
ENDMDL
