MODEL 1
REMARK VINA RESULT:      -8.6      0.000      0.000
REMARK  2 active torsions:
REMARK  status: ('A' for Active; 'I' for Inactive)
REMARK    1  A    between atoms: C_7  and  C_1 
REMARK    2  A    between atoms: O_15  and  C_11 
ROOT
ATOM      1  C   UNL d   1     -48.272  13.314  22.764  0.00  0.00     0.103 A 
ATOM      2  C   UNL d   1     -48.696  13.073  22.099  0.00  0.00     0.067 A 
ATOM      3  O   UNL d   1     -48.524  13.949  23.188  0.00  0.00    -0.307 OA
ATOM      4  C   UNL d   1     -49.373  13.469  21.857  0.00  0.00     0.200 A 
ATOM      5  C   UNL d   1     -49.627  14.133  22.310  0.00  0.00     0.062 A 
ATOM      6  C   UNL d   1     -49.202  14.373  22.975  0.00  0.00     0.103 A 
ATOM      7  O   UNL d   1     -49.781  13.209  21.188  0.00  0.00    -0.286 OA
ATOM      8  C   UNL d   1     -50.307  14.532  22.069  0.00  0.00     0.005 A 
ATOM      9  C   UNL d   1     -49.458  15.013  23.400  0.00  0.00     0.025 A 
ATOM     10  C   UNL d   1     -50.543  15.176  22.518  0.00  0.00     0.000 A 
ATOM     11  C   UNL d   1     -50.119  15.417  23.183  0.00  0.00     0.002 A 
ENDROOT
BRANCH   1  12
ATOM     12  C   UNL d   1     -47.607  12.905  22.980  0.00  0.00     0.023 A 
ATOM     13  C   UNL d   1     -47.661  12.223  23.451  0.00  0.00     0.004 A 
ATOM     14  C   UNL d   1     -46.999  11.793  23.682  0.00  0.00     0.024 A 
ATOM     15  C   UNL d   1     -46.244  12.071  23.420  0.00  0.00     0.094 A 
ATOM     16  C   UNL d   1     -46.191  12.754  22.949  0.00  0.00     0.024 A 
ATOM     17  C   UNL d   1     -46.849  13.166  22.730  0.00  0.00     0.004 A 
BRANCH  15  18
ATOM     18  O   UNL d   1     -45.536  11.636  23.650  0.00  0.00    -0.328 OA
ATOM     19  C   UNL d   1     -45.579  10.802  23.686  0.00  0.00     0.181 C 
ENDBRANCH  15  18
ENDBRANCH   1  12
TORSDOF 2
ENDMDL
MODEL 2
REMARK VINA RESULT:      -8.4      1.017      4.160
REMARK  2 active torsions:
REMARK  status: ('A' for Active; 'I' for Inactive)
REMARK    1  A    between atoms: C_7  and  C_1 
REMARK    2  A    between atoms: O_15  and  C_11 
ROOT
ATOM      1  C   UNL d   1     -47.877  13.523  22.942  0.00  0.00     0.103 A 
ATOM      2  C   UNL d   1     -47.116  13.816  22.819  0.00  0.00     0.067 A 
ATOM      3  O   UNL d   1     -47.975  12.763  23.187  0.00  0.00    -0.307 OA
ATOM      4  C   UNL d   1     -46.453  13.348  22.941  0.00  0.00     0.200 A 
ATOM      5  C   UNL d   1     -46.570  12.554  23.199  0.00  0.00     0.062 A 
ATOM      6  C   UNL d   1     -47.331  12.262  23.322  0.00  0.00     0.103 A 
ATOM      7  O   UNL d   1     -45.701  13.664  22.811  0.00  0.00    -0.286 OA
ATOM      8  C   UNL d   1     -45.904  12.083  23.322  0.00  0.00     0.005 A 
ATOM      9  C   UNL d   1     -47.427  11.497  23.569  0.00  0.00     0.025 A 
ATOM     10  C   UNL d   1     -46.032  11.313  23.573  0.00  0.00     0.000 A 
ATOM     11  C   UNL d   1     -46.793  11.020  23.696  0.00  0.00     0.002 A 
ENDROOT
BRANCH   1  12
ATOM     12  C   UNL d   1     -48.514  14.006  22.813  0.00  0.00     0.023 A 
ATOM     13  C   UNL d   1     -48.729  14.584  23.370  0.00  0.00     0.004 A 
ATOM     14  C   UNL d   1     -49.372  15.084  23.259  0.00  0.00     0.024 A 
ATOM     15  C   UNL d   1     -49.818  14.993  22.547  0.00  0.00     0.094 A 
ATOM     16  C   UNL d   1     -49.602  14.415  21.989  0.00  0.00     0.024 A 
ATOM     17  C   UNL d   1     -48.969  13.930  22.111  0.00  0.00     0.004 A 
BRANCH  15  18
ATOM     18  O   UNL d   1     -50.497  15.507  22.409  0.00  0.00    -0.328 OA
ATOM     19  C   UNL d   1     -51.060  15.589  23.021  0.00  0.00     0.181 C 
ENDBRANCH  15  18
ENDBRANCH   1  12
TORSDOF 2
ENDMDL
MODEL 3
REMARK VINA RESULT:      -8.1      1.599      1.994
REMARK  2 active torsions:
REMARK  status: ('A' for Active; 'I' for Inactive)
REMARK    1  A    between atoms: C_7  and  C_1 
REMARK    2  A    between atoms: O_15  and  C_11 
ROOT
ATOM      1  C   UNL d   1     -48.183  12.838  23.052  0.00  0.00     0.103 A 
ATOM      2  C   UNL d   1     -48.349  12.060  23.271  0.00  0.00     0.067 A 
ATOM      3  O   UNL d   1     -48.774  13.384  23.047  0.00  0.00    -0.307 OA
ATOM      4  C   UNL d   1     -49.106  11.828  23.483  0.00  0.00     0.200 A 
ATOM      5  C   UNL d   1     -49.717  12.409  23.474  0.00  0.00     0.062 A 
ATOM      6  C   UNL d   1     -49.551  13.187  23.255  0.00  0.00     0.103 A 
ATOM      7  O   UNL d   1     -49.247  11.043  23.698  0.00  0.00    -0.286 OA
ATOM      8  C   UNL d   1     -50.479  12.178  23.687  0.00  0.00     0.005 A 
ATOM      9  C   UNL d   1     -50.147  13.734  23.251  0.00  0.00     0.025 A 
ATOM     10  C   UNL d   1     -51.063  12.752  23.674  0.00  0.00     0.000 A 
ATOM     11  C   UNL d   1     -50.897  13.530  23.455  0.00  0.00     0.002 A 
ENDROOT
BRANCH   1  12
ATOM     12  C   UNL d   1     -47.427  13.040  22.847  0.00  0.00     0.023 A 
ATOM     13  C   UNL d   1     -46.949  13.483  23.363  0.00  0.00     0.004 A 
ATOM     14  C   UNL d   1     -46.179  13.699  23.174  0.00  0.00     0.024 A 
ATOM     15  C   UNL d   1     -45.879  13.453  22.423  0.00  0.00     0.094 A 
ATOM     16  C   UNL d   1     -46.356  13.010  21.906  0.00  0.00     0.024 A 
ATOM     17  C   UNL d   1     -47.111  12.805  22.105  0.00  0.00     0.004 A 
BRANCH  15  18
ATOM     18  O   UNL d   1     -45.072  13.668  22.203  0.00  0.00    -0.328 OA
ATOM     19  C   UNL d   1     -44.597  13.090  21.832  0.00  0.00     0.181 C 
ENDBRANCH  15  18
ENDBRANCH   1  12
TORSDOF 2
ENDMDL
MODEL 4
REMARK VINA RESULT:      -6.2      8.286      9.755
REMARK  2 active torsions:
REMARK  status: ('A' for Active; 'I' for Inactive)
REMARK    1  A    between atoms: C_7  and  C_1 
REMARK    2  A    between atoms: O_15  and  C_11 
ROOT
ATOM      1  C   UNL d   1     -40.045  14.559  19.579  0.00  0.00     0.103 A 
ATOM      2  C   UNL d   1     -40.601  14.540  20.187  0.00  0.00     0.067 A 
ATOM      3  O   UNL d   1     -39.288  14.328  19.726  0.00  0.00    -0.307 OA
ATOM      4  C   UNL d   1     -40.401  14.291  20.943  0.00  0.00     0.200 A 
ATOM      5  C   UNL d   1     -39.605  14.052  21.083  0.00  0.00     0.062 A 
ATOM      6  C   UNL d   1     -39.049  14.071  20.475  0.00  0.00     0.103 A 
ATOM      7  O   UNL d   1     -40.976  14.281  21.535  0.00  0.00    -0.286 OA
ATOM      8  C   UNL d   1     -39.402  13.801  21.842  0.00  0.00     0.005 A 
ATOM      9  C   UNL d   1     -38.288  13.838  20.625  0.00  0.00     0.025 A 
ATOM     10  C   UNL d   1     -38.625  13.571  21.966  0.00  0.00     0.000 A 
ATOM     11  C   UNL d   1     -38.068  13.590  21.357  0.00  0.00     0.002 A 
ENDROOT
BRANCH   1  12
ATOM     12  C   UNL d   1     -40.269  14.809  18.843  0.00  0.00     0.023 A 
ATOM     13  C   UNL d   1     -40.409  15.615  18.691  0.00  0.00     0.004 A 
ATOM     14  C   UNL d   1     -40.638  15.890  17.951  0.00  0.00     0.024 A 
ATOM     15  C   UNL d   1     -40.729  15.319  17.334  0.00  0.00     0.094 A 
ATOM     16  C   UNL d   1     -40.589  14.514  17.486  0.00  0.00     0.024 A 
ATOM     17  C   UNL d   1     -40.365  14.257  18.217  0.00  0.00     0.004 A 
BRANCH  15  18
ATOM     18  O   UNL d   1     -40.968  15.585  16.549  0.00  0.00    -0.328 OA
ATOM     19  C   UNL d   1     -41.729  15.922  16.462  0.00  0.00     0.181 C 
ENDBRANCH  15  18
ENDBRANCH   1  12
TORSDOF 2
ENDMDL
