MODEL 1
REMARK VINA RESULT:     110.5      0.000      0.000
REMARK  4 active torsions:
REMARK  status: ('A' for Active; 'I' for Inactive)
REMARK    1  A    between atoms: N_2  and  C_1 
REMARK    2  A    between atoms: C_16  and  N_6 
REMARK    3  A    between atoms: C_14  and  C_7 
REMARK    4  A    between atoms: N_8  and  C_12 
ROOT
ATOM      1  N   UNL d   1     -56.028 -99.057 -44.125  0.00  0.00    -0.288 N 
ATOM      2  C   UNL d   1     -55.777 -99.135 -43.367  0.00  0.00     0.196 A 
ATOM      3  S   UNL d   1     -54.953 -99.177 -43.362  0.00  0.00    -0.092 SA
ATOM      4  C   UNL d   1     -55.381 -99.048 -44.621  0.00  0.00     0.268 A 
ATOM      5  C   UNL d   1     -54.713 -99.122 -44.154  0.00  0.00     0.093 A 
ATOM      6  O   UNL d   1     -55.387 -98.975 -45.462  0.00  0.00    -0.266 OA
ENDROOT
BRANCH   1   7
ATOM      7  C   UNL d   1     -56.838 -99.000 -44.304  0.00  0.00     0.139 A 
ATOM      8  C   UNL d   1     -57.145 -99.064 -45.077  0.00  0.00     0.296 A 
ATOM      9  N   UNL d   1     -57.979 -98.978 -45.034  0.00  0.00    -0.209 N 
ATOM     10  O   UNL d   1     -56.669 -99.191 -45.752  0.00  0.00    -0.264 OA
ATOM     11  N   UNL d   1     -58.181 -98.864 -44.250  0.00  0.00    -0.238 N 
ATOM     12  C   UNL d   1     -57.475 -98.878 -43.796  0.00  0.00     0.102 A 
ATOM     13  C   UNL d   1     -58.929 -98.756 -43.949  0.00  0.00     0.120 C 
ATOM     14  C   UNL d   1     -57.434 -98.783 -42.977  0.00  0.00     0.022 C 
BRANCH   9  15
ATOM     15  C   UNL d   1     -58.565 -98.991 -45.610  0.00  0.00     0.085 A 
ATOM     16  C   UNL d   1     -58.403 -99.206 -46.372  0.00  0.00     0.019 A 
ATOM     17  C   UNL d   1     -58.990 -99.218 -46.947  0.00  0.00     0.002 A 
ATOM     18  C   UNL d   1     -59.758 -99.009 -46.748  0.00  0.00     0.000 A 
ATOM     19  C   UNL d   1     -59.929 -98.792 -45.987  0.00  0.00     0.002 A 
ATOM     20  C   UNL d   1     -59.346 -98.775 -45.394  0.00  0.00     0.019 A 
ENDBRANCH   9  15
ENDBRANCH   1   7
BRANCH   2  21
ATOM     21  C   UNL d   1     -55.591 -99.213 -42.565  0.00  0.00    -0.001 A 
ATOM     22  C   UNL d   1     -56.019 -98.784 -41.994  0.00  0.00    -0.001 A 
ATOM     23  C   UNL d   1     -55.830 -98.864 -41.184  0.00  0.00     0.023 A 
ATOM     24  C   UNL d   1     -55.222 -99.366 -40.954  0.00  0.00     0.127 A 
ATOM     25  C   UNL d   1     -54.797 -99.792 -41.525  0.00  0.00     0.023 A 
ATOM     26  C   UNL d   1     -54.986 -99.712 -42.335  0.00  0.00    -0.001 A 
BRANCH  24  27
ATOM     27  N   UNL d   1     -55.050 -99.433 -40.161  0.00  0.00    -0.114 N 
ATOM     28  O   UNL d   1     -55.060-100.147 -39.746  0.00  0.00    -0.532 OA
ATOM     29  O   UNL d   1     -54.843 -98.813 -39.663  0.00  0.00    -0.532 OA
ENDBRANCH  24  27
ENDBRANCH   2  21
TORSDOF 4
ENDMDL
