MODEL 1
REMARK VINA RESULT:      82.1      0.000      0.000
REMARK  5 active torsions:
REMARK  status: ('A' for Active; 'I' for Inactive)
REMARK    1  A    between atoms: C_7  and  N_1 
REMARK    2  A    between atoms: C_15  and  C_3 
REMARK    3  A    between atoms: N_4  and  C_8 
REMARK    4  A    between atoms: C_10  and  C_11 
REMARK       I    between atoms: C_11  and  N_12 
REMARK    5  A    between atoms: N_12  and  C_15 
ROOT
ATOM      1  C   UNL d   1      58.726  49.215  50.628  0.00  0.00     0.141 C 
ENDROOT
BRANCH   1   2
ATOM      2  N   UNL d   1      59.220  48.567  50.748  0.00  0.00    -0.203 NA
ATOM      3  C   UNL d   1      60.041  48.665  50.693  0.00  0.00     0.279 C 
ATOM      4  O   UNL d   1      60.350  49.390  50.524  0.00  0.00    -0.265 OA
BRANCH   3   5
ATOM      5  C   UNL d   1      60.534  48.009  50.815  0.00  0.00     0.059 A 
ATOM      6  C   UNL d   1      61.117  47.830  50.260  0.00  0.00     0.027 A 
ATOM      7  C   UNL d   1      61.597  47.189  50.380  0.00  0.00     0.127 A 
ATOM      8  C   UNL d   1      61.196  48.307  49.596  0.00  0.00     0.002 C 
ATOM      9  C   UNL d   1      61.512  46.709  51.055  0.00  0.00     0.024 A 
ATOM     10  C   UNL d   1      60.935  46.879  51.612  0.00  0.00     0.002 A 
ATOM     11  C   UNL d   1      60.452  47.522  51.493  0.00  0.00     0.005 A 
BRANCH   7  12
ATOM     12  N   UNL d   1      62.170  47.020  49.825  0.00  0.00    -0.114 N 
ATOM     13  O   UNL d   1      62.319  46.243  49.592  0.00  0.00    -0.532 OA
ATOM     14  O   UNL d   1      62.612  47.637  49.486  0.00  0.00    -0.532 OA
ENDBRANCH   7  12
ENDBRANCH   3   5
ENDBRANCH   1   2
BRANCH   1  15
ATOM     15  C   UNL d   1      58.114  49.372  51.159  0.00  0.00     0.191 A 
ATOM     16  N   UNL d   1      57.309  49.339  51.006  0.00  0.00    -0.264 N 
ATOM     17  C   UNL d   1      56.898  49.534  51.683  0.00  0.00     0.227 A 
ATOM     18  N   UNL d   1      57.456  49.695  52.281  0.00  0.00    -0.117 NA
ATOM     19  S   UNL d   1      56.083  49.568  51.771  0.00  0.00    -0.036 SA
ATOM     20  N   UNL d   1      58.213  49.594  51.954  0.00  0.00    -0.126 NA
BRANCH  16  21
ATOM     21  C   UNL d   1      56.969  49.138  50.278  0.00  0.00     0.068 A 
ATOM     22  C   UNL d   1      56.682  48.379  50.168  0.00  0.00     0.018 A 
ATOM     23  C   UNL d   1      56.343  48.184  49.439  0.00  0.00     0.001 A 
ATOM     24  C   UNL d   1      56.047  47.420  49.310  0.00  0.00     0.000 C 
ATOM     25  C   UNL d   1      56.294  48.748  48.829  0.00  0.00     0.000 A 
ATOM     26  C   UNL d   1      56.587  49.496  48.963  0.00  0.00     0.002 A 
ATOM     27  C   UNL d   1      56.927  49.706  49.683  0.00  0.00     0.018 A 
ENDBRANCH  16  21
ENDBRANCH   1  15
TORSDOF 5
ENDMDL
MODEL 2
REMARK VINA RESULT:      83.9      2.399      4.799
REMARK  5 active torsions:
REMARK  status: ('A' for Active; 'I' for Inactive)
REMARK    1  A    between atoms: C_7  and  N_1 
REMARK    2  A    between atoms: C_15  and  C_3 
REMARK    3  A    between atoms: N_4  and  C_8 
REMARK    4  A    between atoms: C_10  and  C_11 
REMARK       I    between atoms: C_11  and  N_12 
REMARK    5  A    between atoms: N_12  and  C_15 
ROOT
ATOM      1  C   UNL d   1      59.443  49.388  50.887  0.00  0.00     0.141 C 
ENDROOT
BRANCH   1   2
ATOM      2  N   UNL d   1      58.797  49.189  50.417  0.00  0.00    -0.203 NA
ATOM      3  C   UNL d   1      58.031  49.344  50.691  0.00  0.00     0.279 C 
ATOM      4  O   UNL d   1      57.922  49.686  51.413  0.00  0.00    -0.265 OA
BRANCH   3   5
ATOM      5  C   UNL d   1      57.384  49.141  50.213  0.00  0.00     0.059 A 
ATOM      6  C   UNL d   1      57.094  48.369  50.227  0.00  0.00     0.027 A 
ATOM      7  C   UNL d   1      56.462  48.173  49.760  0.00  0.00     0.127 A 
ATOM      8  C   UNL d   1      57.455  47.817  50.716  0.00  0.00     0.002 C 
ATOM      9  C   UNL d   1      56.101  48.738  49.267  0.00  0.00     0.024 A 
ATOM     10  C   UNL d   1      56.382  49.508  49.246  0.00  0.00     0.002 A 
ATOM     11  C   UNL d   1      57.016  49.707  49.714  0.00  0.00     0.005 A 
BRANCH   7  12
ATOM     12  N   UNL d   1      56.184  47.406  49.781  0.00  0.00    -0.114 N 
ATOM     13  O   UNL d   1      56.033  46.991  49.085  0.00  0.00    -0.532 OA
ATOM     14  O   UNL d   1      56.049  47.035  50.511  0.00  0.00    -0.532 OA
ENDBRANCH   7  12
ENDBRANCH   3   5
ENDBRANCH   1   2
BRANCH   1  15
ATOM     15  C   UNL d   1      60.191  49.472  50.547  0.00  0.00     0.191 A 
ATOM     16  N   UNL d   1      60.915  49.364  50.917  0.00  0.00    -0.264 N 
ATOM     17  C   UNL d   1      61.515  49.503  50.381  0.00  0.00     0.227 A 
ATOM     18  N   UNL d   1      61.162  49.706  49.653  0.00  0.00    -0.117 NA
ATOM     19  S   UNL d   1      62.321  49.456  50.522  0.00  0.00    -0.036 SA
ATOM     20  N   UNL d   1      60.338  49.687  49.757  0.00  0.00    -0.126 NA
BRANCH  16  21
ATOM     21  C   UNL d   1      61.019  49.146  51.709  0.00  0.00     0.068 A 
ATOM     22  C   UNL d   1      60.846  48.379  51.938  0.00  0.00     0.018 A 
ATOM     23  C   UNL d   1      60.952  48.166  52.730  0.00  0.00     0.001 A 
ATOM     24  C   UNL d   1      60.782  47.394  52.979  0.00  0.00     0.000 C 
ATOM     25  C   UNL d   1      61.229  48.722  53.285  0.00  0.00     0.000 A 
ATOM     26  C   UNL d   1      61.394  49.479  53.032  0.00  0.00     0.002 A 
ATOM     27  C   UNL d   1      61.294  49.706  52.247  0.00  0.00     0.018 A 
ENDBRANCH  16  21
ENDBRANCH   1  15
TORSDOF 5
ENDMDL
