MODEL 1
REMARK VINA RESULT:      76.1      0.000      0.000
REMARK  5 active torsions:
REMARK  status: ('A' for Active; 'I' for Inactive)
REMARK    1  A    between atoms: C_9  and  C_2 
REMARK    2  A    between atoms: O_8  and  C_4 
REMARK    3  A    between atoms: C_14  and  O_8 
REMARK    4  A    between atoms: N_11  and  C_9 
REMARK    5  A    between atoms: O_20  and  C_18 
ROOT
ATOM      1  C   UNL d   1     -57.227 -99.015 -43.776  0.00  0.00     0.108 A 
ATOM      2  C   UNL d   1     -56.480 -99.060 -44.136  0.00  0.00     0.079 A 
ATOM      3  C   UNL d   1     -57.909 -98.912 -44.243  0.00  0.00     0.064 A 
ATOM      4  C   UNL d   1     -58.722 -98.927 -43.057  0.00  0.00     0.163 A 
ATOM      5  C   UNL d   1     -58.646 -98.868 -43.886  0.00  0.00     0.222 A 
ATOM      6  O   UNL d   1     -57.286 -99.075 -42.950  0.00  0.00    -0.303 OA
ATOM      7  C   UNL d   1     -58.036 -99.031 -42.588  0.00  0.00     0.150 A 
ATOM      8  C   UNL d   1     -57.826 -98.854 -45.067  0.00  0.00     0.009 A 
ATOM      9  C   UNL d   1     -56.410 -99.001 -44.953  0.00  0.00     0.199 A 
ATOM     10  O   UNL d   1     -59.323 -98.766 -44.345  0.00  0.00    -0.284 OA
ATOM     11  C   UNL d   1     -57.083 -98.899 -45.419  0.00  0.00     0.042 A 
ATOM     12  O   UNL d   1     -55.667 -99.046 -45.306  0.00  0.00    -0.286 OA
ENDROOT
BRANCH   4  13
ATOM     13  O   UNL d   1     -59.461 -98.883 -42.703  0.00  0.00    -0.302 OA
BRANCH  13  14
ATOM     14  C   UNL d   1     -59.603 -99.277 -41.993  0.00  0.00     0.102 A 
ATOM     15  C   UNL d   1     -59.568 -98.865 -41.282  0.00  0.00     0.049 A 
ATOM     16  C   UNL d   1     -59.710 -99.259 -40.572  0.00  0.00     0.096 A 
ATOM     17  C   UNL d   1     -59.886-100.065 -40.575  0.00  0.00     0.024 A 
ATOM     18  C   UNL d   1     -59.920-100.476 -41.300  0.00  0.00     0.004 A 
ATOM     19  C   UNL d   1     -59.779-100.079 -42.001  0.00  0.00     0.025 A 
BRANCH  16  20
ATOM     20  O   UNL d   1     -59.675 -98.846 -39.861  0.00  0.00    -0.328 OA
ATOM     21  C   UNL d   1     -59.751 -99.252 -39.148  0.00  0.00     0.181 C 
ENDBRANCH  16  20
ENDBRANCH  13  14
ENDBRANCH   4  13
BRANCH   2  22
ATOM     22  C   UNL d   1     -55.813 -99.161 -43.674  0.00  0.00     0.086 C 
BRANCH  22  23
ATOM     23  N   UNL d   1     -55.485 -99.914 -43.584  0.00  0.00    -0.299 N 
ATOM     24  C   UNL d   1     -55.150-100.129 -42.865  0.00  0.00     0.107 A 
ATOM     25  C   UNL d   1     -54.822-100.884 -42.778  0.00  0.00     0.142 A 
ATOM     26  O   UNL d   1     -54.832-101.415 -43.409  0.00  0.00    -0.300 OA
ATOM     27  C   UNL d   1     -55.171-101.194 -44.130  0.00  0.00     0.142 A 
ATOM     28  C   UNL d   1     -55.497-100.443 -44.218  0.00  0.00     0.107 A 
ENDBRANCH  22  23
ENDBRANCH   2  22
TORSDOF 5
ENDMDL
MODEL 2
REMARK VINA RESULT:      76.3      1.912      3.958
REMARK  5 active torsions:
REMARK  status: ('A' for Active; 'I' for Inactive)
REMARK    1  A    between atoms: C_9  and  C_2 
REMARK    2  A    between atoms: O_8  and  C_4 
REMARK    3  A    between atoms: C_14  and  O_8 
REMARK    4  A    between atoms: N_11  and  C_9 
REMARK    5  A    between atoms: O_20  and  C_18 
ROOT
ATOM      1  C   UNL d   1     -55.771-100.343 -43.654  0.00  0.00     0.108 A 
ATOM      2  C   UNL d   1     -55.883 -99.617 -44.042  0.00  0.00     0.079 A 
ATOM      3  C   UNL d   1     -55.293-100.931 -44.000  0.00  0.00     0.064 A 
ATOM      4  C   UNL d   1     -55.546-101.795 -42.879  0.00  0.00     0.163 A 
ATOM      5  C   UNL d   1     -55.184-101.647 -43.616  0.00  0.00     0.222 A 
ATOM      6  O   UNL d   1     -56.138-100.475 -42.922  0.00  0.00    -0.303 OA
ATOM      7  C   UNL d   1     -56.026-101.203 -42.532  0.00  0.00     0.150 A 
ATOM      8  C   UNL d   1     -54.935-100.777 -44.734  0.00  0.00     0.009 A 
ATOM      9  C   UNL d   1     -55.523 -99.476 -44.768  0.00  0.00     0.199 A 
ATOM     10  O   UNL d   1     -54.711-102.232 -43.955  0.00  0.00    -0.284 OA
ATOM     11  C   UNL d   1     -55.050-100.056 -45.114  0.00  0.00     0.042 A 
ATOM     12  O   UNL d   1     -55.637 -98.755 -45.150  0.00  0.00    -0.286 OA
ENDROOT
BRANCH   4  13
ATOM     13  O   UNL d   1     -55.434-102.513 -42.497  0.00  0.00    -0.302 OA
BRANCH  13  14
ATOM     14  C   UNL d   1     -55.657-102.600 -41.708  0.00  0.00     0.102 A 
ATOM     15  C   UNL d   1     -55.084-102.596 -41.118  0.00  0.00     0.049 A 
ATOM     16  C   UNL d   1     -55.307-102.683 -40.330  0.00  0.00     0.096 A 
ATOM     17  C   UNL d   1     -56.103-102.774 -40.133  0.00  0.00     0.024 A 
ATOM     18  C   UNL d   1     -56.679-102.777 -40.736  0.00  0.00     0.004 A 
ATOM     19  C   UNL d   1     -56.451-102.690 -41.517  0.00  0.00     0.025 A 
BRANCH  16  20
ATOM     20  O   UNL d   1     -54.734-102.679 -39.739  0.00  0.00    -0.328 OA
ATOM     21  C   UNL d   1     -54.783-102.133 -39.124  0.00  0.00     0.181 C 
ENDBRANCH  16  20
ENDBRANCH  13  14
ENDBRANCH   4  13
BRANCH   2  22
ATOM     22  C   UNL d   1     -56.352 -99.043 -43.700  0.00  0.00     0.086 C 
BRANCH  22  23
ATOM     23  N   UNL d   1     -57.168 -99.043 -43.833  0.00  0.00    -0.299 N 
ATOM     24  C   UNL d   1     -57.676 -98.768 -43.248  0.00  0.00     0.107 A 
ATOM     25  C   UNL d   1     -58.492 -98.770 -43.385  0.00  0.00     0.142 A 
ATOM     26  O   UNL d   1     -58.792 -99.046 -44.103  0.00  0.00    -0.300 OA
ATOM     27  C   UNL d   1     -58.276 -99.321 -44.687  0.00  0.00     0.142 A 
ATOM     28  C   UNL d   1     -57.463 -99.320 -44.552  0.00  0.00     0.107 A 
ENDBRANCH  22  23
ENDBRANCH   2  22
TORSDOF 5
ENDMDL
