MODEL 1
REMARK VINA RESULT:      -6.8      0.000      0.000
REMARK  5 active torsions:
REMARK  status: ('A' for Active; 'I' for Inactive)
REMARK    1  A    between atoms: C_6  and  C_1 
REMARK    2  A    between atoms: C_8  and  N_3 
REMARK    3  A    between atoms: O_7  and  C_6 
REMARK    4  A    between atoms: C_9  and  O_7 
REMARK    5  A    between atoms: O_16  and  C_10 
ROOT
ATOM      1  C   UNL d   1     -48.422  14.090  22.849  0.00  0.00     0.173 A 
ATOM      2  N   UNL d   1     -48.742  14.730  23.207  0.00  0.00    -0.225 NA
ATOM      3  N   UNL d   1     -48.949  13.720  22.362  0.00  0.00    -0.287 N 
ATOM      4  C   UNL d   1     -49.693  14.167  22.408  0.00  0.00     0.083 A 
ATOM      5  C   UNL d   1     -49.569  14.776  22.918  0.00  0.00     0.099 A 
ATOM      6  C   UNL d   1     -50.436  14.095  22.062  0.00  0.00     0.019 A 
ATOM      7  C   UNL d   1     -50.178  15.356  23.117  0.00  0.00     0.021 A 
ATOM      8  C   UNL d   1     -51.058  14.612  22.209  0.00  0.00     0.002 A 
ATOM      9  C   UNL d   1     -50.934  15.222  22.718  0.00  0.00     0.002 A 
ENDROOT
BRANCH   1  10
ATOM     10  C   UNL d   1     -47.832  13.560  22.679  0.00  0.00     0.160 C 
BRANCH  10  11
ATOM     11  O   UNL d   1     -47.171  13.511  23.190  0.00  0.00    -0.302 OA
BRANCH  11  12
ATOM     12  C   UNL d   1     -46.429  13.264  22.893  0.00  0.00     0.100 A 
ATOM     13  C   UNL d   1     -46.144  12.496  23.062  0.00  0.00     0.027 A 
ATOM     14  C   UNL d   1     -45.401  12.249  22.765  0.00  0.00     0.026 A 
ATOM     15  C   UNL d   1     -44.960  12.753  22.314  0.00  0.00     0.094 A 
ATOM     16  C   UNL d   1     -45.245  13.521  22.144  0.00  0.00     0.026 A 
ATOM     17  C   UNL d   1     -45.987  13.768  22.442  0.00  0.00     0.027 A 
BRANCH  15  18
ATOM     18  O   UNL d   1     -44.262  12.324  22.117  0.00  0.00    -0.328 OA
ATOM     19  C   UNL d   1     -43.687  12.650  21.594  0.00  0.00     0.181 C 
ENDBRANCH  15  18
ENDBRANCH  11  12
ENDBRANCH  10  11
ENDBRANCH   1  10
BRANCH   3  20
ATOM     20  C   UNL d   1     -48.686  13.070  21.974  0.00  0.00     0.082 C 
ATOM     21  C   UNL d   1     -49.202  12.540  21.609  0.00  0.00     0.021 C 
ENDBRANCH   3  20
TORSDOF 5
ENDMDL
MODEL 2
REMARK VINA RESULT:      -5.8      1.701      4.808
REMARK  5 active torsions:
REMARK  status: ('A' for Active; 'I' for Inactive)
REMARK    1  A    between atoms: C_6  and  C_1 
REMARK    2  A    between atoms: C_8  and  N_3 
REMARK    3  A    between atoms: O_7  and  C_6 
REMARK    4  A    between atoms: C_9  and  O_7 
REMARK    5  A    between atoms: O_16  and  C_10 
ROOT
ATOM      1  C   UNL d   1     -46.289  12.551  22.953  0.00  0.00     0.173 A 
ATOM      2  N   UNL d   1     -45.516  12.561  22.746  0.00  0.00    -0.225 NA
ATOM      3  N   UNL d   1     -46.491  11.871  23.337  0.00  0.00    -0.287 N 
ATOM      4  C   UNL d   1     -45.773  11.384  23.386  0.00  0.00     0.083 A 
ATOM      5  C   UNL d   1     -45.184  11.800  23.029  0.00  0.00     0.099 A 
ATOM      6  C   UNL d   1     -45.592  10.644  23.698  0.00  0.00     0.019 A 
ATOM      7  C   UNL d   1     -44.374  11.505  22.960  0.00  0.00     0.021 A 
ATOM      8  C   UNL d   1     -44.842  10.308  23.665  0.00  0.00     0.002 A 
ATOM      9  C   UNL d   1     -44.254  10.724  23.308  0.00  0.00     0.002 A 
ENDROOT
BRANCH   1  10
ATOM     10  C   UNL d   1     -47.041  12.851  23.005  0.00  0.00     0.160 C 
BRANCH  10  11
ATOM     11  O   UNL d   1     -47.180  13.640  22.765  0.00  0.00    -0.302 OA
BRANCH  11  12
ATOM     12  C   UNL d   1     -47.956  13.889  22.573  0.00  0.00     0.100 A 
ATOM     13  C   UNL d   1     -48.374  14.395  23.093  0.00  0.00     0.027 A 
ATOM     14  C   UNL d   1     -49.150  14.644  22.902  0.00  0.00     0.026 A 
ATOM     15  C   UNL d   1     -49.495  14.396  22.215  0.00  0.00     0.094 A 
ATOM     16  C   UNL d   1     -49.077  13.891  21.695  0.00  0.00     0.026 A 
ATOM     17  C   UNL d   1     -48.302  13.641  21.886  0.00  0.00     0.027 A 
BRANCH  15  18
ATOM     18  O   UNL d   1     -50.260  14.750  22.208  0.00  0.00    -0.328 OA
ATOM     19  C   UNL d   1     -50.952  14.280  22.114  0.00  0.00     0.181 C 
ENDBRANCH  15  18
ENDBRANCH  11  12
ENDBRANCH  10  11
ENDBRANCH   1  10
BRANCH   3  20
ATOM     20  C   UNL d   1     -47.255  11.802  23.571  0.00  0.00     0.082 C 
ATOM     21  C   UNL d   1     -47.609  11.068  23.698  0.00  0.00     0.021 C 
ENDBRANCH   3  20
TORSDOF 5
ENDMDL
MODEL 3
REMARK VINA RESULT:      -4.9      8.372      8.982
REMARK  5 active torsions:
REMARK  status: ('A' for Active; 'I' for Inactive)
REMARK    1  A    between atoms: C_6  and  C_1 
REMARK    2  A    between atoms: C_8  and  N_3 
REMARK    3  A    between atoms: O_7  and  C_6 
REMARK    4  A    between atoms: C_9  and  O_7 
REMARK    5  A    between atoms: O_16  and  C_10 
ROOT
ATOM      1  C   UNL d   1     -40.381  15.122  19.191  0.00  0.00     0.173 A 
ATOM      2  N   UNL d   1     -40.935  15.598  18.862  0.00  0.00    -0.225 NA
ATOM      3  N   UNL d   1     -39.938  14.744  18.633  0.00  0.00    -0.287 N 
ATOM      4  C   UNL d   1     -40.235  15.000  17.857  0.00  0.00     0.083 A 
ATOM      5  C   UNL d   1     -40.836  15.515  17.995  0.00  0.00     0.099 A 
ATOM      6  C   UNL d   1     -40.038  14.832  17.075  0.00  0.00     0.019 A 
ATOM      7  C   UNL d   1     -41.282  15.899  17.362  0.00  0.00     0.021 A 
ATOM      8  C   UNL d   1     -40.423  15.164  16.428  0.00  0.00     0.002 A 
ATOM      9  C   UNL d   1     -41.024  15.679  16.567  0.00  0.00     0.002 A 
ENDROOT
BRANCH   1  10
ATOM     10  C   UNL d   1     -39.978  14.776  19.803  0.00  0.00     0.160 C 
BRANCH  10  11
ATOM     11  O   UNL d   1     -40.329  14.761  20.563  0.00  0.00    -0.302 OA
BRANCH  11  12
ATOM     12  C   UNL d   1     -39.867  14.928  21.241  0.00  0.00     0.100 A 
ATOM     13  C   UNL d   1     -39.560  14.301  21.703  0.00  0.00     0.027 A 
ATOM     14  C   UNL d   1     -39.099  14.468  22.381  0.00  0.00     0.026 A 
ATOM     15  C   UNL d   1     -38.950  15.234  22.590  0.00  0.00     0.094 A 
ATOM     16  C   UNL d   1     -39.257  15.860  22.128  0.00  0.00     0.026 A 
ATOM     17  C   UNL d   1     -39.719  15.694  21.450  0.00  0.00     0.027 A 
BRANCH  15  18
ATOM     18  O   UNL d   1     -38.478  15.189  23.286  0.00  0.00    -0.328 OA
ATOM     19  C   UNL d   1     -38.248  15.887  23.698  0.00  0.00     0.181 C 
ENDBRANCH  15  18
ENDBRANCH  11  12
ENDBRANCH  10  11
ENDBRANCH   1  10
BRANCH   3  20
ATOM     20  C   UNL d   1     -39.365  14.252  18.901  0.00  0.00     0.082 C 
ATOM     21  C   UNL d   1     -38.997  13.700  18.410  0.00  0.00     0.021 C 
ENDBRANCH   3  20
TORSDOF 5
ENDMDL
MODEL 4
REMARK VINA RESULT:      -4.6      8.500     10.421
REMARK  5 active torsions:
REMARK  status: ('A' for Active; 'I' for Inactive)
REMARK    1  A    between atoms: C_6  and  C_1 
REMARK    2  A    between atoms: C_8  and  N_3 
REMARK    3  A    between atoms: O_7  and  C_6 
REMARK    4  A    between atoms: C_9  and  O_7 
REMARK    5  A    between atoms: O_16  and  C_10 
ROOT
ATOM      1  C   UNL d   1     -39.094  14.909  17.564  0.00  0.00     0.173 A 
ATOM      2  N   UNL d   1     -38.942  15.450  16.993  0.00  0.00    -0.225 NA
ATOM      3  N   UNL d   1     -38.874  14.165  17.344  0.00  0.00    -0.287 N 
ATOM      4  C   UNL d   1     -38.541  14.226  16.543  0.00  0.00     0.083 A 
ATOM      5  C   UNL d   1     -38.582  15.001  16.331  0.00  0.00     0.099 A 
ATOM      6  C   UNL d   1     -38.220  13.692  16.005  0.00  0.00     0.019 A 
ATOM      7  C   UNL d   1     -38.306  15.295  15.567  0.00  0.00     0.021 A 
ATOM      8  C   UNL d   1     -37.940  13.908  15.263  0.00  0.00     0.002 A 
ATOM      9  C   UNL d   1     -37.981  14.683  15.051  0.00  0.00     0.002 A 
ENDROOT
BRANCH   1  10
ATOM     10  C   UNL d   1     -39.361  14.659  18.288  0.00  0.00     0.160 C 
BRANCH  10  11
ATOM     11  O   UNL d   1     -39.932  15.119  18.691  0.00  0.00    -0.302 OA
BRANCH  11  12
ATOM     12  C   UNL d   1     -39.872  15.231  19.518  0.00  0.00     0.100 A 
ATOM     13  C   UNL d   1     -39.334  15.793  19.828  0.00  0.00     0.027 A 
ATOM     14  C   UNL d   1     -39.274  15.905  20.655  0.00  0.00     0.026 A 
ATOM     15  C   UNL d   1     -39.736  15.470  21.155  0.00  0.00     0.094 A 
ATOM     16  C   UNL d   1     -40.274  14.908  20.846  0.00  0.00     0.026 A 
ATOM     17  C   UNL d   1     -40.334  14.796  20.019  0.00  0.00     0.027 A 
BRANCH  15  18
ATOM     18  O   UNL d   1     -39.529  15.727  21.930  0.00  0.00    -0.328 OA
ATOM     19  C   UNL d   1     -39.330  15.171  22.531  0.00  0.00     0.181 C 
ENDBRANCH  15  18
ENDBRANCH  11  12
ENDBRANCH  10  11
ENDBRANCH   1  10
BRANCH   3  20
ATOM     20  C   UNL d   1     -39.001  13.579  17.876  0.00  0.00     0.082 C 
ATOM     21  C   UNL d   1     -38.699  12.819  17.769  0.00  0.00     0.021 C 
ENDBRANCH   3  20
TORSDOF 5
ENDMDL
MODEL 5
REMARK VINA RESULT:      -4.4      1.960      4.880
REMARK  5 active torsions:
REMARK  status: ('A' for Active; 'I' for Inactive)
REMARK    1  A    between atoms: C_6  and  C_1 
REMARK    2  A    between atoms: C_8  and  N_3 
REMARK    3  A    between atoms: O_7  and  C_6 
REMARK    4  A    between atoms: C_9  and  O_7 
REMARK    5  A    between atoms: O_16  and  C_10 
ROOT
ATOM      1  C   UNL d   1     -45.961  12.338  23.009  0.00  0.00     0.173 A 
ATOM      2  N   UNL d   1     -45.356  11.814  23.029  0.00  0.00    -0.225 NA
ATOM      3  N   UNL d   1     -45.789  12.983  22.556  0.00  0.00    -0.287 N 
ATOM      4  C   UNL d   1     -44.985  12.868  22.246  0.00  0.00     0.083 A 
ATOM      5  C   UNL d   1     -44.724  12.163  22.531  0.00  0.00     0.099 A 
ATOM      6  C   UNL d   1     -44.482  13.302  21.761  0.00  0.00     0.019 A 
ATOM      7  C   UNL d   1     -43.941  11.843  22.350  0.00  0.00     0.021 A 
ATOM      8  C   UNL d   1     -43.726  13.053  21.551  0.00  0.00     0.002 A 
ATOM      9  C   UNL d   1     -43.465  12.348  21.835  0.00  0.00     0.002 A 
ENDROOT
BRANCH   1  10
ATOM     10  C   UNL d   1     -46.700  12.616  23.195  0.00  0.00     0.160 C 
BRANCH  10  11
ATOM     11  O   UNL d   1     -47.192  12.158  23.694  0.00  0.00    -0.302 OA
BRANCH  11  12
ATOM     12  C   UNL d   1     -48.018  12.137  23.563  0.00  0.00     0.100 A 
ATOM     13  C   UNL d   1     -48.392  11.416  23.361  0.00  0.00     0.027 A 
ATOM     14  C   UNL d   1     -49.219  11.395  23.230  0.00  0.00     0.026 A 
ATOM     15  C   UNL d   1     -49.656  12.071  23.299  0.00  0.00     0.094 A 
ATOM     16  C   UNL d   1     -49.281  12.792  23.501  0.00  0.00     0.026 A 
ATOM     17  C   UNL d   1     -48.455  12.813  23.631  0.00  0.00     0.027 A 
BRANCH  15  18
ATOM     18  O   UNL d   1     -50.449  11.843  23.132  0.00  0.00    -0.328 OA
ATOM     19  C   UNL d   1     -51.064  12.417  23.093  0.00  0.00     0.181 C 
ENDBRANCH  15  18
ENDBRANCH  11  12
ENDBRANCH  10  11
ENDBRANCH   1  10
BRANCH   3  20
ATOM     20  C   UNL d   1     -46.358  13.545  22.498  0.00  0.00     0.082 C 
ATOM     21  C   UNL d   1     -46.184  14.350  22.542  0.00  0.00     0.021 C 
ENDBRANCH   3  20
TORSDOF 5
ENDMDL
