MODEL 1
REMARK VINA RESULT:      -2.9      0.000      0.000
REMARK  7 active torsions:
REMARK  status: ('A' for Active; 'I' for Inactive)
REMARK    1  A    between atoms: N_3  and  S_1 
REMARK    2  A    between atoms: C_7  and  S_1 
REMARK    3  A    between atoms: N_2  and  C_6 
REMARK    4  A    between atoms: C_5  and  N_3 
REMARK    5  A    between atoms: C_10  and  N_4 
REMARK    6  A    between atoms: C_6  and  C_5 
REMARK    7  A    between atoms: C_11  and  C_6 
ROOT
ATOM      1  C   UNL d   1     -39.955  15.043  20.245  0.00  0.00     0.086 C 
ENDROOT
BRANCH   1   2
ATOM      2  N   UNL d   1     -40.629  14.618  20.511  0.00  0.00    -0.300 N 
ATOM      3  C   UNL d   1     -40.622  13.789  20.530  0.00  0.00     0.100 A 
ATOM      4  C   UNL d   1     -41.284  13.376  20.791  0.00  0.00     0.100 A 
ATOM      5  N   UNL d   1     -41.955  13.789  21.034  0.00  0.00    -0.301 N 
ATOM      6  C   UNL d   1     -41.962  14.618  21.016  0.00  0.00     0.100 A 
ATOM      7  C   UNL d   1     -41.299  15.031  20.754  0.00  0.00     0.100 A 
BRANCH   5   8
ATOM      8  C   UNL d   1     -42.617  13.376  21.296  0.00  0.00     0.064 A 
ATOM      9  C   UNL d   1     -42.528  12.625  21.622  0.00  0.00     0.020 A 
ATOM     10  C   UNL d   1     -43.192  12.208  21.885  0.00  0.00     0.031 A 
ATOM     11  C   UNL d   1     -43.942  12.545  21.821  0.00  0.00     0.140 A 
ATOM     12  C   UNL d   1     -44.029  13.299  21.493  0.00  0.00     0.031 A 
ATOM     13  F   UNL d   1     -44.619  12.130  22.085  0.00  0.00    -0.204 F 
ATOM     14  C   UNL d   1     -43.367  13.713  21.231  0.00  0.00     0.020 A 
ENDBRANCH   5   8
ENDBRANCH   1   2
BRANCH   1  15
ATOM     15  C   UNL d   1     -39.946  15.388  19.490  0.00  0.00     0.130 C 
BRANCH  15  16
ATOM     16  N   UNL d   1     -39.657  14.957  18.838  0.00  0.00    -0.155 NA
BRANCH  16  17
ATOM     17  S   UNL d   1     -39.681  15.277  18.085  0.00  0.00     0.285 S 
ATOM     18  O   UNL d   1     -39.705  15.603  17.317  0.00  0.00    -0.198 OA
ATOM     19  O   UNL d   1     -40.116  15.922  18.367  0.00  0.00    -0.198 OA
BRANCH  17  20
ATOM     20  C   UNL d   1     -39.243  14.629  17.795  0.00  0.00     0.105 A 
ATOM     21  C   UNL d   1     -38.422  14.683  17.742  0.00  0.00     0.015 A 
ATOM     22  C   UNL d   1     -37.984  14.047  17.457  0.00  0.00     0.030 A 
ATOM     23  C   UNL d   1     -38.375  13.344  17.222  0.00  0.00     0.140 A 
ATOM     24  C   UNL d   1     -39.201  13.293  17.277  0.00  0.00     0.030 A 
ATOM     25  F   UNL d   1     -37.941  12.684  16.929  0.00  0.00    -0.204 F 
ATOM     26  C   UNL d   1     -39.635  13.938  17.565  0.00  0.00     0.015 A 
ENDBRANCH  17  20
ENDBRANCH  16  17
ENDBRANCH  15  16
ENDBRANCH   1  15
BRANCH   1  27
ATOM     27  C   UNL d   1     -39.292  15.117  20.744  0.00  0.00     0.037 A 
ATOM     28  C   UNL d   1     -38.839  14.451  20.913  0.00  0.00     0.100 A 
ATOM     29  N   UNL d   1     -38.181  14.517  21.407  0.00  0.00    -0.242 NA
ATOM     30  C   UNL d   1     -37.984  15.253  21.728  0.00  0.00     0.099 A 
ATOM     31  C   UNL d   1     -38.437  15.919  21.559  0.00  0.00     0.021 A 
ATOM     32  C   UNL d   1     -39.094  15.849  21.065  0.00  0.00     0.005 A 
ENDBRANCH   1  27
TORSDOF 7
ENDMDL
MODEL 2
REMARK VINA RESULT:      -1.0      6.762      8.989
REMARK  7 active torsions:
REMARK  status: ('A' for Active; 'I' for Inactive)
REMARK    1  A    between atoms: N_3  and  S_1 
REMARK    2  A    between atoms: C_7  and  S_1 
REMARK    3  A    between atoms: N_2  and  C_6 
REMARK    4  A    between atoms: C_5  and  N_3 
REMARK    5  A    between atoms: C_10  and  N_4 
REMARK    6  A    between atoms: C_6  and  C_5 
REMARK    7  A    between atoms: C_11  and  C_6 
ROOT
ATOM      1  C   UNL d   1     -47.679  12.990  23.141  0.00  0.00     0.086 C 
ENDROOT
BRANCH   1   2
ATOM      2  N   UNL d   1     -46.976  12.531  23.157  0.00  0.00    -0.300 N 
ATOM      3  C   UNL d   1     -46.344  12.713  22.652  0.00  0.00     0.100 A 
ATOM      4  C   UNL d   1     -45.657  12.260  22.670  0.00  0.00     0.100 A 
ATOM      5  N   UNL d   1     -45.598  11.626  23.193  0.00  0.00    -0.301 N 
ATOM      6  C   UNL d   1     -46.229  11.444  23.698  0.00  0.00     0.100 A 
ATOM      7  C   UNL d   1     -46.917  11.897  23.679  0.00  0.00     0.100 A 
BRANCH   5   8
ATOM      8  C   UNL d   1     -44.911  11.174  23.211  0.00  0.00     0.064 A 
ATOM      9  C   UNL d   1     -44.923  10.423  23.551  0.00  0.00     0.020 A 
ATOM     10  C   UNL d   1     -44.234   9.967  23.570  0.00  0.00     0.031 A 
ATOM     11  C   UNL d   1     -43.534  10.264  23.250  0.00  0.00     0.140 A 
ATOM     12  C   UNL d   1     -43.524  11.017  22.909  0.00  0.00     0.031 A 
ATOM     13  F   UNL d   1     -42.832   9.809  23.266  0.00  0.00    -0.204 F 
ATOM     14  C   UNL d   1     -44.211  11.470  22.890  0.00  0.00     0.020 A 
ENDBRANCH   5   8
ENDBRANCH   1   2
BRANCH   1  15
ATOM     15  C   UNL d   1     -48.417  12.636  23.278  0.00  0.00     0.130 C 
BRANCH  15  16
ATOM     16  N   UNL d   1     -48.970  12.571  22.658  0.00  0.00    -0.155 NA
BRANCH  16  17
ATOM     17  S   UNL d   1     -49.643  12.113  22.748  0.00  0.00     0.285 S 
ATOM     18  O   UNL d   1     -50.328  11.646  22.839  0.00  0.00    -0.198 OA
ATOM     19  O   UNL d   1     -49.292  11.714  23.382  0.00  0.00    -0.198 OA
BRANCH  17  20
ATOM     20  C   UNL d   1     -50.000  12.512  22.109  0.00  0.00     0.105 A 
ATOM     21  C   UNL d   1     -50.611  13.048  22.253  0.00  0.00     0.015 A 
ATOM     22  C   UNL d   1     -50.968  13.446  21.627  0.00  0.00     0.030 A 
ATOM     23  C   UNL d   1     -50.708  13.305  20.843  0.00  0.00     0.140 A 
ATOM     24  C   UNL d   1     -50.094  12.766  20.702  0.00  0.00     0.030 A 
ATOM     25  F   UNL d   1     -51.064  13.704  20.191  0.00  0.00    -0.204 F 
ATOM     26  C   UNL d   1     -49.740  12.370  21.337  0.00  0.00     0.015 A 
ENDBRANCH  17  20
ENDBRANCH  16  17
ENDBRANCH  15  16
ENDBRANCH   1  15
BRANCH   1  27
ATOM     27  C   UNL d   1     -47.632  13.808  22.986  0.00  0.00     0.037 A 
ATOM     28  C   UNL d   1     -48.076  14.330  23.441  0.00  0.00     0.100 A 
ATOM     29  N   UNL d   1     -48.035  15.141  23.294  0.00  0.00    -0.242 NA
ATOM     30  C   UNL d   1     -47.547  15.420  22.688  0.00  0.00     0.099 A 
ATOM     31  C   UNL d   1     -47.103  14.899  22.232  0.00  0.00     0.021 A 
ATOM     32  C   UNL d   1     -47.147  14.089  22.383  0.00  0.00     0.005 A 
ENDBRANCH   1  27
TORSDOF 7
ENDMDL
MODEL 3
REMARK VINA RESULT:      -0.1      4.980      8.522
REMARK  7 active torsions:
REMARK  status: ('A' for Active; 'I' for Inactive)
REMARK    1  A    between atoms: N_3  and  S_1 
REMARK    2  A    between atoms: C_7  and  S_1 
REMARK    3  A    between atoms: N_2  and  C_6 
REMARK    4  A    between atoms: C_5  and  N_3 
REMARK    5  A    between atoms: C_10  and  N_4 
REMARK    6  A    between atoms: C_6  and  C_5 
REMARK    7  A    between atoms: C_11  and  C_6 
ROOT
ATOM      1  C   UNL d   1     -46.746  13.323  22.753  0.00  0.00     0.086 C 
ENDROOT
BRANCH   1   2
ATOM      2  N   UNL d   1     -45.961  13.317  22.452  0.00  0.00    -0.300 N 
ATOM      3  C   UNL d   1     -45.416  13.893  22.692  0.00  0.00     0.100 A 
ATOM      4  C   UNL d   1     -44.648  13.885  22.395  0.00  0.00     0.100 A 
ATOM      5  N   UNL d   1     -44.423  13.302  21.858  0.00  0.00    -0.301 N 
ATOM      6  C   UNL d   1     -44.969  12.726  21.618  0.00  0.00     0.100 A 
ATOM      7  C   UNL d   1     -45.737  12.735  21.915  0.00  0.00     0.100 A 
BRANCH   5   8
ATOM      8  C   UNL d   1     -43.656  13.293  21.561  0.00  0.00     0.064 A 
ATOM      9  C   UNL d   1     -43.278  14.003  21.381  0.00  0.00     0.020 A 
ATOM     10  C   UNL d   1     -42.507  13.997  21.083  0.00  0.00     0.031 A 
ATOM     11  C   UNL d   1     -42.117  13.280  20.965  0.00  0.00     0.140 A 
ATOM     12  C   UNL d   1     -42.498  12.569  21.145  0.00  0.00     0.031 A 
ATOM     13  F   UNL d   1     -41.337  13.265  20.663  0.00  0.00    -0.204 F 
ATOM     14  C   UNL d   1     -43.266  12.576  21.443  0.00  0.00     0.020 A 
ENDBRANCH   5   8
ENDBRANCH   1   2
BRANCH   1  15
ATOM     15  C   UNL d   1     -47.018  12.701  23.231  0.00  0.00     0.130 C 
BRANCH  15  16
ATOM     16  N   UNL d   1     -47.701  12.275  23.013  0.00  0.00    -0.155 NA
BRANCH  16  17
ATOM     17  S   UNL d   1     -47.863  11.548  23.352  0.00  0.00     0.285 S 
ATOM     18  O   UNL d   1     -48.028  10.807  23.697  0.00  0.00    -0.198 OA
ATOM     19  O   UNL d   1     -47.068  11.465  23.565  0.00  0.00    -0.198 OA
BRANCH  17  20
ATOM     20  C   UNL d   1     -48.665  11.628  23.139  0.00  0.00     0.105 A 
ATOM     21  C   UNL d   1     -49.211  11.891  23.698  0.00  0.00     0.015 A 
ATOM     22  C   UNL d   1     -50.004  11.972  23.494  0.00  0.00     0.030 A 
ATOM     23  C   UNL d   1     -50.255  11.786  22.717  0.00  0.00     0.140 A 
ATOM     24  C   UNL d   1     -49.704  11.521  22.157  0.00  0.00     0.030 A 
ATOM     25  F   UNL d   1     -51.064  11.863  22.492  0.00  0.00    -0.204 F 
ATOM     26  C   UNL d   1     -48.907  11.442  22.370  0.00  0.00     0.015 A 
ENDBRANCH  17  20
ENDBRANCH  16  17
ENDBRANCH  15  16
ENDBRANCH   1  15
BRANCH   1  27
ATOM     27  C   UNL d   1     -47.252  13.959  22.570  0.00  0.00     0.037 A 
ATOM     28  C   UNL d   1     -47.587  14.003  21.819  0.00  0.00     0.100 A 
ATOM     29  N   UNL d   1     -48.089  14.629  21.630  0.00  0.00    -0.242 NA
ATOM     30  C   UNL d   1     -48.251  15.208  22.198  0.00  0.00     0.099 A 
ATOM     31  C   UNL d   1     -47.916  15.164  22.948  0.00  0.00     0.021 A 
ATOM     32  C   UNL d   1     -47.415  14.536  23.134  0.00  0.00     0.005 A 
ENDBRANCH   1  27
TORSDOF 7
ENDMDL
