MODEL 1
REMARK VINA RESULT:      28.6      0.000      0.000
REMARK  8 active torsions:
REMARK  status: ('A' for Active; 'I' for Inactive)
REMARK    1  A    between atoms: C_2  and  S_1 
REMARK    2  A    between atoms: N_11  and  S_1 
REMARK    3  A    between atoms: N_6  and  C_17 
REMARK    4  A    between atoms: C_21  and  N_11 
REMARK    5  A    between atoms: O_16  and  C_12 
REMARK    6  A    between atoms: C_22  and  O_16 
REMARK    7  A    between atoms: C_17  and  C_18 
REMARK    8  A    between atoms: C_18  and  C_21 
ROOT
ATOM      1  C   UNL d   1      13.484  12.975  -3.522  0.00  0.00     0.105 A 
ATOM      2  C   UNL d   1      13.357  12.773  -4.313  0.00  0.00     0.014 A 
ATOM      3  C   UNL d   1      13.267  13.368  -4.878  0.00  0.00     0.024 A 
ATOM      4  C   UNL d   1      13.521  13.774  -3.295  0.00  0.00     0.015 A 
ATOM      5  C   UNL d   1      13.302  14.166  -4.663  0.00  0.00     0.100 A 
ATOM      6  C   UNL d   1      13.431  14.366  -3.863  0.00  0.00     0.025 A 
ATOM      7  C   UNL d   1      13.321  11.980  -4.534  0.00  0.00     0.001 A 
ATOM      8  C   UNL d   1      13.142  13.173  -5.660  0.00  0.00     0.002 A 
ATOM      9  C   UNL d   1      13.194  11.786  -5.328  0.00  0.00     0.000 A 
ATOM     10  C   UNL d   1      13.104  12.381  -5.893  0.00  0.00     0.000 A 
ENDROOT
BRANCH   1  11
ATOM     11  S   UNL d   1      13.575  12.384  -2.955  0.00  0.00     0.285 S 
ATOM     12  O   UNL d   1      13.569  12.953  -2.359  0.00  0.00    -0.198 OA
ATOM     13  O   UNL d   1      13.581  11.812  -3.551  0.00  0.00    -0.198 OA
BRANCH  11  14
ATOM     14  N   UNL d   1      13.665  11.792  -2.387  0.00  0.00    -0.157 NA
BRANCH  14  15
ATOM     15  C   UNL d   1      14.045  11.964  -1.669  0.00  0.00     0.114 C 
BRANCH  15  16
ATOM     16  C   UNL d   1      13.660  11.810  -0.956  0.00  0.00     0.041 C 
BRANCH  16  17
ATOM     17  C   UNL d   1      14.040  11.955  -0.237  0.00  0.00     0.083 C 
BRANCH  17  18
ATOM     18  N   UNL d   1      14.618  12.542  -0.182  0.00  0.00    -0.285 N 
ATOM     19  C   UNL d   1      14.480  13.341  -0.021  0.00  0.00     0.183 A 
ATOM     20  N   UNL d   1      15.215  13.726  -0.018  0.00  0.00    -0.222 NA
ATOM     21  C   UNL d   1      15.799  13.166  -0.177  0.00  0.00     0.120 A 
ATOM     22  C   UNL d   1      15.428  12.433  -0.278  0.00  0.00     0.102 A 
ENDBRANCH  17  18
ENDBRANCH  16  17
ENDBRANCH  15  16
ENDBRANCH  14  15
ENDBRANCH  11  14
ENDBRANCH   1  11
BRANCH   5  23
ATOM     23  O   UNL d   1      13.212  14.758  -5.231  0.00  0.00    -0.305 OA
BRANCH  23  24
ATOM     24  C   UNL d   1      13.718  15.401  -5.228  0.00  0.00     0.123 C 
ATOM     25  C   UNL d   1      13.684  15.949  -5.844  0.00  0.00     0.029 C 
ENDBRANCH  23  24
ENDBRANCH   5  23
TORSDOF 8
ENDMDL
MODEL 2
REMARK VINA RESULT:      31.5      1.148      2.177
REMARK  8 active torsions:
REMARK  status: ('A' for Active; 'I' for Inactive)
REMARK    1  A    between atoms: C_2  and  S_1 
REMARK    2  A    between atoms: N_11  and  S_1 
REMARK    3  A    between atoms: N_6  and  C_17 
REMARK    4  A    between atoms: C_21  and  N_11 
REMARK    5  A    between atoms: O_16  and  C_12 
REMARK    6  A    between atoms: C_22  and  O_16 
REMARK    7  A    between atoms: C_17  and  C_18 
REMARK    8  A    between atoms: C_18  and  C_21 
ROOT
ATOM      1  C   UNL d   1      13.450  12.465  -2.895  0.00  0.00     0.105 A 
ATOM      2  C   UNL d   1      13.523  13.183  -3.298  0.00  0.00     0.014 A 
ATOM      3  C   UNL d   1      13.361  13.216  -4.107  0.00  0.00     0.024 A 
ATOM      4  C   UNL d   1      13.215  11.779  -3.302  0.00  0.00     0.015 A 
ATOM      5  C   UNL d   1      13.126  12.540  -4.521  0.00  0.00     0.100 A 
ATOM      6  C   UNL d   1      13.054  11.817  -4.110  0.00  0.00     0.025 A 
ATOM      7  C   UNL d   1      13.757  13.861  -2.892  0.00  0.00     0.001 A 
ATOM      8  C   UNL d   1      13.432  13.923  -4.509  0.00  0.00     0.002 A 
ATOM      9  C   UNL d   1      13.828  14.575  -3.303  0.00  0.00     0.000 A 
ATOM     10  C   UNL d   1      13.666  14.609  -4.111  0.00  0.00     0.000 A 
ENDROOT
BRANCH   1  11
ATOM     11  S   UNL d   1      13.611  12.428  -2.087  0.00  0.00     0.285 S 
ATOM     12  O   UNL d   1      14.136  13.059  -2.163  0.00  0.00    -0.198 OA
ATOM     13  O   UNL d   1      13.085  11.795  -2.012  0.00  0.00    -0.198 OA
BRANCH  11  14
ATOM     14  N   UNL d   1      13.772  12.390  -1.279  0.00  0.00    -0.157 NA
BRANCH  14  15
ATOM     15  C   UNL d   1      14.516  12.628  -0.995  0.00  0.00     0.114 C 
BRANCH  15  16
ATOM     16  C   UNL d   1      14.688  13.432  -0.924  0.00  0.00     0.041 C 
BRANCH  16  17
ATOM     17  C   UNL d   1      14.960  13.738  -0.207  0.00  0.00     0.083 C 
BRANCH  17  18
ATOM     18  N   UNL d   1      15.386  14.444  -0.190  0.00  0.00    -0.285 N 
ATOM     19  C   UNL d   1      16.194  14.525  -0.345  0.00  0.00     0.183 A 
ATOM     20  N   UNL d   1      16.386  15.327  -0.266  0.00  0.00    -0.222 NA
ATOM     21  C   UNL d   1      15.699  15.737  -0.064  0.00  0.00     0.120 A 
ATOM     22  C   UNL d   1      15.081  15.188  -0.018  0.00  0.00     0.102 A 
ENDBRANCH  17  18
ENDBRANCH  16  17
ENDBRANCH  15  16
ENDBRANCH  14  15
ENDBRANCH  11  14
ENDBRANCH   1  11
BRANCH   5  23
ATOM     23  O   UNL d   1      12.965  12.577  -5.329  0.00  0.00    -0.305 OA
BRANCH  23  24
ATOM     24  C   UNL d   1      13.220  11.974  -5.820  0.00  0.00     0.123 C 
ATOM     25  C   UNL d   1      13.804  12.125  -6.382  0.00  0.00     0.029 C 
ENDBRANCH  23  24
ENDBRANCH   5  23
TORSDOF 8
ENDMDL
