MODEL 1
REMARK VINA RESULT:      -3.6      0.000      0.000
REMARK  6 active torsions:
REMARK  status: ('A' for Active; 'I' for Inactive)
REMARK    1  A    between atoms: C_9  and  C_2 
REMARK    2  A    between atoms: N_3  and  C_7 
REMARK       I    between atoms: C_8  and  N_14 
REMARK    3  A    between atoms: C_10  and  C_8 
REMARK    4  A    between atoms: C_13  and  C_10 
REMARK    5  A    between atoms: C_19  and  C_13 
REMARK    6  A    between atoms: N_14  and  C_20 
ROOT
ATOM      1  C   UNL d   1      32.970  21.524 -20.750  0.00  0.00     0.041 A 
ATOM      2  C   UNL d   1      32.867  20.722 -20.619  0.00  0.00     0.005 A 
ATOM      3  C   UNL d   1      33.061  21.841 -21.496  0.00  0.00     0.005 A 
ATOM      4  C   UNL d   1      32.947  20.537 -22.020  0.00  0.00     0.085 A 
ATOM      5  C   UNL d   1      32.859  20.233 -21.293  0.00  0.00     0.019 A 
ATOM      6  C   UNL d   1      33.050  21.340 -22.146  0.00  0.00     0.019 A 
ENDROOT
BRANCH   4   7
ATOM      7  N   UNL d   1      32.933  20.013 -22.656  0.00  0.00    -0.208 NA
ATOM      8  C   UNL d   1      33.081  19.206 -22.529  0.00  0.00     0.279 C 
ATOM      9  O   UNL d   1      33.239  18.953 -21.767  0.00  0.00    -0.265 OA
BRANCH   8  10
ATOM     10  C   UNL d   1      33.067  18.677 -23.163  0.00  0.00     0.062 C 
BRANCH  10  11
ATOM     11  C   UNL d   1      33.014  17.871 -23.043  0.00  0.00     0.005 C 
BRANCH  11  12
ATOM     12  C   UNL d   1      32.616  17.366 -23.589  0.00  0.00     0.002 A 
ATOM     13  C   UNL d   1      31.915  16.990 -23.367  0.00  0.00     0.024 A 
ATOM     14  C   UNL d   1      31.520  16.485 -23.920  0.00  0.00     0.127 A 
ATOM     15  C   UNL d   1      31.848  16.379 -24.674  0.00  0.00     0.024 A 
ATOM     16  C   UNL d   1      32.549  16.764 -24.874  0.00  0.00     0.002 A 
ATOM     17  C   UNL d   1      32.940  17.259 -24.337  0.00  0.00     0.000 A 
BRANCH  14  18
ATOM     18  N   UNL d   1      30.824  16.104 -23.716  0.00  0.00    -0.114 N 
ATOM     19  O   UNL d   1      30.737  15.520 -23.117  0.00  0.00    -0.532 OA
ATOM     20  O   UNL d   1      30.099  16.252 -24.086  0.00  0.00    -0.532 OA
ENDBRANCH  14  18
ENDBRANCH  11  12
ENDBRANCH  10  11
ENDBRANCH   8  10
ENDBRANCH   4   7
BRANCH   1  21
ATOM     21  C   UNL d   1      32.980  22.021 -20.084  0.00  0.00     0.182 A 
ATOM     22  N   UNL d   1      32.853  22.834 -19.969  0.00  0.00    -0.220 NA
ATOM     23  C   UNL d   1      32.940  22.996 -19.172  0.00  0.00     0.106 A 
ATOM     24  C   UNL d   1      33.121  22.288 -18.794  0.00  0.00     0.119 A 
ATOM     25  C   UNL d   1      32.879  23.702 -18.739  0.00  0.00     0.021 A 
ATOM     26  C   UNL d   1      33.241  22.282 -17.982  0.00  0.00     0.026 A 
ATOM     27  O   UNL d   1      33.143  21.711 -19.344  0.00  0.00    -0.288 OA
ATOM     28  C   UNL d   1      33.185  22.961 -17.541  0.00  0.00     0.002 A 
ATOM     29  C   UNL d   1      33.002  23.689 -17.914  0.00  0.00     0.002 A 
ENDBRANCH   1  21
TORSDOF 6
ENDMDL
MODEL 2
REMARK VINA RESULT:      -3.4      0.971      1.436
REMARK  6 active torsions:
REMARK  status: ('A' for Active; 'I' for Inactive)
REMARK    1  A    between atoms: C_9  and  C_2 
REMARK    2  A    between atoms: N_3  and  C_7 
REMARK       I    between atoms: C_8  and  N_14 
REMARK    3  A    between atoms: C_10  and  C_8 
REMARK    4  A    between atoms: C_13  and  C_10 
REMARK    5  A    between atoms: C_19  and  C_13 
REMARK    6  A    between atoms: N_14  and  C_20 
ROOT
ATOM      1  C   UNL d   1      33.042  20.735 -21.682  0.00  0.00     0.041 A 
ATOM      2  C   UNL d   1      32.991  20.014 -21.298  0.00  0.00     0.005 A 
ATOM      3  C   UNL d   1      33.156  20.798 -22.487  0.00  0.00     0.005 A 
ATOM      4  C   UNL d   1      33.175  19.390 -22.554  0.00  0.00     0.085 A 
ATOM      5  C   UNL d   1      33.063  19.333 -21.771  0.00  0.00     0.019 A 
ATOM      6  C   UNL d   1      33.225  20.113 -22.935  0.00  0.00     0.019 A 
ENDROOT
BRANCH   4   7
ATOM      7  N   UNL d   1      33.241  18.687 -22.981  0.00  0.00    -0.208 NA
ATOM      8  C   UNL d   1      32.746  18.555 -23.634  0.00  0.00     0.279 C 
ATOM      9  O   UNL d   1      32.201  19.131 -23.836  0.00  0.00    -0.265 OA
BRANCH   8  10
ATOM     10  C   UNL d   1      32.808  17.852 -24.064  0.00  0.00     0.062 C 
BRANCH  10  11
ATOM     11  C   UNL d   1      32.246  17.643 -24.619  0.00  0.00     0.005 C 
BRANCH  11  12
ATOM     12  C   UNL d   1      31.836  16.906 -24.579  0.00  0.00     0.002 A 
ATOM     13  C   UNL d   1      31.080  16.874 -24.249  0.00  0.00     0.024 A 
ATOM     14  C   UNL d   1      30.674  16.132 -24.211  0.00  0.00     0.127 A 
ATOM     15  C   UNL d   1      31.046  15.454 -24.509  0.00  0.00     0.024 A 
ATOM     16  C   UNL d   1      31.801  15.509 -24.834  0.00  0.00     0.002 A 
ATOM     17  C   UNL d   1      32.204  16.233 -24.874  0.00  0.00     0.000 A 
BRANCH  14  18
ATOM     18  N   UNL d   1      29.923  16.082 -23.887  0.00  0.00    -0.114 N 
ATOM     19  O   UNL d   1      29.208  16.331 -24.254  0.00  0.00    -0.532 OA
ATOM     20  O   UNL d   1      29.771  15.770 -23.136  0.00  0.00    -0.532 OA
ENDBRANCH  14  18
ENDBRANCH  11  12
ENDBRANCH  10  11
ENDBRANCH   8  10
ENDBRANCH   4   7
BRANCH   1  21
ATOM     21  C   UNL d   1      32.971  21.421 -21.219  0.00  0.00     0.182 A 
ATOM     22  N   UNL d   1      32.783  22.213 -21.384  0.00  0.00    -0.220 NA
ATOM     23  C   UNL d   1      32.803  22.634 -20.683  0.00  0.00     0.106 A 
ATOM     24  C   UNL d   1      33.001  22.106 -20.084  0.00  0.00     0.119 A 
ATOM     25  C   UNL d   1      32.664  23.434 -20.511  0.00  0.00     0.021 A 
ATOM     26  C   UNL d   1      33.063  22.375 -19.312  0.00  0.00     0.026 A 
ATOM     27  O   UNL d   1      33.100  21.384 -20.411  0.00  0.00    -0.288 OA
ATOM     28  C   UNL d   1      32.931  23.153 -19.123  0.00  0.00     0.002 A 
ATOM     29  C   UNL d   1      32.728  23.701 -19.724  0.00  0.00     0.002 A 
ENDBRANCH   1  21
TORSDOF 6
ENDMDL
MODEL 3
REMARK VINA RESULT:      -3.0      1.305      6.863
REMARK  6 active torsions:
REMARK  status: ('A' for Active; 'I' for Inactive)
REMARK    1  A    between atoms: C_9  and  C_2 
REMARK    2  A    between atoms: N_3  and  C_7 
REMARK       I    between atoms: C_8  and  N_14 
REMARK    3  A    between atoms: C_10  and  C_8 
REMARK    4  A    between atoms: C_13  and  C_10 
REMARK    5  A    between atoms: C_19  and  C_13 
REMARK    6  A    between atoms: N_14  and  C_20 
ROOT
ATOM      1  C   UNL d   1      32.717  19.023 -22.915  0.00  0.00     0.041 A 
ATOM      2  C   UNL d   1      32.441  19.711 -23.262  0.00  0.00     0.005 A 
ATOM      3  C   UNL d   1      33.112  19.018 -22.201  0.00  0.00     0.005 A 
ATOM      4  C   UNL d   1      32.965  20.420 -22.155  0.00  0.00     0.085 A 
ATOM      5  C   UNL d   1      32.581  20.420 -22.849  0.00  0.00     0.019 A 
ATOM      6  C   UNL d   1      33.240  19.729 -21.811  0.00  0.00     0.019 A 
ENDROOT
BRANCH   4   7
ATOM      7  N   UNL d   1      33.080  21.146 -21.783  0.00  0.00    -0.208 NA
ATOM      8  C   UNL d   1      32.733  21.290 -21.043  0.00  0.00     0.279 C 
ATOM      9  O   UNL d   1      32.281  20.700 -20.701  0.00  0.00    -0.265 OA
BRANCH   8  10
ATOM     10  C   UNL d   1      32.846  22.017 -20.668  0.00  0.00     0.062 C 
BRANCH  10  11
ATOM     11  C   UNL d   1      33.235  22.069 -19.951  0.00  0.00     0.005 C 
BRANCH  11  12
ATOM     12  C   UNL d   1      32.957  22.569 -19.330  0.00  0.00     0.002 A 
ATOM     13  C   UNL d   1      33.165  22.408 -18.547  0.00  0.00     0.024 A 
ATOM     14  C   UNL d   1      32.884  22.913 -17.930  0.00  0.00     0.127 A 
ATOM     15  C   UNL d   1      32.404  23.560 -18.126  0.00  0.00     0.024 A 
ATOM     16  C   UNL d   1      32.208  23.702 -18.914  0.00  0.00     0.002 A 
ATOM     17  C   UNL d   1      32.481  23.211 -19.523  0.00  0.00     0.000 A 
BRANCH  14  18
ATOM     18  N   UNL d   1      33.080  22.769 -17.147  0.00  0.00    -0.114 N 
ATOM     19  O   UNL d   1      33.175  22.011 -16.794  0.00  0.00    -0.532 OA
ATOM     20  O   UNL d   1      33.214  23.367 -16.593  0.00  0.00    -0.532 OA
ENDBRANCH  14  18
ENDBRANCH  11  12
ENDBRANCH  10  11
ENDBRANCH   8  10
ENDBRANCH   4   7
BRANCH   1  21
ATOM     21  C   UNL d   1      32.582  18.310 -23.319  0.00  0.00     0.182 A 
ATOM     22  N   UNL d   1      33.055  17.814 -23.788  0.00  0.00    -0.220 NA
ATOM     23  C   UNL d   1      32.598  17.182 -24.035  0.00  0.00     0.106 A 
ATOM     24  C   UNL d   1      31.844  17.285 -23.721  0.00  0.00     0.119 A 
ATOM     25  C   UNL d   1      32.771  16.522 -24.508  0.00  0.00     0.021 A 
ATOM     26  C   UNL d   1      31.262  16.729 -23.878  0.00  0.00     0.026 A 
ATOM     27  O   UNL d   1      31.842  17.960 -23.295  0.00  0.00    -0.288 OA
ATOM     28  C   UNL d   1      31.411  16.078 -24.337  0.00  0.00     0.002 A 
ATOM     29  C   UNL d   1      32.174  15.961 -24.664  0.00  0.00     0.002 A 
ENDBRANCH   1  21
TORSDOF 6
ENDMDL
