MODEL 1
REMARK VINA RESULT:     104.2      0.000      0.000
REMARK  4 active torsions:
REMARK  status: ('A' for Active; 'I' for Inactive)
REMARK    1  A    between atoms: C_9  and  N_1 
REMARK    2  A    between atoms: C_6  and  C_2 
REMARK       I    between atoms: N_8  and  C_6 
REMARK    3  A    between atoms: C_15  and  N_8 
REMARK    4  A    between atoms: C_13  and  C_9 
ROOT
ATOM      1  N   UNL d   1      60.129  48.988  50.851  0.00  0.00    -0.258 N 
ATOM      2  C   UNL d   1      60.174  47.684  50.487  0.00  0.00     0.114 A 
ATOM      3  C   UNL d   1      60.546  48.342  50.692  0.00  0.00     0.270 A 
ATOM      4  C   UNL d   1      59.350  48.978  50.805  0.00  0.00     0.150 A 
ATOM      5  C   UNL d   1      59.393  47.669  50.441  0.00  0.00     0.013 A 
ATOM      6  C   UNL d   1      58.985  48.316  50.600  0.00  0.00     0.035 A 
ATOM      7  N   UNL d   1      58.945  49.614  50.962  0.00  0.00    -0.227 NA
ATOM      8  O   UNL d   1      61.199  48.096  50.658  0.00  0.00    -0.266 OA
ATOM      9  C   UNL d   1      58.201  48.298  50.553  0.00  0.00     0.005 A 
ATOM     10  C   UNL d   1      58.172  49.608  50.918  0.00  0.00     0.101 A 
ATOM     11  C   UNL d   1      57.800  48.950  50.714  0.00  0.00     0.021 A 
ENDROOT
BRANCH   2  12
ATOM     12  C   UNL d   1      60.586  47.035  50.328  0.00  0.00     0.284 C 
ATOM     13  N   UNL d   1      60.940  46.748  49.630  0.00  0.00    -0.208 NA
ATOM     14  O   UNL d   1      60.551  46.817  50.912  0.00  0.00    -0.265 OA
BRANCH  13  15
ATOM     15  C   UNL d   1      61.357  46.009  49.639  0.00  0.00     0.085 A 
ATOM     16  C   UNL d   1      61.014  45.335  49.982  0.00  0.00     0.019 A 
ATOM     17  C   UNL d   1      61.432  44.623  49.984  0.00  0.00     0.002 A 
ATOM     18  C   UNL d   1      62.183  44.581  49.647  0.00  0.00     0.000 A 
ATOM     19  C   UNL d   1      62.538  45.243  49.301  0.00  0.00     0.002 A 
ATOM     20  C   UNL d   1      62.115  45.964  49.299  0.00  0.00     0.019 A 
ENDBRANCH  13  15
ENDBRANCH   2  12
BRANCH   1  21
ATOM     21  C   UNL d   1      60.522  49.692  51.069  0.00  0.00     0.084 C 
BRANCH  21  22
ATOM     22  C   UNL d   1      60.906  49.694  51.585  0.00  0.00     0.018 A 
ATOM     23  C   UNL d   1      60.521  49.698  52.359  0.00  0.00     0.004 A 
ATOM     24  C   UNL d   1      60.999  49.701  53.083  0.00  0.00     0.030 A 
ATOM     25  C   UNL d   1      61.857  49.699  53.028  0.00  0.00     0.140 A 
ATOM     26  C   UNL d   1      62.250  49.694  52.263  0.00  0.00     0.030 A 
ATOM     27  F   UNL d   1      62.323  49.701  53.732  0.00  0.00    -0.204 F 
ATOM     28  C   UNL d   1      61.772  49.691  51.532  0.00  0.00     0.004 A 
ENDBRANCH  21  22
ENDBRANCH   1  21
TORSDOF 4
ENDMDL
