MODEL 1
REMARK VINA RESULT:      64.7      0.000      0.000
REMARK  5 active torsions:
REMARK  status: ('A' for Active; 'I' for Inactive)
REMARK    1  A    between atoms: C_12  and  C_4 
REMARK    2  A    between atoms: N_10  and  C_6 
REMARK    3  A    between atoms: C_11  and  C_9 
REMARK    4  A    between atoms: C_14  and  N_10 
REMARK    5  A    between atoms: C_15  and  C_14 
ROOT
ATOM      1  C   UNL d   1      46.005 -18.288  42.426  0.00  0.00     0.167 A 
ATOM      2  N   UNL d   1      45.876 -18.078  41.636  0.00  0.00    -0.195 N 
ATOM      3  N   UNL d   1      46.260 -19.372  41.242  0.00  0.00    -0.163 NA
ATOM      4  C   UNL d   1      46.258 -19.030  42.617  0.00  0.00     0.055 A 
ATOM      5  N   UNL d   1      45.876 -17.739  43.023  0.00  0.00    -0.231 NA
ATOM      6  C   UNL d   1      45.620 -17.324  41.463  0.00  0.00     0.167 A 
ATOM      7  C   UNL d   1      46.388 -19.579  42.019  0.00  0.00     0.104 A 
ATOM      8  C   UNL d   1      45.489 -16.771  42.061  0.00  0.00     0.054 A 
ATOM      9  C   UNL d   1      45.617 -16.978  42.839  0.00  0.00     0.063 A 
ATOM     10  C   UNL d   1      46.643 -20.330  42.198  0.00  0.00     0.023 C 
ENDROOT
BRANCH   6  11
ATOM     11  N   UNL d   1      45.486 -17.106  40.648  0.00  0.00    -0.224 NA
BRANCH  11  12
ATOM     12  C   UNL d   1      45.417 -17.440  39.879  0.00  0.00     0.120 C 
BRANCH  12  13
ATOM     13  C   UNL d   1      45.270 -16.951  39.211  0.00  0.00     0.101 A 
ATOM     14  N   UNL d   1      45.885 -16.456  38.915  0.00  0.00    -0.242 NA
ATOM     15  C   UNL d   1      45.731 -15.959  38.234  0.00  0.00     0.099 A 
ATOM     16  C   UNL d   1      44.974 -15.966  37.867  0.00  0.00     0.021 A 
ATOM     17  C   UNL d   1      44.351 -16.474  38.174  0.00  0.00     0.003 A 
ATOM     18  C   UNL d   1      44.508 -16.960  38.842  0.00  0.00     0.021 A 
ENDBRANCH  12  13
ENDBRANCH  11  12
ENDBRANCH   6  11
BRANCH   9  19
ATOM     19  C   UNL d   1      45.484 -16.410  43.460  0.00  0.00     0.036 C 
ATOM     20  C   UNL d   1      45.353 -15.853  44.077  0.00  0.00     0.006 C 
ATOM     21  C   UNL d   1      45.271 -15.608  43.263  0.00  0.00     0.006 C 
ATOM     22  C   UNL d   1      45.565 -16.654  44.269  0.00  0.00     0.006 C 
ENDBRANCH   9  19
BRANCH   4  23
ATOM     23  C   UNL d   1      46.387 -19.238  43.398  0.00  0.00     0.004 A 
ATOM     24  C   UNL d   1      46.516 -20.022  43.588  0.00  0.00     0.000 A 
ATOM     25  C   UNL d   1      46.646 -20.233  44.378  0.00  0.00     0.000 A 
ATOM     26  C   UNL d   1      46.643 -19.653  44.955  0.00  0.00     0.000 A 
ATOM     27  C   UNL d   1      46.512 -18.870  44.750  0.00  0.00     0.000 A 
ATOM     28  C   UNL d   1      46.384 -18.662  43.972  0.00  0.00     0.000 A 
ENDBRANCH   4  23
TORSDOF 5
ENDMDL
MODEL 2
REMARK VINA RESULT:      65.3      1.504      4.008
REMARK  5 active torsions:
REMARK  status: ('A' for Active; 'I' for Inactive)
REMARK    1  A    between atoms: C_12  and  C_4 
REMARK    2  A    between atoms: N_10  and  C_6 
REMARK    3  A    between atoms: C_11  and  C_9 
REMARK    4  A    between atoms: C_14  and  N_10 
REMARK    5  A    between atoms: C_15  and  C_14 
ROOT
ATOM      1  C   UNL d   1      45.878 -17.808  41.784  0.00  0.00     0.167 A 
ATOM      2  N   UNL d   1      45.892 -17.025  42.053  0.00  0.00    -0.195 N 
ATOM      3  N   UNL d   1      45.901 -16.580  40.719  0.00  0.00    -0.163 NA
ATOM      4  C   UNL d   1      45.876 -17.970  40.995  0.00  0.00     0.055 A 
ATOM      5  N   UNL d   1      45.867 -18.427  42.324  0.00  0.00    -0.231 NA
ATOM      6  C   UNL d   1      45.894 -16.881  42.856  0.00  0.00     0.167 A 
ATOM      7  C   UNL d   1      45.887 -17.351  40.455  0.00  0.00     0.104 A 
ATOM      8  C   UNL d   1      45.883 -17.501  43.400  0.00  0.00     0.054 A 
ATOM      9  C   UNL d   1      45.869 -18.272  43.135  0.00  0.00     0.063 A 
ATOM     10  C   UNL d   1      45.885 -17.500  39.656  0.00  0.00     0.023 C 
ENDROOT
BRANCH   6  11
ATOM     11  N   UNL d   1      45.909 -16.073  43.133  0.00  0.00    -0.224 NA
BRANCH  11  12
ATOM     12  C   UNL d   1      46.402 -15.522  43.535  0.00  0.00     0.120 C 
BRANCH  12  13
ATOM     13  C   UNL d   1      46.066 -14.899  43.990  0.00  0.00     0.101 A 
ATOM     14  N   UNL d   1      46.530 -14.219  44.169  0.00  0.00    -0.242 NA
ATOM     15  C   UNL d   1      46.185 -13.587  44.632  0.00  0.00     0.099 A 
ATOM     16  C   UNL d   1      45.391 -13.647  44.905  0.00  0.00     0.021 A 
ATOM     17  C   UNL d   1      44.923 -14.344  44.719  0.00  0.00     0.003 A 
ATOM     18  C   UNL d   1      45.267 -14.961  44.263  0.00  0.00     0.021 A 
ENDBRANCH  12  13
ENDBRANCH  11  12
ENDBRANCH   6  11
BRANCH   9  19
ATOM     19  C   UNL d   1      45.857 -18.915  43.693  0.00  0.00     0.036 C 
ATOM     20  C   UNL d   1      45.851 -19.550  44.245  0.00  0.00     0.006 C 
ATOM     21  C   UNL d   1      45.136 -19.353  43.821  0.00  0.00     0.006 C 
ATOM     22  C   UNL d   1      46.567 -19.111  44.115  0.00  0.00     0.006 C 
ENDBRANCH   9  19
BRANCH   4  23
ATOM     23  C   UNL d   1      45.862 -18.744  40.728  0.00  0.00     0.004 A 
ATOM     24  C   UNL d   1      45.158 -19.065  40.464  0.00  0.00     0.000 A 
ATOM     25  C   UNL d   1      45.144 -19.848  40.195  0.00  0.00     0.000 A 
ATOM     26  C   UNL d   1      45.835 -20.286  40.198  0.00  0.00     0.000 A 
ATOM     27  C   UNL d   1      46.534 -19.952  40.466  0.00  0.00     0.000 A 
ATOM     28  C   UNL d   1      46.547 -19.181  40.731  0.00  0.00     0.000 A 
ENDBRANCH   4  23
TORSDOF 5
ENDMDL
MODEL 3
REMARK VINA RESULT:      65.7      2.029      5.940
REMARK  5 active torsions:
REMARK  status: ('A' for Active; 'I' for Inactive)
REMARK    1  A    between atoms: C_12  and  C_4 
REMARK    2  A    between atoms: N_10  and  C_6 
REMARK    3  A    between atoms: C_11  and  C_9 
REMARK    4  A    between atoms: C_14  and  N_10 
REMARK    5  A    between atoms: C_15  and  C_14 
ROOT
ATOM      1  C   UNL d   1      44.736 -16.372  38.226  0.00  0.00     0.167 A 
ATOM      2  N   UNL d   1      45.196 -16.769  38.788  0.00  0.00    -0.195 N 
ATOM      3  N   UNL d   1      44.031 -17.369  39.299  0.00  0.00    -0.163 NA
ATOM      4  C   UNL d   1      43.937 -16.474  38.204  0.00  0.00     0.055 A 
ATOM      5  N   UNL d   1      45.095 -15.869  37.684  0.00  0.00    -0.231 NA
ATOM      6  C   UNL d   1      46.003 -16.653  38.795  0.00  0.00     0.167 A 
ATOM      7  C   UNL d   1      43.578 -16.978  38.745  0.00  0.00     0.104 A 
ATOM      8  C   UNL d   1      46.365 -16.148  38.252  0.00  0.00     0.054 A 
ATOM      9  C   UNL d   1      45.912 -15.757  37.698  0.00  0.00     0.063 A 
ATOM     10  C   UNL d   1      42.773 -17.090  38.734  0.00  0.00     0.023 C 
ENDROOT
BRANCH   6  11
ATOM     11  N   UNL d   1      46.477 -17.063  39.375  0.00  0.00    -0.224 NA
BRANCH  11  12
ATOM     12  C   UNL d   1      46.606 -17.115  40.205  0.00  0.00     0.120 C 
BRANCH  12  13
ATOM     13  C   UNL d   1      46.607 -17.861  40.592  0.00  0.00     0.101 A 
ATOM     14  N   UNL d   1      46.645 -18.567  40.134  0.00  0.00    -0.242 NA
ATOM     15  C   UNL d   1      46.646 -19.326  40.532  0.00  0.00     0.099 A 
ATOM     16  C   UNL d   1      46.609 -19.362  41.373  0.00  0.00     0.021 A 
ATOM     17  C   UNL d   1      46.571 -18.638  41.834  0.00  0.00     0.003 A 
ATOM     18  C   UNL d   1      46.571 -17.896  41.438  0.00  0.00     0.021 A 
ENDBRANCH  12  13
ENDBRANCH  11  12
ENDBRANCH   6  11
BRANCH   9  19
ATOM     19  C   UNL d   1      46.281 -15.235  37.136  0.00  0.00     0.036 C 
ATOM     20  C   UNL d   1      46.646 -14.723  36.577  0.00  0.00     0.006 C 
ATOM     21  C   UNL d   1      46.554 -14.466  37.386  0.00  0.00     0.006 C 
ATOM     22  C   UNL d   1      46.373 -15.490  36.332  0.00  0.00     0.006 C 
ENDBRANCH   9  19
BRANCH   4  23
ATOM     23  C   UNL d   1      43.482 -16.081  37.648  0.00  0.00     0.004 A 
ATOM     24  C   UNL d   1      43.420 -16.387  36.892  0.00  0.00     0.000 A 
ATOM     25  C   UNL d   1      42.960 -15.990  36.330  0.00  0.00     0.000 A 
ATOM     26  C   UNL d   1      42.576 -15.299  36.540  0.00  0.00     0.000 A 
ATOM     27  C   UNL d   1      42.647 -15.004  37.302  0.00  0.00     0.000 A 
ATOM     28  C   UNL d   1      43.099 -15.395  37.855  0.00  0.00     0.000 A 
ENDBRANCH   4  23
TORSDOF 5
ENDMDL
