MODEL 1
REMARK VINA RESULT:      -6.6      0.000      0.000
REMARK  4 active torsions:
REMARK  status: ('A' for Active; 'I' for Inactive)
REMARK    1  A    between atoms: C_10  and  N_3 
REMARK    2  A    between atoms: C_12  and  N_7 
REMARK    3  A    between atoms: C_19  and  C_12 
REMARK    4  A    between atoms: C_20  and  C_19 
ROOT
ATOM      1  C   UNL d   1     -47.589  13.356  22.712  0.00  0.00     0.172 A 
ATOM      2  C   UNL d   1     -47.142  14.048  22.743  0.00  0.00     0.113 A 
ATOM      3  N   UNL d   1     -48.375  13.560  22.882  0.00  0.00    -0.212 N 
ATOM      4  N   UNL d   1     -47.229  12.639  22.536  0.00  0.00    -0.206 NA
ATOM      5  C   UNL d   1     -46.335  14.025  22.599  0.00  0.00     0.270 A 
ATOM      6  N   UNL d   1     -48.400  14.367  23.014  0.00  0.00    -0.162 NA
ATOM      7  N   UNL d   1     -45.967  13.304  22.421  0.00  0.00    -0.255 N 
ATOM      8  C   UNL d   1     -47.659  14.668  22.932  0.00  0.00     0.129 A 
ATOM      9  C   UNL d   1     -46.415  12.612  22.389  0.00  0.00     0.187 A 
ATOM     10  O   UNL d   1     -45.888  14.717  22.630  0.00  0.00    -0.266 OA
ENDROOT
BRANCH   3  11
ATOM     11  C   UNL d   1     -49.030  13.079  22.920  0.00  0.00     0.085 A 
ATOM     12  C   UNL d   1     -49.233  12.712  23.633  0.00  0.00     0.021 A 
ATOM     13  C   UNL d   1     -49.896  12.227  23.668  0.00  0.00     0.031 A 
ATOM     14  C   UNL d   1     -50.360  12.097  23.014  0.00  0.00     0.140 A 
ATOM     15  C   UNL d   1     -50.155  12.470  22.287  0.00  0.00     0.031 A 
ATOM     16  F   UNL d   1     -51.032  11.598  23.070  0.00  0.00    -0.204 F 
ATOM     17  C   UNL d   1     -49.498  12.955  22.242  0.00  0.00     0.021 A 
ENDBRANCH   3  11
BRANCH   7  18
ATOM     18  C   UNL d   1     -45.147  13.272  22.272  0.00  0.00     0.085 C 
BRANCH  18  19
ATOM     19  C   UNL d   1     -44.816  12.602  21.909  0.00  0.00     0.019 C 
BRANCH  19  20
ATOM     20  C   UNL d   1     -43.991  12.557  21.811  0.00  0.00     0.002 C 
ATOM     21  C   UNL d   1     -43.554  12.069  22.311  0.00  0.00     0.000 C 
ATOM     22  C   UNL d   1     -43.621  12.992  21.226  0.00  0.00     0.000 C 
ENDBRANCH  19  20
ENDBRANCH  18  19
ENDBRANCH   7  18
TORSDOF 4
ENDMDL
MODEL 2
REMARK VINA RESULT:      -6.3      1.315      1.667
REMARK  4 active torsions:
REMARK  status: ('A' for Active; 'I' for Inactive)
REMARK    1  A    between atoms: C_10  and  N_3 
REMARK    2  A    between atoms: C_12  and  N_7 
REMARK    3  A    between atoms: C_19  and  C_12 
REMARK    4  A    between atoms: C_20  and  C_19 
ROOT
ATOM      1  C   UNL d   1     -47.616  12.877  22.666  0.00  0.00     0.172 A 
ATOM      2  C   UNL d   1     -47.191  12.405  23.192  0.00  0.00     0.113 A 
ATOM      3  N   UNL d   1     -48.420  12.799  22.856  0.00  0.00    -0.212 N 
ATOM      4  N   UNL d   1     -47.223  13.311  22.091  0.00  0.00    -0.206 NA
ATOM      5  C   UNL d   1     -46.373  12.366  23.143  0.00  0.00     0.270 A 
ATOM      6  N   UNL d   1     -48.478  12.285  23.490  0.00  0.00    -0.162 NA
ATOM      7  N   UNL d   1     -45.973  12.802  22.565  0.00  0.00    -0.255 N 
ATOM      8  C   UNL d   1     -47.740  12.043  23.698  0.00  0.00     0.129 A 
ATOM      9  C   UNL d   1     -46.397  13.274  22.039  0.00  0.00     0.187 A 
ATOM     10  O   UNL d   1     -45.949  11.893  23.669  0.00  0.00    -0.266 OA
ENDROOT
BRANCH   3  11
ATOM     11  C   UNL d   1     -49.064  13.150  22.503  0.00  0.00     0.085 A 
ATOM     12  C   UNL d   1     -49.451  12.772  21.879  0.00  0.00     0.021 A 
ATOM     13  C   UNL d   1     -50.102  13.130  21.525  0.00  0.00     0.031 A 
ATOM     14  C   UNL d   1     -50.375  13.852  21.776  0.00  0.00     0.140 A 
ATOM     15  C   UNL d   1     -49.982  14.240  22.412  0.00  0.00     0.031 A 
ATOM     16  F   UNL d   1     -51.040  14.201  21.402  0.00  0.00    -0.204 F 
ATOM     17  C   UNL d   1     -49.334  13.892  22.771  0.00  0.00     0.021 A 
ENDBRANCH   3  11
BRANCH   7  18
ATOM     18  C   UNL d   1     -45.140  12.768  22.508  0.00  0.00     0.085 C 
BRANCH  18  19
ATOM     19  C   UNL d   1     -44.768  12.890  21.776  0.00  0.00     0.019 C 
BRANCH  19  20
ATOM     20  C   UNL d   1     -43.942  12.806  21.720  0.00  0.00     0.002 C 
ATOM     21  C   UNL d   1     -43.499  13.418  21.389  0.00  0.00     0.000 C 
ATOM     22  C   UNL d   1     -43.577  12.127  21.990  0.00  0.00     0.000 C 
ENDBRANCH  19  20
ENDBRANCH  18  19
ENDBRANCH   7  18
TORSDOF 4
ENDMDL
MODEL 3
REMARK VINA RESULT:      -6.2      1.908      4.286
REMARK  4 active torsions:
REMARK  status: ('A' for Active; 'I' for Inactive)
REMARK    1  A    between atoms: C_10  and  N_3 
REMARK    2  A    between atoms: C_12  and  N_7 
REMARK    3  A    between atoms: C_19  and  C_12 
REMARK    4  A    between atoms: C_20  and  C_19 
ROOT
ATOM      1  C   UNL d   1     -47.083  13.159  22.838  0.00  0.00     0.172 A 
ATOM      2  C   UNL d   1     -47.154  13.980  22.802  0.00  0.00     0.113 A 
ATOM      3  N   UNL d   1     -46.298  12.987  23.048  0.00  0.00    -0.212 N 
ATOM      4  N   UNL d   1     -47.730  12.680  22.678  0.00  0.00    -0.206 NA
ATOM      5  C   UNL d   1     -47.873  14.323  22.606  0.00  0.00     0.270 A 
ATOM      6  N   UNL d   1     -45.903  13.698  23.137  0.00  0.00    -0.162 NA
ATOM      7  N   UNL d   1     -48.529  13.844  22.444  0.00  0.00    -0.255 N 
ATOM      8  C   UNL d   1     -46.413  14.301  22.990  0.00  0.00     0.129 A 
ATOM      9  C   UNL d   1     -48.458  13.023  22.480  0.00  0.00     0.187 A 
ATOM     10  O   UNL d   1     -47.945  15.144  22.570  0.00  0.00    -0.266 OA
ENDROOT
BRANCH   3  11
ATOM     11  C   UNL d   1     -45.947  12.261  23.155  0.00  0.00     0.085 A 
ATOM     12  C   UNL d   1     -45.202  12.110  22.830  0.00  0.00     0.021 A 
ATOM     13  C   UNL d   1     -44.849  11.375  22.941  0.00  0.00     0.031 A 
ATOM     14  C   UNL d   1     -45.218  10.790  23.365  0.00  0.00     0.140 A 
ATOM     15  C   UNL d   1     -45.977  10.941  23.698  0.00  0.00     0.031 A 
ATOM     16  F   UNL d   1     -44.842  10.046  23.467  0.00  0.00    -0.204 F 
ATOM     17  C   UNL d   1     -46.336  11.669  23.594  0.00  0.00     0.021 A 
ENDBRANCH   3  11
BRANCH   7  18
ATOM     18  C   UNL d   1     -49.264  14.185  22.244  0.00  0.00     0.085 C 
BRANCH  18  19
ATOM     19  C   UNL d   1     -49.971  13.831  22.500  0.00  0.00     0.019 C 
BRANCH  19  20
ATOM     20  C   UNL d   1     -50.698  14.129  22.226  0.00  0.00     0.002 C 
ATOM     21  C   UNL d   1     -51.047  13.786  21.564  0.00  0.00     0.000 C 
ATOM     22  C   UNL d   1     -51.059  14.753  22.611  0.00  0.00     0.000 C 
ENDBRANCH  19  20
ENDBRANCH  18  19
ENDBRANCH   7  18
TORSDOF 4
ENDMDL
MODEL 4
REMARK VINA RESULT:      -6.1      1.423      1.787
REMARK  4 active torsions:
REMARK  status: ('A' for Active; 'I' for Inactive)
REMARK    1  A    between atoms: C_10  and  N_3 
REMARK    2  A    between atoms: C_12  and  N_7 
REMARK    3  A    between atoms: C_19  and  C_12 
REMARK    4  A    between atoms: C_20  and  C_19 
ROOT
ATOM      1  C   UNL d   1     -47.204  12.555  22.996  0.00  0.00     0.172 A 
ATOM      2  C   UNL d   1     -46.516  12.926  22.735  0.00  0.00     0.113 A 
ATOM      3  N   UNL d   1     -47.840  13.060  22.823  0.00  0.00    -0.212 N 
ATOM      4  N   UNL d   1     -47.166  11.817  23.352  0.00  0.00    -0.206 NA
ATOM      5  C   UNL d   1     -45.788  12.560  22.830  0.00  0.00     0.270 A 
ATOM      6  N   UNL d   1     -47.536  13.728  22.462  0.00  0.00    -0.162 NA
ATOM      7  N   UNL d   1     -45.744  11.815  23.189  0.00  0.00    -0.255 N 
ATOM      8  C   UNL d   1     -46.738  13.654  22.405  0.00  0.00     0.129 A 
ATOM      9  C   UNL d   1     -46.433  11.443  23.450  0.00  0.00     0.187 A 
ATOM     10  O   UNL d   1     -45.100  12.931  22.569  0.00  0.00    -0.266 OA
ENDROOT
BRANCH   3  11
ATOM     11  C   UNL d   1     -48.633  12.950  22.969  0.00  0.00     0.085 A 
ATOM     12  C   UNL d   1     -49.054  12.374  22.552  0.00  0.00     0.021 A 
ATOM     13  C   UNL d   1     -49.855  12.265  22.701  0.00  0.00     0.031 A 
ATOM     14  C   UNL d   1     -50.246  12.714  23.253  0.00  0.00     0.140 A 
ATOM     15  C   UNL d   1     -49.819  13.302  23.679  0.00  0.00     0.031 A 
ATOM     16  F   UNL d   1     -51.064  12.589  23.391  0.00  0.00    -0.204 F 
ATOM     17  C   UNL d   1     -49.022  13.418  23.538  0.00  0.00     0.021 A 
ENDBRANCH   3  11
BRANCH   7  18
ATOM     18  C   UNL d   1     -45.008  11.435  23.289  0.00  0.00     0.085 C 
BRANCH  18  19
ATOM     19  C   UNL d   1     -44.978  10.648  23.555  0.00  0.00     0.019 C 
BRANCH  19  20
ATOM     20  C   UNL d   1     -44.249  10.248  23.562  0.00  0.00     0.002 C 
ATOM     21  C   UNL d   1     -43.557  10.675  23.430  0.00  0.00     0.000 C 
ATOM     22  C   UNL d   1     -44.221   9.443  23.698  0.00  0.00     0.000 C 
ENDBRANCH  19  20
ENDBRANCH  18  19
ENDBRANCH   7  18
TORSDOF 4
ENDMDL
MODEL 5
REMARK VINA RESULT:      -5.6      8.185      9.486
REMARK  4 active torsions:
REMARK  status: ('A' for Active; 'I' for Inactive)
REMARK    1  A    between atoms: C_10  and  N_3 
REMARK    2  A    between atoms: C_12  and  N_7 
REMARK    3  A    between atoms: C_19  and  C_12 
REMARK    4  A    between atoms: C_20  and  C_19 
ROOT
ATOM      1  C   UNL d   1     -39.716  14.371  18.898  0.00  0.00     0.172 A 
ATOM      2  C   UNL d   1     -40.412  14.376  19.341  0.00  0.00     0.113 A 
ATOM      3  N   UNL d   1     -39.919  14.168  18.119  0.00  0.00    -0.212 N 
ATOM      4  N   UNL d   1     -38.999  14.551  19.254  0.00  0.00    -0.206 NA
ATOM      5  C   UNL d   1     -40.391  14.559  20.140  0.00  0.00     0.270 A 
ATOM      6  N   UNL d   1     -40.728  14.051  18.095  0.00  0.00    -0.162 NA
ATOM      7  N   UNL d   1     -39.670  14.740  20.504  0.00  0.00    -0.255 N 
ATOM      8  C   UNL d   1     -41.032  14.174  18.828  0.00  0.00     0.129 A 
ATOM      9  C   UNL d   1     -38.974  14.736  20.061  0.00  0.00     0.187 A 
ATOM     10  O   UNL d   1     -41.087  14.563  20.583  0.00  0.00    -0.266 OA
ENDROOT
BRANCH   3  11
ATOM     11  C   UNL d   1     -39.434  14.088  17.470  0.00  0.00     0.085 A 
ATOM     12  C   UNL d   1     -39.012  13.387  17.353  0.00  0.00     0.021 A 
ATOM     13  C   UNL d   1     -38.523  13.310  16.696  0.00  0.00     0.031 A 
ATOM     14  C   UNL d   1     -38.444  13.911  16.156  0.00  0.00     0.140 A 
ATOM     15  C   UNL d   1     -38.872  14.627  16.274  0.00  0.00     0.031 A 
ATOM     16  F   UNL d   1     -37.939  13.813  15.492  0.00  0.00    -0.204 F 
ATOM     17  C   UNL d   1     -39.361  14.713  16.924  0.00  0.00     0.021 A 
ENDBRANCH   3  11
BRANCH   7  18
ATOM     18  C   UNL d   1     -39.640  14.928  21.317  0.00  0.00     0.085 C 
BRANCH  18  19
ATOM     19  C   UNL d   1     -38.907  14.986  21.704  0.00  0.00     0.019 C 
BRANCH  19  20
ATOM     20  C   UNL d   1     -38.888  15.161  22.517  0.00  0.00     0.002 C 
ATOM     21  C   UNL d   1     -38.693  14.565  23.050  0.00  0.00     0.000 C 
ATOM     22  C   UNL d   1     -39.061  15.915  22.780  0.00  0.00     0.000 C 
ENDBRANCH  19  20
ENDBRANCH  18  19
ENDBRANCH   7  18
TORSDOF 4
ENDMDL
MODEL 6
REMARK VINA RESULT:      -5.0      2.236      4.719
REMARK  4 active torsions:
REMARK  status: ('A' for Active; 'I' for Inactive)
REMARK    1  A    between atoms: C_10  and  N_3 
REMARK    2  A    between atoms: C_12  and  N_7 
REMARK    3  A    between atoms: C_19  and  C_12 
REMARK    4  A    between atoms: C_20  and  C_19 
ROOT
ATOM      1  C   UNL d   1     -47.316  13.066  22.732  0.00  0.00     0.172 A 
ATOM      2  C   UNL d   1     -47.867  12.693  23.220  0.00  0.00     0.113 A 
ATOM      3  N   UNL d   1     -46.580  12.709  22.870  0.00  0.00    -0.212 N 
ATOM      4  N   UNL d   1     -47.552  13.673  22.232  0.00  0.00    -0.206 NA
ATOM      5  C   UNL d   1     -48.653  12.927  23.208  0.00  0.00     0.270 A 
ATOM      6  N   UNL d   1     -46.687  12.127  23.436  0.00  0.00    -0.162 NA
ATOM      7  N   UNL d   1     -48.895  13.538  22.706  0.00  0.00    -0.255 N 
ATOM      8  C   UNL d   1     -47.461  12.112  23.651  0.00  0.00     0.129 A 
ATOM      9  C   UNL d   1     -48.345  13.911  22.218  0.00  0.00     0.187 A 
ATOM     10  O   UNL d   1     -49.203  12.554  23.697  0.00  0.00    -0.266 OA
ENDROOT
BRANCH   3  11
ATOM     11  C   UNL d   1     -45.860  12.875  22.528  0.00  0.00     0.085 A 
ATOM     12  C   UNL d   1     -45.410  12.268  22.195  0.00  0.00     0.021 A 
ATOM     13  C   UNL d   1     -44.683  12.439  21.850  0.00  0.00     0.031 A 
ATOM     14  C   UNL d   1     -44.395  13.198  21.830  0.00  0.00     0.140 A 
ATOM     15  C   UNL d   1     -44.852  13.819  22.169  0.00  0.00     0.031 A 
ATOM     16  F   UNL d   1     -43.651  13.354  21.474  0.00  0.00    -0.204 F 
ATOM     17  C   UNL d   1     -45.576  13.659  22.514  0.00  0.00     0.021 A 
ENDBRANCH   3  11
BRANCH   7  18
ATOM     18  C   UNL d   1     -49.693  13.782  22.688  0.00  0.00     0.085 C 
BRANCH  18  19
ATOM     19  C   UNL d   1     -49.881  14.589  22.620  0.00  0.00     0.019 C 
BRANCH  19  20
ATOM     20  C   UNL d   1     -50.676  14.816  22.530  0.00  0.00     0.002 C 
ATOM     21  C   UNL d   1     -51.064  15.174  23.162  0.00  0.00     0.000 C 
ATOM     22  C   UNL d   1     -51.064  14.685  21.823  0.00  0.00     0.000 C 
ENDBRANCH  19  20
ENDBRANCH  18  19
ENDBRANCH   7  18
TORSDOF 4
ENDMDL
