MODEL 1
REMARK VINA RESULT:     104.7      0.000      0.000
REMARK  11 active torsions:
REMARK  status: ('A' for Active; 'I' for Inactive)
REMARK    1  A    between atoms: C_2  and  N_1 
REMARK    2  A    between atoms: C_4  and  C_2 
REMARK    3  A    between atoms: C_5  and  C_2 
REMARK    4  A    between atoms: C_3  and  N_6 
REMARK    5  A    between atoms: N_15  and  C_3 
REMARK    6  A    between atoms: N_6  and  C_4 
REMARK    7  A    between atoms: C_16  and  N_7 
REMARK    8  A    between atoms: C_20  and  N_15 
REMARK    9  A    between atoms: C_19  and  C_16 
REMARK   10  A    between atoms: C_23  and  C_20 
REMARK   11  A    between atoms: C_22  and  C_23 
ROOT
ATOM      1  C   UNL d   1      61.092  47.704  51.078  0.00  0.00     0.088 C 
ENDROOT
BRANCH   1   2
ATOM      2  N   UNL d   1      61.042  46.889  50.962  0.00  0.00    -0.300 N 
ATOM      3  C   UNL d   1      61.635  46.498  50.539  0.00  0.00     0.100 A 
ATOM      4  C   UNL d   1      61.585  45.682  50.423  0.00  0.00     0.100 A 
ATOM      5  N   UNL d   1      60.948  45.257  50.725  0.00  0.00    -0.300 N 
ATOM      6  C   UNL d   1      60.359  45.648  51.146  0.00  0.00     0.100 A 
ATOM      7  C   UNL d   1      60.409  46.463  51.262  0.00  0.00     0.100 A 
BRANCH   5   8
ATOM      8  C   UNL d   1      60.902  44.442  50.607  0.00  0.00     0.080 C 
BRANCH   8   9
ATOM      9  C   UNL d   1      61.493  43.947  50.913  0.00  0.00     0.018 A 
ATOM     10  C   UNL d   1      61.426  43.647  51.666  0.00  0.00     0.002 A 
ATOM     11  C   UNL d   1      62.013  43.154  51.974  0.00  0.00     0.000 A 
ATOM     12  C   UNL d   1      62.662  42.974  51.508  0.00  0.00     0.000 A 
ATOM     13  C   UNL d   1      62.738  43.276  50.739  0.00  0.00     0.000 A 
ATOM     14  C   UNL d   1      62.139  43.768  50.448  0.00  0.00     0.002 A 
ENDBRANCH   8   9
ENDBRANCH   5   8
ENDBRANCH   1   2
BRANCH   1  15
ATOM     15  C   UNL d   1      61.044  48.220  50.443  0.00  0.00     0.100 C 
ATOM     16  C   UNL d   1      61.728  48.529  50.121  0.00  0.00     0.022 C 
BRANCH  15  17
ATOM     17  N   UNL d   1      60.313  48.417  50.142  0.00  0.00    -0.216 NA
BRANCH  17  18
ATOM     18  C   UNL d   1      60.230  49.085  49.659  0.00  0.00     0.221 C 
ATOM     19  S   UNL d   1      60.827  49.652  49.653  0.00  0.00    -0.037 SA
BRANCH  18  20
ATOM     20  N   UNL d   1      59.564  49.174  49.198  0.00  0.00    -0.216 NA
BRANCH  20  21
ATOM     21  C   UNL d   1      58.973  49.701  49.410  0.00  0.00     0.102 C 
BRANCH  21  22
ATOM     22  C   UNL d   1      58.493  49.527  50.063  0.00  0.00     0.021 C 
BRANCH  22  23
ATOM     23  C   UNL d   1      57.683  49.535  49.975  0.00  0.00     0.002 A 
ATOM     24  C   UNL d   1      57.204  49.699  50.628  0.00  0.00     0.000 A 
ATOM     25  C   UNL d   1      56.383  49.708  50.541  0.00  0.00     0.000 A 
ATOM     26  C   UNL d   1      56.044  49.556  49.814  0.00  0.00     0.000 A 
ATOM     27  C   UNL d   1      56.530  49.392  49.160  0.00  0.00     0.000 A 
ATOM     28  C   UNL d   1      57.340  49.384  49.248  0.00  0.00     0.000 A 
ENDBRANCH  22  23
ENDBRANCH  21  22
ENDBRANCH  20  21
ENDBRANCH  18  20
ENDBRANCH  17  18
ENDBRANCH  15  17
ENDBRANCH   1  15
BRANCH   1  29
ATOM     29  C   UNL d   1      61.192  48.001  51.842  0.00  0.00     0.047 A 
ATOM     30  S   UNL d   1      61.434  47.570  52.505  0.00  0.00    -0.085 SA
ATOM     31  C   UNL d   1      61.458  48.082  53.145  0.00  0.00     0.035 A 
ATOM     32  C   UNL d   1      61.232  48.831  52.884  0.00  0.00     0.007 A 
ATOM     33  C   UNL d   1      61.067  48.779  52.076  0.00  0.00     0.009 A 
ENDBRANCH   1  29
TORSDOF 11
ENDMDL
