MODEL 1
REMARK VINA RESULT:      -9.2      0.000      0.000
REMARK  2 active torsions:
REMARK  status: ('A' for Active; 'I' for Inactive)
REMARK    1  A    between atoms: C_2  and  C_5 
REMARK       I    between atoms: C_5  and  N_9 
REMARK    2  A    between atoms: N_9  and  C_15 
ROOT
ATOM      1  C   UNL d   1      51.428  34.045  52.715  0.00  0.00     0.304 C 
ATOM      2  N   UNL d   1      50.665  34.026  53.017  0.00  0.00    -0.206 NA
ATOM      3  O   UNL d   1      51.583  34.439  52.021  0.00  0.00    -0.263 OA
ENDROOT
BRANCH   1   4
ATOM      4  C   UNL d   1      52.042  33.670  53.108  0.00  0.00     0.182 A 
ATOM      5  O   UNL d   1      52.456  34.082  53.678  0.00  0.00    -0.298 OA
ATOM      6  C   UNL d   1      53.079  33.704  54.077  0.00  0.00     0.123 A 
ATOM      7  C   UNL d   1      53.503  34.113  54.655  0.00  0.00     0.027 A 
ATOM      8  C   UNL d   1      53.266  32.935  53.896  0.00  0.00     0.123 A 
ATOM      9  C   UNL d   1      54.117  33.733  55.045  0.00  0.00     0.002 A 
ATOM     10  C   UNL d   1      54.310  32.969  54.873  0.00  0.00     0.002 A 
ATOM     11  C   UNL d   1      53.886  32.560  54.295  0.00  0.00     0.027 A 
ATOM     12  O   UNL d   1      52.842  32.526  53.319  0.00  0.00    -0.301 OA
ATOM     13  C   UNL d   1      52.233  32.905  52.932  0.00  0.00     0.152 A 
ENDBRANCH   1   4
BRANCH   2  14
ATOM     14  C   UNL d   1      50.007  34.388  52.661  0.00  0.00     0.085 A 
ATOM     15  C   UNL d   1      49.762  34.269  51.875  0.00  0.00     0.021 A 
ATOM     16  C   UNL d   1      49.111  34.651  51.584  0.00  0.00     0.021 A 
ATOM     17  C   UNL d   1      48.688  35.151  52.044  0.00  0.00     0.088 A 
ATOM     18  C   UNL d   1      48.921  35.278  52.826  0.00  0.00     0.050 A 
ATOM     19  N   UNL d   1      48.018  35.620  51.941  0.00  0.00    -0.239 NA
ATOM     20  C   UNL d   1      49.582  34.901  53.148  0.00  0.00     0.027 A 
ATOM     21  S   UNL d   1      48.383  35.823  53.178  0.00  0.00    -0.066 SA
ATOM     22  C   UNL d   1      47.840  36.007  52.589  0.00  0.00     0.111 A 
ATOM     23  C   UNL d   1      47.202  36.536  52.700  0.00  0.00     0.028 C 
ENDBRANCH   2  14
TORSDOF 2
ENDMDL
MODEL 2
REMARK VINA RESULT:      -9.2      1.724      5.080
REMARK  2 active torsions:
REMARK  status: ('A' for Active; 'I' for Inactive)
REMARK    1  A    between atoms: C_2  and  C_5 
REMARK       I    between atoms: C_5  and  N_9 
REMARK    2  A    between atoms: N_9  and  C_15 
ROOT
ATOM      1  C   UNL d   1      50.499  34.027  52.938  0.00  0.00     0.304 C 
ATOM      2  N   UNL d   1      51.262  34.315  52.851  0.00  0.00    -0.206 NA
ATOM      3  O   UNL d   1      50.372  33.307  53.295  0.00  0.00    -0.263 OA
ENDROOT
BRANCH   1   4
ATOM      4  C   UNL d   1      49.856  34.457  52.666  0.00  0.00     0.182 A 
ATOM      5  O   UNL d   1      49.466  34.953  53.185  0.00  0.00    -0.298 OA
ATOM      6  C   UNL d   1      48.815  35.390  52.912  0.00  0.00     0.123 A 
ATOM      7  C   UNL d   1      48.415  35.894  53.429  0.00  0.00     0.027 A 
ATOM      8  C   UNL d   1      48.576  35.320  52.139  0.00  0.00     0.123 A 
ATOM      9  C   UNL d   1      47.772  36.323  53.152  0.00  0.00     0.002 A 
ATOM     10  C   UNL d   1      47.527  36.259  52.387  0.00  0.00     0.002 A 
ATOM     11  C   UNL d   1      47.927  35.756  51.870  0.00  0.00     0.027 A 
ATOM     12  O   UNL d   1      48.976  34.816  51.622  0.00  0.00    -0.301 OA
ATOM     13  C   UNL d   1      49.614  34.391  51.898  0.00  0.00     0.152 A 
ENDBRANCH   1   4
BRANCH   2  14
ATOM     14  C   UNL d   1      51.948  33.922  53.107  0.00  0.00     0.085 A 
ATOM     15  C   UNL d   1      52.228  33.200  52.802  0.00  0.00     0.021 A 
ATOM     16  C   UNL d   1      52.903  32.864  53.093  0.00  0.00     0.021 A 
ATOM     17  C   UNL d   1      53.319  33.217  53.679  0.00  0.00     0.088 A 
ATOM     18  C   UNL d   1      53.052  33.934  53.990  0.00  0.00     0.050 A 
ATOM     19  N   UNL d   1      54.007  33.044  54.098  0.00  0.00    -0.239 NA
ATOM     20  C   UNL d   1      52.365  34.298  53.712  0.00  0.00     0.027 A 
ATOM     21  S   UNL d   1      53.588  34.178  54.593  0.00  0.00    -0.066 SA
ATOM     22  C   UNL d   1      54.165  33.592  54.623  0.00  0.00     0.111 A 
ATOM     23  C   UNL d   1      54.814  33.612  55.151  0.00  0.00     0.028 C 
ENDBRANCH   2  14
TORSDOF 2
ENDMDL
MODEL 3
REMARK VINA RESULT:      -6.8      2.989      4.076
REMARK  2 active torsions:
REMARK  status: ('A' for Active; 'I' for Inactive)
REMARK    1  A    between atoms: C_2  and  C_5 
REMARK       I    between atoms: C_5  and  N_9 
REMARK    2  A    between atoms: N_9  and  C_15 
ROOT
ATOM      1  C   UNL d   1      52.870  31.795  53.238  0.00  0.00     0.304 C 
ATOM      2  N   UNL d   1      53.022  32.351  53.822  0.00  0.00    -0.206 NA
ATOM      3  O   UNL d   1      52.588  32.030  52.513  0.00  0.00    -0.263 OA
ENDROOT
BRANCH   1   4
ATOM      4  C   UNL d   1      53.001  30.998  53.376  0.00  0.00     0.182 A 
ATOM      5  O   UNL d   1      53.069  30.736  54.148  0.00  0.00    -0.298 OA
ATOM      6  C   UNL d   1      53.202  29.929  54.291  0.00  0.00     0.123 A 
ATOM      7  C   UNL d   1      53.271  29.657  55.067  0.00  0.00     0.027 A 
ATOM      8  C   UNL d   1      53.262  29.413  53.666  0.00  0.00     0.123 A 
ATOM      9  C   UNL d   1      53.402  28.858  55.200  0.00  0.00     0.002 A 
ATOM     10  C   UNL d   1      53.463  28.338  54.586  0.00  0.00     0.002 A 
ATOM     11  C   UNL d   1      53.393  28.610  53.811  0.00  0.00     0.027 A 
ATOM     12  O   UNL d   1      53.192  29.685  52.891  0.00  0.00    -0.301 OA
ATOM     13  C   UNL d   1      53.062  30.479  52.759  0.00  0.00     0.152 A 
ENDBRANCH   1   4
BRANCH   2  14
ATOM     14  C   UNL d   1      52.908  33.170  53.736  0.00  0.00     0.085 A 
ATOM     15  C   UNL d   1      52.547  33.536  53.083  0.00  0.00     0.021 A 
ATOM     16  C   UNL d   1      52.463  34.340  53.055  0.00  0.00     0.021 A 
ATOM     17  C   UNL d   1      52.725  34.801  53.655  0.00  0.00     0.088 A 
ATOM     18  C   UNL d   1      53.085  34.449  54.309  0.00  0.00     0.050 A 
ATOM     19  N   UNL d   1      52.735  35.610  53.813  0.00  0.00    -0.239 NA
ATOM     20  C   UNL d   1      53.183  33.631  54.363  0.00  0.00     0.027 A 
ATOM     21  S   UNL d   1      53.305  35.058  54.850  0.00  0.00    -0.066 SA
ATOM     22  C   UNL d   1      53.066  35.761  54.498  0.00  0.00     0.111 A 
ATOM     23  C   UNL d   1      53.177  36.513  54.848  0.00  0.00     0.028 C 
ENDBRANCH   2  14
TORSDOF 2
ENDMDL
MODEL 4
REMARK VINA RESULT:      -6.5     10.234     10.810
REMARK  2 active torsions:
REMARK  status: ('A' for Active; 'I' for Inactive)
REMARK    1  A    between atoms: C_2  and  C_5 
REMARK       I    between atoms: C_5  and  N_9 
REMARK    2  A    between atoms: N_9  and  C_15 
ROOT
ATOM      1  C   UNL d   1      45.002  29.427  58.905  0.00  0.00     0.304 C 
ATOM      2  N   UNL d   1      44.378  29.568  59.419  0.00  0.00    -0.206 NA
ATOM      3  O   UNL d   1      45.672  29.886  58.940  0.00  0.00    -0.263 OA
ENDROOT
BRANCH   1   4
ATOM      4  C   UNL d   1      44.959  28.824  58.352  0.00  0.00     0.182 A 
ATOM      5  O   UNL d   1      45.031  28.051  58.604  0.00  0.00    -0.298 OA
ATOM      6  C   UNL d   1      44.987  27.438  58.045  0.00  0.00     0.123 A 
ATOM      7  C   UNL d   1      45.059  26.654  58.291  0.00  0.00     0.027 A 
ATOM      8  C   UNL d   1      44.875  27.615  57.260  0.00  0.00     0.123 A 
ATOM      9  C   UNL d   1      45.015  26.054  57.732  0.00  0.00     0.002 A 
ATOM     10  C   UNL d   1      44.903  26.219  56.951  0.00  0.00     0.002 A 
ATOM     11  C   UNL d   1      44.832  27.003  56.705  0.00  0.00     0.027 A 
ATOM     12  O   UNL d   1      44.803  28.399  57.014  0.00  0.00    -0.301 OA
ATOM     13  C   UNL d   1      44.847  28.994  57.569  0.00  0.00     0.152 A 
ENDBRANCH   1   4
BRANCH   2  14
ATOM     14  C   UNL d   1      44.369  30.164  59.998  0.00  0.00     0.085 A 
ATOM     15  C   UNL d   1      44.323  30.981  59.845  0.00  0.00     0.021 A 
ATOM     16  C   UNL d   1      44.317  31.515  60.451  0.00  0.00     0.021 A 
ATOM     17  C   UNL d   1      44.356  31.272  61.213  0.00  0.00     0.088 A 
ATOM     18  C   UNL d   1      44.402  30.464  61.379  0.00  0.00     0.050 A 
ATOM     19  N   UNL d   1      44.363  31.643  61.949  0.00  0.00    -0.239 NA
ATOM     20  C   UNL d   1      44.409  29.898  60.778  0.00  0.00     0.027 A 
ATOM     21  S   UNL d   1      44.436  30.367  62.216  0.00  0.00    -0.066 SA
ATOM     22  C   UNL d   1      44.409  31.128  62.526  0.00  0.00     0.111 A 
ATOM     23  C   UNL d   1      44.430  31.292  63.346  0.00  0.00     0.028 C 
ENDBRANCH   2  14
TORSDOF 2
ENDMDL
MODEL 5
REMARK VINA RESULT:      -6.4     10.040     10.848
REMARK  2 active torsions:
REMARK  status: ('A' for Active; 'I' for Inactive)
REMARK    1  A    between atoms: C_2  and  C_5 
REMARK       I    between atoms: C_5  and  N_9 
REMARK    2  A    between atoms: N_9  and  C_15 
ROOT
ATOM      1  C   UNL d   1      45.143  27.759  57.665  0.00  0.00     0.304 C 
ATOM      2  N   UNL d   1      44.517  27.313  57.377  0.00  0.00    -0.206 NA
ATOM      3  O   UNL d   1      45.849  27.400  57.850  0.00  0.00    -0.263 OA
ENDROOT
BRANCH   1   4
ATOM      4  C   UNL d   1      45.066  28.568  57.769  0.00  0.00     0.182 A 
ATOM      5  O   UNL d   1      44.888  29.034  57.122  0.00  0.00    -0.298 OA
ATOM      6  C   UNL d   1      44.809  29.854  57.225  0.00  0.00     0.123 A 
ATOM      7  C   UNL d   1      44.630  30.333  56.577  0.00  0.00     0.027 A 
ATOM      8  C   UNL d   1      44.910  30.180  57.962  0.00  0.00     0.123 A 
ATOM      9  C   UNL d   1      44.554  31.143  56.687  0.00  0.00     0.002 A 
ATOM     10  C   UNL d   1      44.652  31.475  57.415  0.00  0.00     0.002 A 
ATOM     11  C   UNL d   1      44.832  30.997  58.062  0.00  0.00     0.027 A 
ATOM     12  O   UNL d   1      45.090  29.702  58.610  0.00  0.00    -0.301 OA
ATOM     13  C   UNL d   1      45.165  28.898  58.500  0.00  0.00     0.152 A 
ENDBRANCH   1   4
BRANCH   2  14
ATOM     14  C   UNL d   1      44.540  26.491  57.252  0.00  0.00     0.085 A 
ATOM     15  C   UNL d   1      44.515  25.915  57.851  0.00  0.00     0.021 A 
ATOM     16  C   UNL d   1      44.540  25.129  57.668  0.00  0.00     0.021 A 
ATOM     17  C   UNL d   1      44.591  24.885  56.908  0.00  0.00     0.088 A 
ATOM     18  C   UNL d   1      44.617  25.447  56.303  0.00  0.00     0.050 A 
ATOM     19  N   UNL d   1      44.628  24.156  56.525  0.00  0.00    -0.239 NA
ATOM     20  C   UNL d   1      44.592  26.257  56.463  0.00  0.00     0.027 A 
ATOM     21  S   UNL d   1      44.669  25.041  55.566  0.00  0.00    -0.066 SA
ATOM     22  C   UNL d   1      44.673  24.241  55.756  0.00  0.00     0.111 A 
ATOM     23  C   UNL d   1      44.719  23.632  55.184  0.00  0.00     0.028 C 
ENDBRANCH   2  14
TORSDOF 2
ENDMDL
MODEL 6
REMARK VINA RESULT:      -6.4      1.424      2.243
REMARK  2 active torsions:
REMARK  status: ('A' for Active; 'I' for Inactive)
REMARK    1  A    between atoms: C_2  and  C_5 
REMARK       I    between atoms: C_5  and  N_9 
REMARK    2  A    between atoms: N_9  and  C_15 
ROOT
ATOM      1  C   UNL d   1      49.555  35.021  53.054  0.00  0.00     0.304 C 
ATOM      2  N   UNL d   1      49.056  35.009  52.403  0.00  0.00    -0.206 NA
ATOM      3  O   UNL d   1      49.376  35.485  53.697  0.00  0.00    -0.263 OA
ENDROOT
BRANCH   1   4
ATOM      4  C   UNL d   1      50.238  34.568  53.066  0.00  0.00     0.182 A 
ATOM      5  O   UNL d   1      50.957  34.941  53.178  0.00  0.00    -0.298 OA
ATOM      6  C   UNL d   1      51.651  34.484  53.190  0.00  0.00     0.123 A 
ATOM      7  C   UNL d   1      52.380  34.852  53.303  0.00  0.00     0.027 A 
ATOM      8  C   UNL d   1      51.606  33.679  53.092  0.00  0.00     0.123 A 
ATOM      9  C   UNL d   1      53.062  34.394  53.314  0.00  0.00     0.002 A 
ATOM     10  C   UNL d   1      53.027  33.594  53.217  0.00  0.00     0.002 A 
ATOM     11  C   UNL d   1      52.297  33.226  53.105  0.00  0.00     0.027 A 
ATOM     12  O   UNL d   1      50.876  33.311  52.980  0.00  0.00    -0.301 OA
ATOM     13  C   UNL d   1      50.200  33.767  52.969  0.00  0.00     0.152 A 
ENDBRANCH   1   4
BRANCH   2  14
ATOM     14  C   UNL d   1      48.353  35.447  52.338  0.00  0.00     0.085 A 
ATOM     15  C   UNL d   1      48.170  36.127  52.780  0.00  0.00     0.021 A 
ATOM     16  C   UNL d   1      47.468  36.512  52.672  0.00  0.00     0.021 A 
ATOM     17  C   UNL d   1      46.932  36.249  52.139  0.00  0.00     0.088 A 
ATOM     18  C   UNL d   1      47.101  35.574  51.694  0.00  0.00     0.050 A 
ATOM     19  N   UNL d   1      46.185  36.490  51.888  0.00  0.00    -0.239 NA
ATOM     20  C   UNL d   1      47.811  35.162  51.784  0.00  0.00     0.027 A 
ATOM     21  S   UNL d   1      46.448  35.423  51.182  0.00  0.00    -0.066 SA
ATOM     22  C   UNL d   1      45.904  36.019  51.339  0.00  0.00     0.111 A 
ATOM     23  C   UNL d   1      45.166  36.083  50.951  0.00  0.00     0.028 C 
ENDBRANCH   2  14
TORSDOF 2
ENDMDL
