MODEL 1
REMARK VINA RESULT:      -9.3      0.000      0.000
REMARK  3 active torsions:
REMARK  status: ('A' for Active; 'I' for Inactive)
REMARK    1  A    between atoms: C_6  and  C_1 
REMARK       I    between atoms: N_8  and  C_6 
REMARK    2  A    between atoms: C_16  and  N_8 
REMARK       I    between atoms: C_12  and  N_13 
REMARK    3  A    between atoms: N_13  and  C_17 
ROOT
ATOM      1  C   UNL d   1      49.939  34.533  52.312  0.00  0.00     0.302 C 
ATOM      2  N   UNL d   1      50.351  34.463  53.023  0.00  0.00    -0.206 NA
ATOM      3  O   UNL d   1      50.259  34.232  51.620  0.00  0.00    -0.263 OA
ENDROOT
BRANCH   1   4
ATOM      4  C   UNL d   1      49.203  34.907  52.300  0.00  0.00     0.158 A 
ATOM      5  O   UNL d   1      48.862  35.337  52.922  0.00  0.00    -0.302 OA
ATOM      6  C   UNL d   1      48.121  35.612  52.660  0.00  0.00     0.100 A 
ATOM      7  C   UNL d   1      47.532  36.066  53.030  0.00  0.00     0.025 A 
ATOM      8  C   UNL d   1      48.003  35.353  51.881  0.00  0.00     0.025 A 
ATOM      9  C   UNL d   1      46.841  36.256  52.625  0.00  0.00     0.002 A 
ATOM     10  C   UNL d   1      46.256  36.709  52.995  0.00  0.00     0.000 C 
ATOM     11  C   UNL d   1      46.730  35.994  51.847  0.00  0.00     0.000 A 
ATOM     12  C   UNL d   1      47.311  35.543  51.476  0.00  0.00     0.002 A 
ATOM     13  C   UNL d   1      46.039  36.185  51.445  0.00  0.00     0.000 C 
ATOM     14  C   UNL d   1      48.658  34.919  51.646  0.00  0.00     0.029 A 
ATOM     15  C   UNL d   1      48.776  34.557  50.912  0.00  0.00     0.002 C 
ENDBRANCH   1   4
BRANCH   2  16
ATOM     16  C   UNL d   1      51.087  34.090  53.040  0.00  0.00     0.085 A 
ATOM     17  C   UNL d   1      51.766  34.532  52.889  0.00  0.00     0.021 A 
ATOM     18  C   UNL d   1      52.498  34.161  52.905  0.00  0.00     0.021 A 
ATOM     19  C   UNL d   1      52.557  33.351  53.072  0.00  0.00     0.085 A 
ATOM     20  C   UNL d   1      51.871  32.917  53.222  0.00  0.00     0.021 A 
ATOM     21  C   UNL d   1      51.133  33.285  53.207  0.00  0.00     0.021 A 
BRANCH  19  22
ATOM     22  N   UNL d   1      53.294  32.982  53.087  0.00  0.00    -0.208 NA
ATOM     23  C   UNL d   1      53.728  32.962  53.790  0.00  0.00     0.279 C 
ATOM     24  O   UNL d   1      53.428  33.310  54.481  0.00  0.00    -0.265 OA
ATOM     25  C   UNL d   1      54.466  32.594  53.813  0.00  0.00     0.068 C 
ENDBRANCH  19  22
ENDBRANCH   2  16
TORSDOF 3
ENDMDL
MODEL 2
REMARK VINA RESULT:      -9.3      1.163      5.747
REMARK  3 active torsions:
REMARK  status: ('A' for Active; 'I' for Inactive)
REMARK    1  A    between atoms: C_6  and  C_1 
REMARK       I    between atoms: N_8  and  C_6 
REMARK    2  A    between atoms: C_16  and  N_8 
REMARK       I    between atoms: C_12  and  N_13 
REMARK    3  A    between atoms: N_13  and  C_17 
ROOT
ATOM      1  C   UNL d   1      50.916  34.215  52.439  0.00  0.00     0.302 C 
ATOM      2  N   UNL d   1      50.168  34.120  52.774  0.00  0.00    -0.206 NA
ATOM      3  O   UNL d   1      51.028  34.745  51.824  0.00  0.00    -0.263 OA
ENDROOT
BRANCH   1   4
ATOM      4  C   UNL d   1      51.552  33.774  52.726  0.00  0.00     0.158 A 
ATOM      5  O   UNL d   1      51.624  32.948  52.704  0.00  0.00    -0.302 OA
ATOM      6  C   UNL d   1      52.354  32.750  53.054  0.00  0.00     0.100 A 
ATOM      7  C   UNL d   1      52.728  32.021  53.190  0.00  0.00     0.025 A 
ATOM      8  C   UNL d   1      52.731  33.449  53.291  0.00  0.00     0.025 A 
ATOM      9  C   UNL d   1      53.464  31.996  53.556  0.00  0.00     0.002 A 
ATOM     10  C   UNL d   1      53.836  31.270  53.690  0.00  0.00     0.000 C 
ATOM     11  C   UNL d   1      53.836  32.699  53.790  0.00  0.00     0.000 A 
ATOM     12  C   UNL d   1      53.469  33.424  53.658  0.00  0.00     0.002 A 
ATOM     13  C   UNL d   1      54.572  32.671  54.155  0.00  0.00     0.000 C 
ATOM     14  C   UNL d   1      52.252  34.086  53.097  0.00  0.00     0.029 A 
ATOM     15  C   UNL d   1      52.411  34.886  53.232  0.00  0.00     0.002 C 
ENDBRANCH   1   4
BRANCH   2  16
ATOM     16  C   UNL d   1      49.530  34.559  52.490  0.00  0.00     0.085 A 
ATOM     17  C   UNL d   1      49.200  35.146  52.966  0.00  0.00     0.021 A 
ATOM     18  C   UNL d   1      48.565  35.582  52.684  0.00  0.00     0.021 A 
ATOM     19  C   UNL d   1      48.256  35.438  51.928  0.00  0.00     0.085 A 
ATOM     20  C   UNL d   1      48.593  34.848  51.458  0.00  0.00     0.021 A 
ATOM     21  C   UNL d   1      49.231  34.407  51.738  0.00  0.00     0.021 A 
BRANCH  19  22
ATOM     22  N   UNL d   1      47.618  35.878  51.648  0.00  0.00    -0.208 NA
ATOM     23  C   UNL d   1      46.850  35.585  51.729  0.00  0.00     0.279 C 
ATOM     24  O   UNL d   1      46.715  34.850  52.090  0.00  0.00    -0.265 OA
ATOM     25  C   UNL d   1      46.207  36.020  51.451  0.00  0.00     0.068 C 
ENDBRANCH  19  22
ENDBRANCH   2  16
TORSDOF 3
ENDMDL
MODEL 3
REMARK VINA RESULT:      -6.7     10.093     10.678
REMARK  3 active torsions:
REMARK  status: ('A' for Active; 'I' for Inactive)
REMARK    1  A    between atoms: C_6  and  C_1 
REMARK       I    between atoms: N_8  and  C_6 
REMARK    2  A    between atoms: C_16  and  N_8 
REMARK       I    between atoms: C_12  and  N_13 
REMARK    3  A    between atoms: N_13  and  C_17 
ROOT
ATOM      1  C   UNL d   1      45.022  26.950  56.752  0.00  0.00     0.302 C 
ATOM      2  N   UNL d   1      44.318  26.556  56.582  0.00  0.00    -0.206 NA
ATOM      3  O   UNL d   1      45.740  26.566  56.661  0.00  0.00    -0.263 OA
ENDROOT
BRANCH   1   4
ATOM      4  C   UNL d   1      45.002  27.732  57.014  0.00  0.00     0.158 A 
ATOM      5  O   UNL d   1      44.786  28.394  56.563  0.00  0.00    -0.302 OA
ATOM      6  C   UNL d   1      44.847  29.064  57.055  0.00  0.00     0.100 A 
ATOM      7  C   UNL d   1      44.706  29.870  56.918  0.00  0.00     0.025 A 
ATOM      8  C   UNL d   1      45.098  28.818  57.806  0.00  0.00     0.025 A 
ATOM      9  C   UNL d   1      44.815  30.417  57.523  0.00  0.00     0.002 A 
ATOM     10  C   UNL d   1      44.675  31.221  57.385  0.00  0.00     0.000 C 
ATOM     11  C   UNL d   1      45.067  30.164  58.271  0.00  0.00     0.000 A 
ATOM     12  C   UNL d   1      45.208  29.366  58.411  0.00  0.00     0.002 A 
ATOM     13  C   UNL d   1      45.175  30.713  58.874  0.00  0.00     0.000 C 
ATOM     14  C   UNL d   1      45.197  28.003  57.797  0.00  0.00     0.029 A 
ATOM     15  C   UNL d   1      45.442  27.526  58.427  0.00  0.00     0.002 C 
ENDBRANCH   1   4
BRANCH   2  16
ATOM     16  C   UNL d   1      44.334  25.774  56.319  0.00  0.00     0.085 A 
ATOM     17  C   UNL d   1      44.371  25.621  55.510  0.00  0.00     0.021 A 
ATOM     18  C   UNL d   1      44.387  24.843  55.249  0.00  0.00     0.021 A 
ATOM     19  C   UNL d   1      44.368  24.215  55.790  0.00  0.00     0.085 A 
ATOM     20  C   UNL d   1      44.331  24.378  56.599  0.00  0.00     0.021 A 
ATOM     21  C   UNL d   1      44.314  25.158  56.866  0.00  0.00     0.021 A 
BRANCH  19  22
ATOM     22  N   UNL d   1      44.384  23.435  55.524  0.00  0.00    -0.208 NA
ATOM     23  C   UNL d   1      45.090  23.007  55.553  0.00  0.00     0.279 C 
ATOM     24  O   UNL d   1      45.783  23.356  55.849  0.00  0.00    -0.265 OA
ATOM     25  C   UNL d   1      45.115  22.226  55.289  0.00  0.00     0.068 C 
ENDBRANCH  19  22
ENDBRANCH   2  16
TORSDOF 3
ENDMDL
