MODEL 1
REMARK VINA RESULT:      27.6      0.000      0.000
REMARK  3 active torsions:
REMARK  status: ('A' for Active; 'I' for Inactive)
REMARK    1  A    between atoms: S_4  and  C_1 
REMARK    2  A    between atoms: N_3  and  C_2 
REMARK    3  A    between atoms: C_5  and  S_4 
ROOT
ATOM      1  C   UNL d   1     -56.518 -99.547 -44.400  0.00  0.00     0.139 A 
ATOM      2  C   UNL d   1     -55.734 -99.785 -44.301  0.00  0.00     0.188 A 
ATOM      3  N   UNL d   1     -57.095-100.150 -44.507  0.00  0.00    -0.216 NA
ATOM      4  C   UNL d   1     -55.495-100.537 -44.301  0.00  0.00     0.209 A 
ATOM      5  N   UNL d   1     -56.054-101.175 -44.407  0.00  0.00    -0.202 NA
ATOM      6  C   UNL d   1     -56.869-100.948 -44.511  0.00  0.00     0.201 A 
ATOM      7  N   UNL d   1     -54.712-100.840 -44.205  0.00  0.00    -0.125 N 
ENDROOT
BRANCH   1   8
ATOM      8  S   UNL d   1     -56.753 -98.811 -44.400  0.00  0.00    -0.047 SA
BRANCH   8   9
ATOM      9  C   UNL d   1     -57.696 -98.791 -44.341  0.00  0.00     0.115 A 
ATOM     10  N   UNL d   1     -58.100 -98.782 -45.081  0.00  0.00    -0.217 NA
ATOM     11  C   UNL d   1     -58.938 -98.765 -45.082  0.00  0.00     0.200 A 
ATOM     12  N   UNL d   1     -59.356 -98.756 -44.379  0.00  0.00    -0.224 NA
ATOM     13  C   UNL d   1     -58.944 -98.765 -43.638  0.00  0.00     0.085 A 
ATOM     14  C   UNL d   1     -58.126 -98.782 -43.625  0.00  0.00     0.045 A 
ATOM     15  C   UNL d   1     -59.317 -98.758 -43.049  0.00  0.00     0.021 C 
ENDBRANCH   8   9
ENDBRANCH   1   8
BRANCH   2  16
ATOM     16  N   UNL d   1     -55.159 -99.178 -44.193  0.00  0.00    -0.108 N 
ATOM     17  O   UNL d   1     -54.917 -98.877 -43.468  0.00  0.00    -0.532 OA
ATOM     18  O   UNL d   1     -54.769 -98.813 -44.838  0.00  0.00    -0.532 OA
ENDBRANCH   2  16
TORSDOF 3
ENDMDL
