MODEL 1
REMARK VINA RESULT:      64.4      0.000      0.000
REMARK  4 active torsions:
REMARK  status: ('A' for Active; 'I' for Inactive)
REMARK    1  A    between atoms: C_4  and  C_1 
REMARK       I    between atoms: N_7  and  C_4 
REMARK    2  A    between atoms: C_8  and  N_7 
REMARK    3  A    between atoms: O_21  and  C_13 
REMARK    4  A    between atoms: O_22  and  C_16 
ROOT
ATOM      1  C   UNL d   1      60.555  49.417  49.722  0.00  0.00     0.263 C 
ATOM      2  N   UNL d   1      61.259  49.088  50.121  0.00  0.00    -0.209 NA
ATOM      3  O   UNL d   1      60.565  49.708  48.896  0.00  0.00    -0.270 OA
ENDROOT
BRANCH   1   4
ATOM      4  C   UNL d   1      59.817  49.486  50.077  0.00  0.00     0.113 A 
ATOM      5  C   UNL d   1      58.283  49.562  50.150  0.00  0.00     0.025 A 
ATOM      6  C   UNL d   1      59.060  49.555  50.423  0.00  0.00     0.074 A 
ATOM      7  C   UNL d   1      57.670  49.643  50.673  0.00  0.00     0.002 C 
ATOM      8  C   UNL d   1      57.927  49.505  49.426  0.00  0.00     0.002 C 
ATOM      9  C   UNL d   1      58.434  49.636  50.955  0.00  0.00     0.012 C 
ATOM     10  C   UNL d   1      59.133  49.469  49.608  0.00  0.00    -0.023 A 
ATOM     11  C   UNL d   1      59.434  49.611  51.156  0.00  0.00     0.172 A 
ATOM     12  C   UNL d   1      59.862  49.403  49.274  0.00  0.00    -0.018 A 
ATOM     13  C   UNL d   1      60.168  49.543  50.806  0.00  0.00     0.024 A 
ATOM     14  O   UNL d   1      59.154  49.703  51.938  0.00  0.00    -0.291 OA
ENDBRANCH   1   4
BRANCH   2  15
ATOM     15  C   UNL d   1      61.197  48.811  50.946  0.00  0.00     0.108 A 
ATOM     16  C   UNL d   1      61.229  49.401  51.595  0.00  0.00     0.045 A 
ATOM     17  C   UNL d   1      61.167  49.122  52.425  0.00  0.00     0.096 A 
ATOM     18  C   UNL d   1      61.074  48.256  52.598  0.00  0.00     0.026 A 
ATOM     19  C   UNL d   1      61.045  47.686  51.934  0.00  0.00     0.028 A 
ATOM     20  C   UNL d   1      61.107  47.965  51.104  0.00  0.00     0.112 A 
BRANCH  17  21
ATOM     21  O   UNL d   1      61.196  49.694  53.081  0.00  0.00    -0.328 OA
ATOM     22  C   UNL d   1      61.438  49.437  53.881  0.00  0.00     0.181 C 
ENDBRANCH  17  21
BRANCH  20  23
ATOM     23  O   UNL d   1      61.078  47.395  50.439  0.00  0.00    -0.327 OA
ATOM     24  C   UNL d   1      61.236  46.549  50.601  0.00  0.00     0.181 C 
ENDBRANCH  20  23
ENDBRANCH   2  15
TORSDOF 4
ENDMDL
