MODEL 1
REMARK VINA RESULT:      73.2      0.000      0.000
REMARK  3 active torsions:
REMARK  status: ('A' for Active; 'I' for Inactive)
REMARK    1  A    between atoms: C_5  and  C_1 
REMARK       I    between atoms: N_7  and  C_5 
REMARK    2  A    between atoms: C_15  and  N_10 
REMARK    3  A    between atoms: C_21  and  C_15 
ROOT
ATOM      1  C   UNL d   1      58.909  49.423  51.251  0.00  0.00     0.270 C 
ATOM      2  N   UNL d   1      59.620  49.033  51.015  0.00  0.00    -0.270 N 
ATOM      3  N   UNL d   1      61.024  48.259  50.538  0.00  0.00    -0.300 N 
ATOM      4  O   UNL d   1      58.858  49.708  51.995  0.00  0.00    -0.269 OA
ATOM      5  C   UNL d   1      60.261  48.947  51.555  0.00  0.00     0.102 A 
ATOM      6  C   UNL d   1      59.669  48.738  50.238  0.00  0.00     0.102 A 
ATOM      7  C   UNL d   1      60.951  48.565  51.316  0.00  0.00     0.100 A 
ATOM      8  C   UNL d   1      60.383  48.345  49.998  0.00  0.00     0.100 A 
ENDROOT
BRANCH   1   9
ATOM      9  C   UNL d   1      58.307  49.504  50.745  0.00  0.00     0.191 A 
ATOM     10  O   UNL d   1      58.810  49.541  50.153  0.00  0.00    -0.293 OA
ATOM     11  C   UNL d   1      58.208  49.622  49.646  0.00  0.00     0.275 A 
ATOM     12  O   UNL d   1      58.131  49.707  48.849  0.00  0.00    -0.264 OA
ATOM     13  C   UNL d   1      57.683  49.587  50.237  0.00  0.00     0.099 A 
ATOM     14  C   UNL d   1      56.888  49.617  50.317  0.00  0.00     0.047 A 
ATOM     15  C   UNL d   1      57.228  49.673  49.604  0.00  0.00     0.014 C 
ATOM     16  C   UNL d   1      57.554  49.512  51.023  0.00  0.00    -0.019 A 
ATOM     17  C   UNL d   1      56.438  49.705  49.672  0.00  0.00     0.004 C 
ATOM     18  C   UNL d   1      56.376  49.580  50.919  0.00  0.00     0.004 C 
ATOM     19  C   UNL d   1      58.162  49.432  51.523  0.00  0.00     0.006 A 
ENDBRANCH   1   9
BRANCH   3  20
ATOM     20  C   UNL d   1      61.732  47.866  50.290  0.00  0.00     0.080 C 
BRANCH  20  21
ATOM     21  C   UNL d   1      61.712  47.052  50.078  0.00  0.00     0.018 A 
ATOM     22  C   UNL d   1      61.230  46.518  50.509  0.00  0.00     0.002 A 
ATOM     23  C   UNL d   1      61.202  45.697  50.304  0.00  0.00     0.000 A 
ATOM     24  C   UNL d   1      61.673  45.429  49.653  0.00  0.00     0.000 A 
ATOM     25  C   UNL d   1      62.157  45.966  49.221  0.00  0.00     0.000 A 
ATOM     26  C   UNL d   1      62.176  46.776  49.434  0.00  0.00     0.002 A 
ENDBRANCH  20  21
ENDBRANCH   3  20
TORSDOF 3
ENDMDL
MODEL 2
REMARK VINA RESULT:      73.9      1.978      2.685
REMARK  3 active torsions:
REMARK  status: ('A' for Active; 'I' for Inactive)
REMARK    1  A    between atoms: C_5  and  C_1 
REMARK       I    between atoms: N_7  and  C_5 
REMARK    2  A    between atoms: C_15  and  N_10 
REMARK    3  A    between atoms: C_21  and  C_15 
ROOT
ATOM      1  C   UNL d   1      58.721  49.616  49.660  0.00  0.00     0.270 C 
ATOM      2  N   UNL d   1      59.399  49.579  50.162  0.00  0.00    -0.270 N 
ATOM      3  N   UNL d   1      60.735  49.505  51.167  0.00  0.00    -0.300 N 
ATOM      4  O   UNL d   1      58.832  49.691  48.874  0.00  0.00    -0.269 OA
ATOM      5  C   UNL d   1      60.175  49.620  49.838  0.00  0.00     0.102 A 
ATOM      6  C   UNL d   1      59.279  49.501  50.983  0.00  0.00     0.102 A 
ATOM      7  C   UNL d   1      60.831  49.584  50.336  0.00  0.00     0.100 A 
ATOM      8  C   UNL d   1      59.959  49.463  51.490  0.00  0.00     0.100 A 
ENDROOT
BRANCH   1   9
ATOM      9  C   UNL d   1      57.992  49.577  49.964  0.00  0.00     0.191 A 
ATOM     10  O   UNL d   1      57.699  49.480  49.250  0.00  0.00    -0.293 OA
ATOM     11  C   UNL d   1      56.970  49.441  49.554  0.00  0.00     0.275 A 
ATOM     12  O   UNL d   1      56.226  49.343  49.261  0.00  0.00    -0.264 OA
ATOM     13  C   UNL d   1      57.252  49.539  50.286  0.00  0.00     0.099 A 
ATOM     14  C   UNL d   1      56.954  49.583  51.028  0.00  0.00     0.047 A 
ATOM     15  C   UNL d   1      56.478  49.478  50.404  0.00  0.00     0.014 C 
ATOM     16  C   UNL d   1      57.890  49.644  50.757  0.00  0.00    -0.019 A 
ATOM     17  C   UNL d   1      56.172  49.520  51.134  0.00  0.00     0.004 C 
ATOM     18  C   UNL d   1      57.252  49.681  51.754  0.00  0.00     0.004 C 
ATOM     19  C   UNL d   1      58.616  49.682  50.444  0.00  0.00     0.006 A 
ENDBRANCH   1   9
BRANCH   3  20
ATOM     20  C   UNL d   1      61.408  49.467  51.680  0.00  0.00     0.080 C 
BRANCH  20  21
ATOM     21  C   UNL d   1      61.302  49.384  52.510  0.00  0.00     0.018 A 
ATOM     22  C   UNL d   1      61.875  49.692  53.039  0.00  0.00     0.002 A 
ATOM     23  C   UNL d   1      61.778  49.615  53.876  0.00  0.00     0.000 A 
ATOM     24  C   UNL d   1      61.088  49.219  54.166  0.00  0.00     0.000 A 
ATOM     25  C   UNL d   1      60.513  48.909  53.635  0.00  0.00     0.000 A 
ATOM     26  C   UNL d   1      60.621  48.993  52.808  0.00  0.00     0.002 A 
ENDBRANCH  20  21
ENDBRANCH   3  20
TORSDOF 3
ENDMDL
