MODEL 1
REMARK VINA RESULT:      -7.5      0.000      0.000
REMARK  5 active torsions:
REMARK  status: ('A' for Active; 'I' for Inactive)
REMARK    1  A    between atoms: C_7  and  C_1 
REMARK    2  A    between atoms: N_8  and  C_7 
REMARK    3  A    between atoms: C_9  and  N_8 
REMARK    4  A    between atoms: O_17  and  C_13 
REMARK    5  A    between atoms: O_20  and  C_15 
ROOT
ATOM      1  C   UNL d   1      51.141  34.014  52.649  0.00  0.00     0.145 A 
ATOM      2  C   UNL d   1      50.527  34.135  53.188  0.00  0.00     0.305 A 
ATOM      3  C   UNL d   1      51.008  34.112  51.843  0.00  0.00     0.305 A 
ATOM      4  O   UNL d   1      50.261  34.331  51.573  0.00  0.00    -0.269 OA
ATOM      5  O   UNL d   1      49.788  34.352  52.913  0.00  0.00    -0.269 OA
ATOM      6  C   UNL d   1      49.655  34.450  52.107  0.00  0.00     0.242 A 
ATOM      7  O   UNL d   1      51.627  33.991  51.295  0.00  0.00    -0.259 OA
ATOM      8  O   UNL d   1      50.660  34.036  53.994  0.00  0.00    -0.259 OA
ATOM      9  C   UNL d   1      49.930  34.438  51.331  0.00  0.00     0.035 A 
ATOM     10  C   UNL d   1      48.859  34.649  52.263  0.00  0.00     0.035 A 
ATOM     11  C   UNL d   1      48.350  34.833  51.640  0.00  0.00     0.001 A 
ATOM     12  C   UNL d   1      49.424  34.621  50.708  0.00  0.00     0.001 A 
ATOM     13  C   UNL d   1      48.628  34.819  50.864  0.00  0.00    -0.000 A 
ENDROOT
BRANCH   1  14
ATOM     14  C   UNL d   1      51.895  33.793  52.920  0.00  0.00     0.110 C 
BRANCH  14  15
ATOM     15  N   UNL d   1      52.095  32.995  52.980  0.00  0.00    -0.242 NA
BRANCH  15  16
ATOM     16  C   UNL d   1      52.822  32.778  53.301  0.00  0.00     0.106 A 
ATOM     17  C   UNL d   1      53.307  33.346  53.648  0.00  0.00     0.045 A 
ATOM     18  C   UNL d   1      54.029  33.133  53.968  0.00  0.00     0.096 A 
ATOM     19  C   UNL d   1      54.278  32.337  53.944  0.00  0.00     0.026 A 
ATOM     20  C   UNL d   1      53.793  31.769  53.597  0.00  0.00     0.028 A 
ATOM     21  C   UNL d   1      53.063  31.989  53.275  0.00  0.00     0.112 A 
BRANCH  18  22
ATOM     22  O   UNL d   1      54.509  33.703  54.313  0.00  0.00    -0.328 OA
ATOM     23  C   UNL d   1      54.813  33.588  55.071  0.00  0.00     0.181 C 
ENDBRANCH  18  22
BRANCH  21  24
ATOM     24  O   UNL d   1      52.579  31.421  52.928  0.00  0.00    -0.327 OA
ATOM     25  C   UNL d   1      52.799  30.631  52.938  0.00  0.00     0.181 C 
ENDBRANCH  21  24
ENDBRANCH  15  16
ENDBRANCH  14  15
ENDBRANCH   1  14
TORSDOF 5
ENDMDL
MODEL 2
REMARK VINA RESULT:      -7.4      1.319      4.752
REMARK  5 active torsions:
REMARK  status: ('A' for Active; 'I' for Inactive)
REMARK    1  A    between atoms: C_7  and  C_1 
REMARK    2  A    between atoms: N_8  and  C_7 
REMARK    3  A    between atoms: C_9  and  N_8 
REMARK    4  A    between atoms: O_17  and  C_13 
REMARK    5  A    between atoms: O_20  and  C_15 
ROOT
ATOM      1  C   UNL d   1      51.377  33.954  53.342  0.00  0.00     0.145 A 
ATOM      2  C   UNL d   1      52.069  34.403  53.353  0.00  0.00     0.305 A 
ATOM      3  C   UNL d   1      51.419  33.132  53.324  0.00  0.00     0.305 A 
ATOM      4  O   UNL d   1      52.153  32.758  53.317  0.00  0.00    -0.269 OA
ATOM      5  O   UNL d   1      52.794  34.026  53.345  0.00  0.00    -0.269 OA
ATOM      6  C   UNL d   1      52.836  33.204  53.328  0.00  0.00     0.242 A 
ATOM      7  O   UNL d   1      50.720  32.674  53.313  0.00  0.00    -0.259 OA
ATOM      8  O   UNL d   1      52.028  35.225  53.370  0.00  0.00    -0.259 OA
ATOM      9  C   UNL d   1      52.463  32.470  53.311  0.00  0.00     0.035 A 
ATOM     10  C   UNL d   1      53.670  33.246  53.330  0.00  0.00     0.035 A 
ATOM     11  C   UNL d   1      54.118  32.554  53.315  0.00  0.00     0.001 A 
ATOM     12  C   UNL d   1      52.908  31.778  53.297  0.00  0.00     0.001 A 
ATOM     13  C   UNL d   1      53.742  31.820  53.299  0.00  0.00    -0.000 A 
ENDROOT
BRANCH   1  14
ATOM     14  C   UNL d   1      50.636  34.331  53.349  0.00  0.00     0.110 C 
BRANCH  14  15
ATOM     15  N   UNL d   1      50.234  34.464  52.641  0.00  0.00    -0.242 NA
BRANCH  15  16
ATOM     16  C   UNL d   1      49.521  34.879  52.647  0.00  0.00     0.106 A 
ATOM     17  C   UNL d   1      49.259  35.240  53.338  0.00  0.00     0.045 A 
ATOM     18  C   UNL d   1      48.553  35.652  53.347  0.00  0.00     0.096 A 
ATOM     19  C   UNL d   1      48.093  35.707  52.653  0.00  0.00     0.026 A 
ATOM     20  C   UNL d   1      48.355  35.346  51.961  0.00  0.00     0.028 A 
ATOM     21  C   UNL d   1      49.071  34.930  51.957  0.00  0.00     0.112 A 
BRANCH  18  22
ATOM     22  O   UNL d   1      48.295  36.012  54.039  0.00  0.00    -0.328 OA
ATOM     23  C   UNL d   1      47.592  36.444  54.047  0.00  0.00     0.181 C 
ENDBRANCH  18  22
BRANCH  21  24
ATOM     24  O   UNL d   1      49.333  34.568  51.266  0.00  0.00    -0.327 OA
ATOM     25  C   UNL d   1      48.799  34.378  50.674  0.00  0.00     0.181 C 
ENDBRANCH  21  24
ENDBRANCH  15  16
ENDBRANCH  14  15
ENDBRANCH   1  14
TORSDOF 5
ENDMDL
MODEL 3
REMARK VINA RESULT:      -6.6      1.241      2.521
REMARK  5 active torsions:
REMARK  status: ('A' for Active; 'I' for Inactive)
REMARK    1  A    between atoms: C_7  and  C_1 
REMARK    2  A    between atoms: N_8  and  C_7 
REMARK    3  A    between atoms: C_9  and  N_8 
REMARK    4  A    between atoms: O_17  and  C_13 
REMARK    5  A    between atoms: O_20  and  C_15 
ROOT
ATOM      1  C   UNL d   1      49.797  34.537  52.538  0.00  0.00     0.145 A 
ATOM      2  C   UNL d   1      49.531  34.585  51.758  0.00  0.00     0.305 A 
ATOM      3  C   UNL d   1      49.399  34.941  53.135  0.00  0.00     0.305 A 
ATOM      4  O   UNL d   1      48.734  35.393  52.953  0.00  0.00    -0.269 OA
ATOM      5  O   UNL d   1      48.872  35.035  51.585  0.00  0.00    -0.269 OA
ATOM      6  C   UNL d   1      48.474  35.439  52.181  0.00  0.00     0.242 A 
ATOM      7  O   UNL d   1      49.664  34.894  53.926  0.00  0.00    -0.259 OA
ATOM      8  O   UNL d   1      49.929  34.181  51.162  0.00  0.00    -0.259 OA
ATOM      9  C   UNL d   1      48.395  35.645  52.975  0.00  0.00     0.035 A 
ATOM     10  C   UNL d   1      47.929  35.732  51.620  0.00  0.00     0.035 A 
ATOM     11  C   UNL d   1      47.315  36.227  51.860  0.00  0.00     0.001 A 
ATOM     12  C   UNL d   1      47.783  36.139  53.217  0.00  0.00     0.001 A 
ATOM     13  C   UNL d   1      47.239  36.432  52.656  0.00  0.00    -0.000 A 
ENDROOT
BRANCH   1  14
ATOM     14  C   UNL d   1      50.467  34.081  52.723  0.00  0.00     0.110 C 
BRANCH  14  15
ATOM     15  N   UNL d   1      51.198  34.447  52.834  0.00  0.00    -0.242 NA
BRANCH  15  16
ATOM     16  C   UNL d   1      51.868  33.989  52.979  0.00  0.00     0.106 A 
ATOM     17  C   UNL d   1      51.888  33.201  52.743  0.00  0.00     0.045 A 
ATOM     18  C   UNL d   1      52.551  32.744  52.886  0.00  0.00     0.096 A 
ATOM     19  C   UNL d   1      53.211  33.076  53.274  0.00  0.00     0.026 A 
ATOM     20  C   UNL d   1      53.190  33.864  53.510  0.00  0.00     0.028 A 
ATOM     21  C   UNL d   1      52.517  34.323  53.363  0.00  0.00     0.112 A 
BRANCH  18  22
ATOM     22  O   UNL d   1      52.568  31.958  52.648  0.00  0.00    -0.328 OA
ATOM     23  C   UNL d   1      52.951  31.392  53.110  0.00  0.00     0.181 C 
ENDBRANCH  18  22
BRANCH  21  24
ATOM     24  O   UNL d   1      52.496  35.111  53.600  0.00  0.00    -0.327 OA
ATOM     25  C   UNL d   1      53.066  35.401  54.113  0.00  0.00     0.181 C 
ENDBRANCH  21  24
ENDBRANCH  15  16
ENDBRANCH  14  15
ENDBRANCH   1  14
TORSDOF 5
ENDMDL
MODEL 4
REMARK VINA RESULT:      -6.6      1.538      4.690
REMARK  5 active torsions:
REMARK  status: ('A' for Active; 'I' for Inactive)
REMARK    1  A    between atoms: C_7  and  C_1 
REMARK    2  A    between atoms: N_8  and  C_7 
REMARK    3  A    between atoms: C_9  and  N_8 
REMARK    4  A    between atoms: O_17  and  C_13 
REMARK    5  A    between atoms: O_20  and  C_15 
ROOT
ATOM      1  C   UNL d   1      53.145  31.527  53.533  0.00  0.00     0.145 A 
ATOM      2  C   UNL d   1      52.948  31.016  52.915  0.00  0.00     0.305 A 
ATOM      3  C   UNL d   1      53.328  31.225  54.276  0.00  0.00     0.305 A 
ATOM      4  O   UNL d   1      53.314  30.411  54.403  0.00  0.00    -0.269 OA
ATOM      5  O   UNL d   1      52.937  30.210  53.048  0.00  0.00    -0.269 OA
ATOM      6  C   UNL d   1      53.120  29.907  53.791  0.00  0.00     0.242 A 
ATOM      7  O   UNL d   1      53.527  31.739  54.903  0.00  0.00    -0.259 OA
ATOM      8  O   UNL d   1      52.766  31.319  52.171  0.00  0.00    -0.259 OA
ATOM      9  C   UNL d   1      53.338  30.025  54.576  0.00  0.00     0.035 A 
ATOM     10  C   UNL d   1      52.997  29.132  53.505  0.00  0.00     0.035 A 
ATOM     11  C   UNL d   1      53.095  28.486  54.009  0.00  0.00     0.001 A 
ATOM     12  C   UNL d   1      53.437  29.382  55.080  0.00  0.00     0.001 A 
ATOM     13  C   UNL d   1      53.314  28.607  54.795  0.00  0.00    -0.000 A 
ENDROOT
BRANCH   1  14
ATOM     14  C   UNL d   1      53.159  32.349  53.405  0.00  0.00     0.110 C 
BRANCH  14  15
ATOM     15  N   UNL d   1      52.453  32.762  53.299  0.00  0.00    -0.242 NA
BRANCH  15  16
ATOM     16  C   UNL d   1      52.434  33.577  53.422  0.00  0.00     0.106 A 
ATOM     17  C   UNL d   1      53.059  33.953  53.804  0.00  0.00     0.045 A 
ATOM     18  C   UNL d   1      53.042  34.761  53.926  0.00  0.00     0.096 A 
ATOM     19  C   UNL d   1      52.390  35.210  53.663  0.00  0.00     0.026 A 
ATOM     20  C   UNL d   1      51.765  34.834  53.281  0.00  0.00     0.028 A 
ATOM     21  C   UNL d   1      51.786  34.016  53.159  0.00  0.00     0.112 A 
BRANCH  18  22
ATOM     22  O   UNL d   1      53.668  35.132  54.308  0.00  0.00    -0.328 OA
ATOM     23  C   UNL d   1      53.530  35.782  54.797  0.00  0.00     0.181 C 
ENDBRANCH  18  22
BRANCH  21  24
ATOM     24  O   UNL d   1      51.161  33.641  52.777  0.00  0.00    -0.327 OA
ATOM     25  C   UNL d   1      50.502  34.070  52.547  0.00  0.00     0.181 C 
ENDBRANCH  21  24
ENDBRANCH  15  16
ENDBRANCH  14  15
ENDBRANCH   1  14
TORSDOF 5
ENDMDL
MODEL 5
REMARK VINA RESULT:      -6.2      1.408      5.032
REMARK  5 active torsions:
REMARK  status: ('A' for Active; 'I' for Inactive)
REMARK    1  A    between atoms: C_7  and  C_1 
REMARK    2  A    between atoms: N_8  and  C_7 
REMARK    3  A    between atoms: C_9  and  N_8 
REMARK    4  A    between atoms: O_17  and  C_13 
REMARK    5  A    between atoms: O_20  and  C_15 
ROOT
ATOM      1  C   UNL d   1      51.108  34.047  52.962  0.00  0.00     0.145 A 
ATOM      2  C   UNL d   1      51.057  33.297  53.302  0.00  0.00     0.305 A 
ATOM      3  C   UNL d   1      51.822  34.456  52.970  0.00  0.00     0.305 A 
ATOM      4  O   UNL d   1      52.487  34.117  53.318  0.00  0.00    -0.269 OA
ATOM      5  O   UNL d   1      51.721  32.965  53.646  0.00  0.00    -0.269 OA
ATOM      6  C   UNL d   1      52.435  33.375  53.654  0.00  0.00     0.242 A 
ATOM      7  O   UNL d   1      51.876  35.216  52.626  0.00  0.00    -0.259 OA
ATOM      8  O   UNL d   1      50.343  32.887  53.295  0.00  0.00    -0.259 OA
ATOM      9  C   UNL d   1      52.877  34.043  53.463  0.00  0.00     0.035 A 
ATOM     10  C   UNL d   1      52.795  32.738  54.057  0.00  0.00     0.035 A 
ATOM     11  C   UNL d   1      53.593  32.779  54.263  0.00  0.00     0.001 A 
ATOM     12  C   UNL d   1      53.673  34.085  53.668  0.00  0.00     0.001 A 
ATOM     13  C   UNL d   1      54.034  33.449  54.070  0.00  0.00    -0.000 A 
ENDROOT
BRANCH   1  14
ATOM     14  C   UNL d   1      50.437  34.390  52.610  0.00  0.00     0.110 C 
BRANCH  14  15
ATOM     15  N   UNL d   1      49.881  34.783  53.077  0.00  0.00    -0.242 NA
BRANCH  15  16
ATOM     16  C   UNL d   1      49.183  35.060  52.737  0.00  0.00     0.106 A 
ATOM     17  C   UNL d   1      48.946  34.784  51.998  0.00  0.00     0.045 A 
ATOM     18  C   UNL d   1      48.254  35.057  51.658  0.00  0.00     0.096 A 
ATOM     19  C   UNL d   1      47.785  35.617  52.061  0.00  0.00     0.026 A 
ATOM     20  C   UNL d   1      48.022  35.893  52.799  0.00  0.00     0.028 A 
ATOM     21  C   UNL d   1      48.723  35.614  53.139  0.00  0.00     0.112 A 
BRANCH  18  22
ATOM     22  O   UNL d   1      48.021  34.780  50.922  0.00  0.00    -0.328 OA
ATOM     23  C   UNL d   1      47.240  34.868  50.672  0.00  0.00     0.181 C 
ENDBRANCH  18  22
BRANCH  21  24
ATOM     24  O   UNL d   1      48.960  35.889  53.878  0.00  0.00    -0.327 OA
ATOM     25  C   UNL d   1      48.523  36.467  54.261  0.00  0.00     0.181 C 
ENDBRANCH  21  24
ENDBRANCH  15  16
ENDBRANCH  14  15
ENDBRANCH   1  14
TORSDOF 5
ENDMDL
