MODEL 1
REMARK VINA RESULT:      -4.5      0.000      0.000
REMARK  3 active torsions:
REMARK  status: ('A' for Active; 'I' for Inactive)
REMARK    1  A    between atoms: C_8  and  N_1 
REMARK    2  A    between atoms: C_9  and  C_14 
REMARK       I    between atoms: N_10  and  C_9 
REMARK    3  A    between atoms: C_16  and  N_12 
ROOT
ATOM      1  C   UNL d   1      59.373  -1.197  29.152  0.00  0.00     0.066 A 
ATOM      2  C   UNL d   1      59.025  -0.088  29.984  0.00  0.00     0.058 A 
ATOM      3  C   UNL d   1      59.354  -0.840  29.891  0.00  0.00     0.022 A 
ATOM      4  C   UNL d   1      59.062  -0.803  28.491  0.00  0.00     0.017 A 
ATOM      5  C   UNL d   1      58.714   0.306  29.322  0.00  0.00     0.005 A 
ATOM      6  C   UNL d   1      58.735  -0.054  28.581  0.00  0.00     0.002 A 
ENDROOT
BRANCH   1   7
ATOM      7  N   UNL d   1      59.701  -1.946  29.062  0.00  0.00    -0.261 N 
ATOM      8  C   UNL d   1      59.138  -2.517  28.875  0.00  0.00     0.174 A 
ATOM      9  O   UNL d   1      59.162  -3.335  28.728  0.00  0.00    -0.316 OA
ATOM     10  C   UNL d   1      60.377  -2.611  29.039  0.00  0.00     0.079 A 
ATOM     11  C   UNL d   1      58.335  -2.368  28.785  0.00  0.00     0.055 C 
ATOM     12  C   UNL d   1      59.752  -3.910  28.708  0.00  0.00     0.094 A 
ATOM     13  C   UNL d   1      59.368  -4.623  28.521  0.00  0.00     0.024 A 
ATOM     14  C   UNL d   1      60.570  -3.911  28.828  0.00  0.00     0.022 A 
ATOM     15  C   UNL d   1      59.800  -5.322  28.456  0.00  0.00     0.002 A 
ATOM     16  C   UNL d   1      60.618  -5.316  28.576  0.00  0.00    -0.000 A 
ATOM     17  C   UNL d   1      61.003  -4.610  28.762  0.00  0.00    -0.001 A 
ATOM     18  C   UNL d   1      61.133  -3.340  29.015  0.00  0.00     0.137 A 
ATOM     19  N   UNL d   1      61.117  -2.518  29.164  0.00  0.00    -0.216 NA
ATOM     20  C   UNL d   1      60.527  -1.943  29.184  0.00  0.00     0.348 A 
ATOM     21  O   UNL d   1      60.824  -1.198  29.364  0.00  0.00    -0.245 OA
ENDBRANCH   1   7
BRANCH   2  22
ATOM     22  C   UNL d   1      59.008   0.266  30.730  0.00  0.00     0.265 C 
ATOM     23  N   UNL d   1      58.334   0.206  31.198  0.00  0.00    -0.269 N 
ATOM     24  C   UNL d   1      57.671  -0.206  30.931  0.00  0.00     0.102 A 
ATOM     25  C   UNL d   1      58.320   0.563  31.947  0.00  0.00     0.102 A 
ATOM     26  C   UNL d   1      57.001  -0.261  31.405  0.00  0.00     0.100 A 
ATOM     27  N   UNL d   1      56.986   0.095  32.154  0.00  0.00    -0.299 N 
ATOM     28  C   UNL d   1      57.650   0.507  32.421  0.00  0.00     0.100 A 
ATOM     29  O   UNL d   1      59.672   0.681  31.002  0.00  0.00    -0.267 OA
BRANCH  27  30
ATOM     30  C   UNL d   1      56.314   0.037  32.624  0.00  0.00     0.092 A 
ATOM     31  C   UNL d   1      56.151  -0.669  33.018  0.00  0.00     0.156 A 
ATOM     32  F   UNL d   1      56.663  -1.312  32.936  0.00  0.00    -0.203 F 
ATOM     33  C   UNL d   1      55.475  -0.733  33.494  0.00  0.00     0.031 A 
ATOM     34  C   UNL d   1      54.967  -0.080  33.569  0.00  0.00     0.002 A 
ATOM     35  C   UNL d   1      55.136   0.628  33.171  0.00  0.00     0.002 A 
ATOM     36  C   UNL d   1      55.809   0.682  32.701  0.00  0.00     0.020 A 
ENDBRANCH  27  30
ENDBRANCH   2  22
TORSDOF 3
ENDMDL
