MODEL 1
REMARK VINA RESULT:      -6.6      0.000      0.000
REMARK  10 active torsions:
REMARK  status: ('A' for Active; 'I' for Inactive)
REMARK    1  A    between atoms: C_2  and  S_1 
REMARK    2  A    between atoms: N_3  and  S_1 
REMARK    3  A    between atoms: C_19  and  N_3 
REMARK    4  A    between atoms: C_4  and  C_8 
REMARK       I    between atoms: N_14  and  C_4 
REMARK    5  A    between atoms: O_27  and  C_7 
REMARK    6  A    between atoms: O_28  and  C_11 
REMARK    7  A    between atoms: C_29  and  N_14 
REMARK    8  A    between atoms: C_22  and  C_19 
REMARK    9  A    between atoms: C_21  and  C_30 
REMARK   10  A    between atoms: C_30  and  C_29 
ROOT
ATOM      1  C   UNL d   1     -44.274  12.907  21.904  0.00  0.00     0.058 A 
ATOM      2  C   UNL d   1     -44.733  13.583  21.824  0.00  0.00     0.005 A 
ATOM      3  C   UNL d   1     -44.595  12.238  22.281  0.00  0.00     0.005 A 
ATOM      4  C   UNL d   1     -45.824  12.930  22.489  0.00  0.00     0.020 A 
ATOM      5  C   UNL d   1     -45.513  13.594  22.118  0.00  0.00     0.002 A 
ATOM      6  C   UNL d   1     -45.371  12.255  22.571  0.00  0.00     0.002 A 
ENDROOT
BRANCH   1   7
ATOM      7  C   UNL d   1     -43.507  12.888  21.618  0.00  0.00     0.279 C 
ATOM      8  O   UNL d   1     -43.138  12.159  21.479  0.00  0.00    -0.265 OA
ATOM      9  N   UNL d   1     -43.105  13.589  21.468  0.00  0.00    -0.206 NA
BRANCH   9  10
ATOM     10  C   UNL d   1     -42.332  13.565  21.180  0.00  0.00     0.102 C 
BRANCH  10  11
ATOM     11  C   UNL d   1     -41.938  14.265  21.038  0.00  0.00     0.021 C 
BRANCH  11  12
ATOM     12  C   UNL d   1     -41.162  14.248  20.796  0.00  0.00     0.004 A 
ATOM     13  C   UNL d   1     -40.963  14.379  20.005  0.00  0.00     0.026 A 
ATOM     14  C   UNL d   1     -40.182  14.360  19.770  0.00  0.00     0.116 A 
ATOM     15  C   UNL d   1     -39.582  14.208  20.330  0.00  0.00     0.116 A 
ATOM     16  C   UNL d   1     -39.774  14.080  21.109  0.00  0.00     0.026 A 
ATOM     17  C   UNL d   1     -40.567  14.099  21.347  0.00  0.00     0.002 A 
BRANCH  14  18
ATOM     18  O   UNL d   1     -39.987  14.491  18.979  0.00  0.00    -0.326 OA
ATOM     19  C   UNL d   1     -40.480  14.338  18.275  0.00  0.00     0.181 C 
ENDBRANCH  14  18
BRANCH  15  20
ATOM     20  O   UNL d   1     -38.802  14.186  20.113  0.00  0.00    -0.326 OA
ATOM     21  C   UNL d   1     -38.227  14.037  20.665  0.00  0.00     0.181 C 
ENDBRANCH  15  20
ENDBRANCH  11  12
ENDBRANCH  10  11
ENDBRANCH   9  10
ENDBRANCH   1   7
BRANCH   4  22
ATOM     22  C   UNL d   1     -46.599  12.947  22.780  0.00  0.00     0.112 C 
BRANCH  22  23
ATOM     23  N   UNL d   1     -47.191  13.273  22.326  0.00  0.00    -0.157 NA
BRANCH  23  24
ATOM     24  S   UNL d   1     -47.988  13.177  22.550  0.00  0.00     0.285 S 
ATOM     25  O   UNL d   1     -47.822  13.530  23.277  0.00  0.00    -0.198 OA
ATOM     26  O   UNL d   1     -48.149  12.826  21.821  0.00  0.00    -0.198 OA
BRANCH  24  27
ATOM     27  C   UNL d   1     -48.773  13.080  22.763  0.00  0.00     0.105 A 
ATOM     28  C   UNL d   1     -49.317  13.672  22.624  0.00  0.00     0.012 A 
ATOM     29  C   UNL d   1     -50.110  13.570  22.840  0.00  0.00     0.001 A 
ATOM     30  C   UNL d   1     -49.065  14.377  22.263  0.00  0.00     0.001 C 
ATOM     31  C   UNL d   1     -50.356  12.865  23.199  0.00  0.00     0.000 A 
ATOM     32  C   UNL d   1     -49.804  12.263  23.341  0.00  0.00     0.001 A 
ATOM     33  C   UNL d   1     -49.009  12.368  23.123  0.00  0.00     0.013 A 
ATOM     34  C   UNL d   1     -50.043  11.562  23.697  0.00  0.00     0.000 C 
ENDBRANCH  24  27
ENDBRANCH  23  24
ENDBRANCH  22  23
ENDBRANCH   4  22
TORSDOF 10
ENDMDL
MODEL 2
REMARK VINA RESULT:      -5.7      1.499      2.279
REMARK  10 active torsions:
REMARK  status: ('A' for Active; 'I' for Inactive)
REMARK    1  A    between atoms: C_2  and  S_1 
REMARK    2  A    between atoms: N_3  and  S_1 
REMARK    3  A    between atoms: C_19  and  N_3 
REMARK    4  A    between atoms: C_4  and  C_8 
REMARK       I    between atoms: N_14  and  C_4 
REMARK    5  A    between atoms: O_27  and  C_7 
REMARK    6  A    between atoms: O_28  and  C_11 
REMARK    7  A    between atoms: C_29  and  N_14 
REMARK    8  A    between atoms: C_22  and  C_19 
REMARK    9  A    between atoms: C_21  and  C_30 
REMARK   10  A    between atoms: C_30  and  C_29 
ROOT
ATOM      1  C   UNL d   1     -42.569  13.312  21.271  0.00  0.00     0.058 A 
ATOM      2  C   UNL d   1     -42.773  12.532  21.427  0.00  0.00     0.005 A 
ATOM      3  C   UNL d   1     -43.131  13.913  21.395  0.00  0.00     0.005 A 
ATOM      4  C   UNL d   1     -44.087  12.947  21.827  0.00  0.00     0.020 A 
ATOM      5  C   UNL d   1     -43.536  12.349  21.706  0.00  0.00     0.002 A 
ATOM      6  C   UNL d   1     -43.889  13.725  21.673  0.00  0.00     0.002 A 
ENDROOT
BRANCH   1   7
ATOM      7  C   UNL d   1     -41.821  13.500  20.997  0.00  0.00     0.279 C 
ATOM      8  O   UNL d   1     -41.156  13.317  21.457  0.00  0.00    -0.265 OA
ATOM      9  N   UNL d   1     -41.729  13.868  20.268  0.00  0.00    -0.206 NA
BRANCH   9  10
ATOM     10  C   UNL d   1     -40.973  14.055  19.995  0.00  0.00     0.102 C 
BRANCH  10  11
ATOM     11  C   UNL d   1     -40.874  14.706  19.513  0.00  0.00     0.021 C 
BRANCH  11  12
ATOM     12  C   UNL d   1     -40.479  14.626  18.806  0.00  0.00     0.004 A 
ATOM     13  C   UNL d   1     -40.775  14.971  18.117  0.00  0.00     0.026 A 
ATOM     14  C   UNL d   1     -40.374  14.886  17.412  0.00  0.00     0.116 A 
ATOM     15  C   UNL d   1     -39.663  14.450  17.386  0.00  0.00     0.116 A 
ATOM     16  C   UNL d   1     -39.369  14.109  18.063  0.00  0.00     0.026 A 
ATOM     17  C   UNL d   1     -39.777  14.195  18.779  0.00  0.00     0.002 A 
BRANCH  14  18
ATOM     18  O   UNL d   1     -40.672  15.232  16.724  0.00  0.00    -0.326 OA
ATOM     19  C   UNL d   1     -41.384  15.730  16.642  0.00  0.00     0.181 C 
ENDBRANCH  14  18
BRANCH  15  20
ATOM     20  O   UNL d   1     -39.252  14.356  16.695  0.00  0.00    -0.326 OA
ATOM     21  C   UNL d   1     -38.610  13.862  16.662  0.00  0.00     0.181 C 
ENDBRANCH  15  20
ENDBRANCH  11  12
ENDBRANCH  10  11
ENDBRANCH   9  10
ENDBRANCH   1   7
BRANCH   4  22
ATOM     22  C   UNL d   1     -44.844  12.759  22.104  0.00  0.00     0.112 C 
BRANCH  22  23
ATOM     23  N   UNL d   1     -45.356  13.357  22.309  0.00  0.00    -0.157 NA
BRANCH  23  24
ATOM     24  S   UNL d   1     -46.112  13.173  22.610  0.00  0.00     0.285 S 
ATOM     25  O   UNL d   1     -45.816  13.227  23.377  0.00  0.00    -0.198 OA
ATOM     26  O   UNL d   1     -46.403  13.121  21.839  0.00  0.00    -0.198 OA
BRANCH  24  27
ATOM     27  C   UNL d   1     -46.858  12.992  22.896  0.00  0.00     0.105 A 
ATOM     28  C   UNL d   1     -47.438  13.564  22.931  0.00  0.00     0.012 A 
ATOM     29  C   UNL d   1     -48.191  13.377  23.221  0.00  0.00     0.001 A 
ATOM     30  C   UNL d   1     -47.265  14.334  22.672  0.00  0.00     0.001 C 
ATOM     31  C   UNL d   1     -48.359  12.607  23.478  0.00  0.00     0.000 A 
ATOM     32  C   UNL d   1     -47.769  12.025  23.443  0.00  0.00     0.001 A 
ATOM     33  C   UNL d   1     -47.015  12.216  23.151  0.00  0.00     0.013 A 
ATOM     34  C   UNL d   1     -47.931  11.261  23.696  0.00  0.00     0.000 C 
ENDBRANCH  24  27
ENDBRANCH  23  24
ENDBRANCH  22  23
ENDBRANCH   4  22
TORSDOF 10
ENDMDL
MODEL 3
REMARK VINA RESULT:      -5.5      1.785      7.985
REMARK  10 active torsions:
REMARK  status: ('A' for Active; 'I' for Inactive)
REMARK    1  A    between atoms: C_2  and  S_1 
REMARK    2  A    between atoms: N_3  and  S_1 
REMARK    3  A    between atoms: C_19  and  N_3 
REMARK    4  A    between atoms: C_4  and  C_8 
REMARK       I    between atoms: N_14  and  C_4 
REMARK    5  A    between atoms: O_27  and  C_7 
REMARK    6  A    between atoms: O_28  and  C_11 
REMARK    7  A    between atoms: C_29  and  N_14 
REMARK    8  A    between atoms: C_22  and  C_19 
REMARK    9  A    between atoms: C_21  and  C_30 
REMARK   10  A    between atoms: C_30  and  C_29 
ROOT
ATOM      1  C   UNL d   1     -43.845  12.904  21.815  0.00  0.00     0.058 A 
ATOM      2  C   UNL d   1     -43.803  13.636  21.448  0.00  0.00     0.005 A 
ATOM      3  C   UNL d   1     -43.176  12.408  21.815  0.00  0.00     0.005 A 
ATOM      4  C   UNL d   1     -42.439  13.384  21.084  0.00  0.00     0.020 A 
ATOM      5  C   UNL d   1     -43.095  13.878  21.080  0.00  0.00     0.002 A 
ATOM      6  C   UNL d   1     -42.476  12.654  21.448  0.00  0.00     0.002 A 
ENDROOT
BRANCH   1   7
ATOM      7  C   UNL d   1     -44.537  12.659  22.178  0.00  0.00     0.279 C 
ATOM      8  O   UNL d   1     -44.588  11.894  22.494  0.00  0.00    -0.265 OA
ATOM      9  N   UNL d   1     -45.179  13.169  22.230  0.00  0.00    -0.206 NA
BRANCH   9  10
ATOM     10  C   UNL d   1     -45.874  12.919  22.597  0.00  0.00     0.102 C 
BRANCH  10  11
ATOM     11  C   UNL d   1     -46.361  13.472  22.948  0.00  0.00     0.021 C 
BRANCH  11  12
ATOM     12  C   UNL d   1     -47.157  13.319  23.018  0.00  0.00     0.004 A 
ATOM     13  C   UNL d   1     -47.715  13.904  22.848  0.00  0.00     0.026 A 
ATOM     14  C   UNL d   1     -48.512  13.743  22.922  0.00  0.00     0.116 A 
ATOM     15  C   UNL d   1     -48.764  12.987  23.169  0.00  0.00     0.116 A 
ATOM     16  C   UNL d   1     -48.217  12.410  23.337  0.00  0.00     0.026 A 
ATOM     17  C   UNL d   1     -47.409  12.573  23.262  0.00  0.00     0.002 A 
BRANCH  14  18
ATOM     18  O   UNL d   1     -49.067  14.330  22.751  0.00  0.00    -0.326 OA
ATOM     19  C   UNL d   1     -48.918  15.171  22.573  0.00  0.00     0.181 C 
ENDBRANCH  14  18
BRANCH  15  20
ATOM     20  O   UNL d   1     -49.550  12.812  23.247  0.00  0.00    -0.326 OA
ATOM     21  C   UNL d   1     -49.789  12.048  23.381  0.00  0.00     0.181 C 
ENDBRANCH  15  20
ENDBRANCH  11  12
ENDBRANCH  10  11
ENDBRANCH   9  10
ENDBRANCH   1   7
BRANCH   4  22
ATOM     22  C   UNL d   1     -41.738  13.630  20.717  0.00  0.00     0.112 C 
BRANCH  22  23
ATOM     23  N   UNL d   1     -41.324  14.260  21.022  0.00  0.00    -0.157 NA
BRANCH  23  24
ATOM     24  S   UNL d   1     -40.628  14.524  20.646  0.00  0.00     0.285 S 
ATOM     25  O   UNL d   1     -40.178  14.076  21.171  0.00  0.00    -0.198 OA
ATOM     26  O   UNL d   1     -41.084  14.970  20.122  0.00  0.00    -0.198 OA
BRANCH  24  27
ATOM     27  C   UNL d   1     -39.950  14.787  20.269  0.00  0.00     0.105 A 
ATOM     28  C   UNL d   1     -39.566  15.457  20.531  0.00  0.00     0.012 A 
ATOM     29  C   UNL d   1     -38.880  15.721  20.148  0.00  0.00     0.001 A 
ATOM     30  C   UNL d   1     -39.869  15.871  21.184  0.00  0.00     0.001 C 
ATOM     31  C   UNL d   1     -38.581  15.306  19.497  0.00  0.00     0.000 A 
ATOM     32  C   UNL d   1     -38.971  14.624  19.230  0.00  0.00     0.001 A 
ATOM     33  C   UNL d   1     -39.659  14.362  19.616  0.00  0.00     0.013 A 
ATOM     34  C   UNL d   1     -38.679  14.209  18.585  0.00  0.00     0.000 C 
ENDBRANCH  24  27
ENDBRANCH  23  24
ENDBRANCH  22  23
ENDBRANCH   4  22
TORSDOF 10
ENDMDL
