MODEL 1
REMARK VINA RESULT:      38.6      0.000      0.000
REMARK  6 active torsions:
REMARK  status: ('A' for Active; 'I' for Inactive)
REMARK    1  A    between atoms: C_3  and  N_1 
REMARK       I    between atoms: C_4  and  N_1 
REMARK    2  A    between atoms: C_6  and  N_1 
REMARK    3  A    between atoms: N_2  and  C_3 
REMARK    4  A    between atoms: C_7  and  C_4 
REMARK    5  A    between atoms: O_22  and  C_15 
REMARK    6  A    between atoms: C_24  and  O_22 
ROOT
ATOM      1  N   UNL d   1      14.300  13.960  -1.908  0.00  0.00    -0.258 N 
ATOM      2  C   UNL d   1      14.179  14.101  -2.716  0.00  0.00     0.266 C 
ATOM      3  O   UNL d   1      14.386  14.766  -3.051  0.00  0.00    -0.267 OA
ENDROOT
BRANCH   1   4
ATOM      4  C   UNL d   1      14.072  13.243  -1.566  0.00  0.00     0.171 C 
BRANCH   4   5
ATOM      5  N   UNL d   1      14.498  12.713  -1.099  0.00  0.00    -0.257 N 
ATOM      6  C   UNL d   1      14.223  12.285  -0.452  0.00  0.00     0.266 A 
ATOM      7  O   UNL d   1      13.449  12.312  -0.147  0.00  0.00    -0.267 OA
ATOM      8  C   UNL d   1      14.846  11.821  -0.153  0.00  0.00     0.063 A 
ATOM      9  C   UNL d   1      15.513  11.965  -0.620  0.00  0.00     0.024 A 
ATOM     10  C   UNL d   1      15.309  12.512  -1.206  0.00  0.00     0.085 A 
ENDBRANCH   4   5
ENDBRANCH   1   4
BRANCH   1  11
ATOM     11  C   UNL d   1      14.654  14.543  -1.436  0.00  0.00     0.068 A 
ATOM     12  C   UNL d   1      14.787  14.402  -0.628  0.00  0.00     0.018 A 
ATOM     13  C   UNL d   1      15.137  14.988  -0.177  0.00  0.00     0.002 A 
ATOM     14  C   UNL d   1      15.354  15.700  -0.507  0.00  0.00     0.000 A 
ATOM     15  C   UNL d   1      15.224  15.839  -1.302  0.00  0.00     0.002 A 
ATOM     16  C   UNL d   1      15.707  16.285  -0.044  0.00  0.00     0.000 C 
ATOM     17  C   UNL d   1      14.875  15.268  -1.773  0.00  0.00     0.018 A 
ENDBRANCH   1  11
BRANCH   2  18
ATOM     18  C   UNL d   1      13.827  13.515  -3.173  0.00  0.00     0.057 A 
ATOM     19  C   UNL d   1      13.490  13.712  -3.897  0.00  0.00     0.007 A 
ATOM     20  C   UNL d   1      13.137  13.131  -4.357  0.00  0.00     0.025 A 
ATOM     21  C   UNL d   1      13.123  12.342  -4.088  0.00  0.00     0.100 A 
ATOM     22  C   UNL d   1      13.459  12.149  -3.366  0.00  0.00     0.025 A 
ATOM     23  C   UNL d   1      13.818  12.732  -2.895  0.00  0.00     0.007 A 
BRANCH  21  24
ATOM     24  O   UNL d   1      12.769  11.780  -4.556  0.00  0.00    -0.305 OA
BRANCH  24  25
ATOM     25  C   UNL d   1      12.868  11.781  -5.378  0.00  0.00     0.123 C 
ATOM     26  C   UNL d   1      13.613  11.902  -5.701  0.00  0.00     0.029 C 
ENDBRANCH  24  25
ENDBRANCH  21  24
ENDBRANCH   2  18
TORSDOF 6
ENDMDL
