MODEL 1
REMARK VINA RESULT:     -10.8      0.000      0.000
REMARK  3 active torsions:
REMARK  status: ('A' for Active; 'I' for Inactive)
REMARK    1  A    between atoms: N_4  and  C_1 
REMARK    2  A    between atoms: C_11  and  C_3 
REMARK       I    between atoms: C_5  and  N_4 
REMARK    3  A    between atoms: C_8  and  C_5 
ROOT
ATOM      1  N   UNL d   1      53.934  33.689  54.999  0.00  0.00    -0.183 NA
ATOM      2  C   UNL d   1      53.424  34.332  54.900  0.00  0.00     0.281 C 
ATOM      3  O   UNL d   1      53.403  34.923  55.483  0.00  0.00    -0.265 OA
ENDROOT
BRANCH   1   4
ATOM      4  C   UNL d   1      53.971  33.092  54.434  0.00  0.00     0.197 A 
ATOM      5  N   UNL d   1      53.555  32.377  54.462  0.00  0.00    -0.219 NA
ATOM      6  C   UNL d   1      53.755  31.938  53.781  0.00  0.00     0.108 A 
ATOM      7  C   UNL d   1      54.294  32.386  53.340  0.00  0.00     0.059 A 
ATOM      8  S   UNL d   1      54.427  33.101  53.745  0.00  0.00    -0.046 SA
BRANCH   6   9
ATOM      9  C   UNL d   1      53.464  31.184  53.585  0.00  0.00     0.100 A 
ATOM     10  N   UNL d   1      53.034  31.080  52.896  0.00  0.00    -0.242 NA
ATOM     11  C   UNL d   1      52.740  30.335  52.693  0.00  0.00     0.099 A 
ATOM     12  C   UNL d   1      52.890  29.704  53.198  0.00  0.00     0.021 A 
ATOM     13  C   UNL d   1      53.317  29.809  53.882  0.00  0.00     0.003 A 
ATOM     14  C   UNL d   1      53.613  30.543  54.093  0.00  0.00     0.021 A 
ENDBRANCH   6   9
ENDBRANCH   1   4
BRANCH   2  15
ATOM     15  C   UNL d   1      52.951  34.353  54.209  0.00  0.00     0.060 A 
ATOM     16  C   UNL d   1      52.184  34.059  54.222  0.00  0.00     0.032 A 
ATOM     17  C   UNL d   1      51.716  34.078  53.543  0.00  0.00     0.123 A 
ATOM     18  O   UNL d   1      50.944  33.782  53.554  0.00  0.00    -0.301 OA
ATOM     19  C   UNL d   1      52.036  34.403  52.843  0.00  0.00     0.123 A 
ATOM     20  C   UNL d   1      50.478  33.804  52.870  0.00  0.00     0.149 A 
ATOM     21  C   UNL d   1      50.797  34.129  52.166  0.00  0.00     0.149 A 
ATOM     22  O   UNL d   1      51.564  34.424  52.153  0.00  0.00    -0.301 OA
ATOM     23  C   UNL d   1      52.801  34.695  52.836  0.00  0.00     0.027 A 
ATOM     24  C   UNL d   1      53.262  34.672  53.517  0.00  0.00     0.007 A 
ENDBRANCH   2  15
TORSDOF 3
ENDMDL
MODEL 2
REMARK VINA RESULT:      -9.3      1.601      3.359
REMARK  3 active torsions:
REMARK  status: ('A' for Active; 'I' for Inactive)
REMARK    1  A    between atoms: N_4  and  C_1 
REMARK    2  A    between atoms: C_11  and  C_3 
REMARK       I    between atoms: C_5  and  N_4 
REMARK    3  A    between atoms: C_8  and  C_5 
ROOT
ATOM      1  N   UNL d   1      53.750  34.537  55.065  0.00  0.00    -0.183 NA
ATOM      2  C   UNL d   1      54.187  33.858  55.243  0.00  0.00     0.281 C 
ATOM      3  O   UNL d   1      54.592  33.819  55.967  0.00  0.00    -0.265 OA
ENDROOT
BRANCH   1   4
ATOM      4  C   UNL d   1      53.341  34.598  54.353  0.00  0.00     0.197 A 
ATOM      5  N   UNL d   1      52.545  34.403  54.237  0.00  0.00    -0.219 NA
ATOM      6  C   UNL d   1      52.360  34.548  53.437  0.00  0.00     0.108 A 
ATOM      7  C   UNL d   1      53.043  34.831  53.066  0.00  0.00     0.059 A 
ATOM      8  S   UNL d   1      53.652  34.861  53.634  0.00  0.00    -0.046 SA
BRANCH   6   9
ATOM      9  C   UNL d   1      51.618  34.428  53.080  0.00  0.00     0.100 A 
ATOM     10  N   UNL d   1      50.933  34.544  53.513  0.00  0.00    -0.242 NA
ATOM     11  C   UNL d   1      50.192  34.428  53.167  0.00  0.00     0.099 A 
ATOM     12  C   UNL d   1      50.160  34.193  52.379  0.00  0.00     0.021 A 
ATOM     13  C   UNL d   1      50.842  34.078  51.950  0.00  0.00     0.003 A 
ATOM     14  C   UNL d   1      51.581  34.191  52.284  0.00  0.00     0.021 A 
ENDBRANCH   6   9
ENDBRANCH   1   4
BRANCH   2  15
ATOM     15  C   UNL d   1      54.197  33.240  54.678  0.00  0.00     0.060 A 
ATOM     16  C   UNL d   1      53.691  32.598  54.757  0.00  0.00     0.032 A 
ATOM     17  C   UNL d   1      53.700  31.987  54.202  0.00  0.00     0.123 A 
ATOM     18  O   UNL d   1      53.191  31.339  54.279  0.00  0.00    -0.301 OA
ATOM     19  C   UNL d   1      54.232  32.035  53.560  0.00  0.00     0.123 A 
ATOM     20  C   UNL d   1      53.203  30.729  53.719  0.00  0.00     0.149 A 
ATOM     21  C   UNL d   1      53.736  30.774  53.074  0.00  0.00     0.149 A 
ATOM     22  O   UNL d   1      54.242  31.417  52.995  0.00  0.00    -0.301 OA
ATOM     23  C   UNL d   1      54.733  32.677  53.486  0.00  0.00     0.027 A 
ATOM     24  C   UNL d   1      54.720  33.282  54.044  0.00  0.00     0.007 A 
ENDBRANCH   2  15
TORSDOF 3
ENDMDL
