MODEL 1
REMARK VINA RESULT:     109.5      0.000      0.000
REMARK  5 active torsions:
REMARK  status: ('A' for Active; 'I' for Inactive)
REMARK    1  A    between atoms: S_3  and  C_17 
REMARK    2  A    between atoms: N_11  and  S_3 
REMARK    3  A    between atoms: C_13  and  C_10 
REMARK    4  A    between atoms: C_12  and  N_11 
REMARK       I    between atoms: N_19  and  C_13 
REMARK    5  A    between atoms: C_31  and  N_19 
ROOT
ATOM      1  C   UNL d   1      39.180 -17.138  36.997  0.00  0.00     0.105 A 
ATOM      2  C   UNL d   1      39.439 -16.468  37.316  0.00  0.00     0.015 A 
ATOM      3  C   UNL d   1      39.665 -17.575  36.520  0.00  0.00     0.015 A 
ATOM      4  C   UNL d   1      40.643 -16.644  36.707  0.00  0.00     0.085 A 
ATOM      5  C   UNL d   1      40.386 -17.314  36.388  0.00  0.00     0.020 A 
ATOM      6  C   UNL d   1      40.194 -16.208  37.169  0.00  0.00     0.020 A 
ENDROOT
BRANCH   4   7
ATOM      7  N   UNL d   1      41.355 -16.379  36.581  0.00  0.00    -0.208 NA
ATOM      8  C   UNL d   1      41.856 -16.220  37.224  0.00  0.00     0.285 C 
ATOM      9  O   UNL d   1      41.590 -16.347  38.007  0.00  0.00    -0.265 OA
BRANCH   8  10
ATOM     10  C   UNL d   1      42.632 -15.932  37.096  0.00  0.00     0.089 A 
ATOM     11  C   UNL d   1      43.281 -16.372  36.838  0.00  0.00     0.018 A 
ATOM     12  C   UNL d   1      43.941 -15.856  36.789  0.00  0.00     0.081 A 
ATOM     13  C   UNL d   1      43.686 -15.093  37.021  0.00  0.00     0.117 A 
ATOM     14  C   UNL d   1      44.729 -15.984  36.566  0.00  0.00     0.268 A 
ATOM     15  N   UNL d   1      44.227 -14.468  37.025  0.00  0.00    -0.221 NA
ATOM     16  S   UNL d   1      42.878 -15.140  37.210  0.00  0.00    -0.063 SA
ATOM     17  C   UNL d   1      45.021 -14.589  36.802  0.00  0.00     0.151 A 
ATOM     18  N   UNL d   1      45.266 -15.348  36.574  0.00  0.00    -0.258 N 
ATOM     19  C   UNL d   1      45.557 -13.962  36.809  0.00  0.00     0.038 A 
ATOM     20  C   UNL d   1      46.065 -15.480  36.348  0.00  0.00     0.084 A 
ATOM     21  C   UNL d   1      46.596 -14.838  36.359  0.00  0.00     0.019 A 
ATOM     22  C   UNL d   1      46.343 -14.082  36.588  0.00  0.00     0.005 A 
ATOM     23  O   UNL d   1      44.984 -16.747  36.335  0.00  0.00    -0.267 OA
ENDBRANCH   8  10
ENDBRANCH   4   7
BRANCH   1  24
ATOM     24  S   UNL d   1      38.475 -17.367  37.142  0.00  0.00     0.287 S 
ATOM     25  O   UNL d   1      37.660 -18.036  36.934  0.00  0.00    -0.198 OA
ATOM     26  O   UNL d   1      38.594 -18.121  36.377  0.00  0.00    -0.198 OA
BRANCH  24  27
ATOM     27  N   UNL d   1      37.916 -16.920  37.846  0.00  0.00    -0.139 NA
BRANCH  27  28
ATOM     28  C   UNL d   1      37.753 -17.301  38.499  0.00  0.00     0.178 A 
ATOM     29  N   UNL d   1      37.593 -18.104  38.428  0.00  0.00    -0.207 NA
ATOM     30  C   UNL d   1      37.422 -18.494  39.124  0.00  0.00     0.164 A 
ATOM     31  C   UNL d   1      37.273 -19.235  39.070  0.00  0.00     0.042 C 
ATOM     32  N   UNL d   1      37.410 -18.105  39.869  0.00  0.00    -0.227 NA
ATOM     33  C   UNL d   1      37.571 -17.307  39.923  0.00  0.00     0.086 A 
ATOM     34  C   UNL d   1      37.743 -16.908  39.237  0.00  0.00     0.059 A 
ATOM     35  C   UNL d   1      37.561 -16.955  40.589  0.00  0.00     0.021 C 
ENDBRANCH  27  28
ENDBRANCH  24  27
ENDBRANCH   1  24
TORSDOF 5
ENDMDL
