MODEL 1
REMARK VINA RESULT:      46.5      0.000      0.000
REMARK  5 active torsions:
REMARK  status: ('A' for Active; 'I' for Inactive)
REMARK    1  A    between atoms: C_2  and  C_1 
REMARK    2  A    between atoms: C_3  and  C_1 
REMARK    3  A    between atoms: C_4  and  C_1 
REMARK    4  A    between atoms: C_5  and  C_2 
REMARK    5  A    between atoms: C_13  and  C_5 
ROOT
ATOM      1  C   UNL d   1     -55.044-100.945 -43.721  0.00  0.00     0.029 C 
ENDROOT
BRANCH   1   2
ATOM      2  C   UNL d   1     -54.831-101.052 -42.934  0.00  0.00     0.044 C 
BRANCH   2   3
ATOM      3  C   UNL d   1     -54.812-101.807 -42.613  0.00  0.00     0.196 C 
ATOM      4  O   UNL d   1     -54.712-102.317 -43.009  0.00  0.00    -0.287 OA
BRANCH   3   5
ATOM      5  C   UNL d   1     -54.918-101.946 -41.791  0.00  0.00     0.039 A 
ATOM      6  C   UNL d   1     -55.230-102.669 -41.556  0.00  0.00     0.003 A 
ATOM      7  C   UNL d   1     -55.337-102.811 -40.739  0.00  0.00     0.000 A 
ATOM      8  C   UNL d   1     -55.132-102.235 -40.181  0.00  0.00     0.000 A 
ATOM      9  C   UNL d   1     -54.823-101.524 -40.445  0.00  0.00     0.000 A 
ATOM     10  C   UNL d   1     -54.714-101.373 -41.237  0.00  0.00     0.003 A 
ENDBRANCH   3   5
ENDBRANCH   2   3
ENDBRANCH   1   2
BRANCH   1  11
ATOM     11  C   UNL d   1     -54.927-101.557 -44.267  0.00  0.00     0.100 A 
ATOM     12  O   UNL d   1     -54.945-101.395 -45.072  0.00  0.00    -0.305 OA
ATOM     13  C   UNL d   1     -54.813-102.104 -45.471  0.00  0.00     0.123 A 
ATOM     14  C   UNL d   1     -54.715-102.696 -44.906  0.00  0.00     0.029 A 
ATOM     15  C   UNL d   1     -54.785-102.366 -44.170  0.00  0.00     0.027 A 
ENDBRANCH   1  11
BRANCH   1  16
ATOM     16  C   UNL d   1     -55.376-100.221 -43.957  0.00  0.00     0.041 A 
ATOM     17  C   UNL d   1     -56.190-100.094 -43.913  0.00  0.00     0.196 A 
ATOM     18  O   UNL d   1     -56.699-100.687 -43.632  0.00  0.00    -0.287 OA
ATOM     19  C   UNL d   1     -56.506 -99.357 -44.156  0.00  0.00     0.042 A 
ATOM     20  C   UNL d   1     -56.010 -98.763 -44.436  0.00  0.00     0.003 A 
ATOM     21  C   UNL d   1     -55.196 -98.890 -44.480  0.00  0.00     0.000 A 
ATOM     22  C   UNL d   1     -54.878 -99.611 -44.243  0.00  0.00     0.003 A 
ENDBRANCH   1  16
TORSDOF 5
ENDMDL
MODEL 2
REMARK VINA RESULT:      47.6      2.333      4.120
REMARK  5 active torsions:
REMARK  status: ('A' for Active; 'I' for Inactive)
REMARK    1  A    between atoms: C_2  and  C_1 
REMARK    2  A    between atoms: C_3  and  C_1 
REMARK    3  A    between atoms: C_4  and  C_1 
REMARK    4  A    between atoms: C_5  and  C_2 
REMARK    5  A    between atoms: C_13  and  C_5 
ROOT
ATOM      1  C   UNL d   1     -58.103 -98.847 -44.516  0.00  0.00     0.029 C 
ENDROOT
BRANCH   1   2
ATOM      2  C   UNL d   1     -57.288 -98.757 -44.571  0.00  0.00     0.044 C 
BRANCH   2   3
ATOM      3  C   UNL d   1     -56.823 -99.386 -44.822  0.00  0.00     0.196 C 
ATOM      4  O   UNL d   1     -57.012 -99.732 -45.342  0.00  0.00    -0.287 OA
BRANCH   3   5
ATOM      5  C   UNL d   1     -56.110 -99.597 -44.430  0.00  0.00     0.039 A 
ATOM      6  C   UNL d   1     -55.912-100.394 -44.387  0.00  0.00     0.003 A 
ATOM      7  C   UNL d   1     -55.204-100.610 -43.998  0.00  0.00     0.000 A 
ATOM      8  C   UNL d   1     -54.715-100.032 -43.664  0.00  0.00     0.000 A 
ATOM      9  C   UNL d   1     -54.938 -99.246 -43.722  0.00  0.00     0.000 A 
ATOM     10  C   UNL d   1     -55.624 -99.022 -44.098  0.00  0.00     0.003 A 
ENDBRANCH   3   5
ENDBRANCH   2   3
ENDBRANCH   1   2
BRANCH   1  11
ATOM     11  C   UNL d   1     -58.553 -98.966 -45.202  0.00  0.00     0.100 A 
ATOM     12  O   UNL d   1     -58.223 -99.359 -45.844  0.00  0.00    -0.305 OA
ATOM     13  C   UNL d   1     -58.795 -99.393 -46.435  0.00  0.00     0.123 A 
ATOM     14  C   UNL d   1     -59.473 -99.019 -46.151  0.00  0.00     0.029 A 
ATOM     15  C   UNL d   1     -59.328 -98.758 -45.399  0.00  0.00     0.027 A 
ENDBRANCH   1  11
BRANCH   1  16
ATOM     16  C   UNL d   1     -58.465 -98.816 -43.770  0.00  0.00     0.041 A 
ATOM     17  C   UNL d   1     -59.287 -98.796 -43.698  0.00  0.00     0.196 A 
ATOM     18  O   UNL d   1     -59.774 -98.805 -44.371  0.00  0.00    -0.287 OA
ATOM     19  C   UNL d   1     -59.635 -98.765 -42.937  0.00  0.00     0.042 A 
ATOM     20  C   UNL d   1     -59.162 -98.755 -42.263  0.00  0.00     0.003 A 
ATOM     21  C   UNL d   1     -58.340 -98.776 -42.335  0.00  0.00     0.000 A 
ATOM     22  C   UNL d   1     -57.992 -98.806 -43.079  0.00  0.00     0.003 A 
ENDBRANCH   1  16
TORSDOF 5
ENDMDL
MODEL 3
REMARK VINA RESULT:      47.7      1.983      4.268
REMARK  5 active torsions:
REMARK  status: ('A' for Active; 'I' for Inactive)
REMARK    1  A    between atoms: C_2  and  C_1 
REMARK    2  A    between atoms: C_3  and  C_1 
REMARK    3  A    between atoms: C_4  and  C_1 
REMARK    4  A    between atoms: C_5  and  C_2 
REMARK    5  A    between atoms: C_13  and  C_5 
ROOT
ATOM      1  C   UNL d   1     -55.879-100.041 -44.475  0.00  0.00     0.029 C 
ENDROOT
BRANCH   1   2
ATOM      2  C   UNL d   1     -56.473 -99.702 -44.932  0.00  0.00     0.044 C 
BRANCH   2   3
ATOM      3  C   UNL d   1     -56.970 -99.137 -44.605  0.00  0.00     0.196 C 
ATOM      4  O   UNL d   1     -56.746 -98.761 -44.119  0.00  0.00    -0.287 OA
BRANCH   3   5
ATOM      5  C   UNL d   1     -57.758 -99.025 -44.875  0.00  0.00     0.039 A 
ATOM      6  C   UNL d   1     -58.367 -99.071 -44.324  0.00  0.00     0.003 A 
ATOM      7  C   UNL d   1     -59.153 -98.961 -44.588  0.00  0.00     0.000 A 
ATOM      8  C   UNL d   1     -59.312 -98.809 -45.386  0.00  0.00     0.000 A 
ATOM      9  C   UNL d   1     -58.684 -98.770 -45.911  0.00  0.00     0.000 A 
ATOM     10  C   UNL d   1     -57.915 -98.875 -45.668  0.00  0.00     0.003 A 
ENDBRANCH   3   5
ENDBRANCH   2   3
ENDBRANCH   1   2
BRANCH   1  11
ATOM     11  C   UNL d   1     -55.486 -99.586 -43.906  0.00  0.00     0.100 A 
ATOM     12  O   UNL d   1     -55.691 -99.656 -43.113  0.00  0.00    -0.305 OA
ATOM     13  C   UNL d   1     -55.211 -99.141 -42.686  0.00  0.00     0.123 A 
ATOM     14  C   UNL d   1     -54.713 -98.758 -43.221  0.00  0.00     0.029 A 
ATOM     15  C   UNL d   1     -54.879 -99.028 -43.966  0.00  0.00     0.027 A 
ENDBRANCH   1  11
BRANCH   1  16
ATOM     16  C   UNL d   1     -55.683-100.840 -44.592  0.00  0.00     0.041 A 
ATOM     17  C   UNL d   1     -55.139-101.061 -45.171  0.00  0.00     0.196 A 
ATOM     18  O   UNL d   1     -54.774-100.491 -45.653  0.00  0.00    -0.287 OA
ATOM     19  C   UNL d   1     -54.953-101.871 -45.275  0.00  0.00     0.042 A 
ATOM     20  C   UNL d   1     -55.310-102.444 -44.803  0.00  0.00     0.003 A 
ATOM     21  C   UNL d   1     -55.854-102.222 -44.224  0.00  0.00     0.000 A 
ATOM     22  C   UNL d   1     -56.041-101.428 -44.116  0.00  0.00     0.003 A 
ENDBRANCH   1  16
TORSDOF 5
ENDMDL
MODEL 4
REMARK VINA RESULT:      48.2      1.635      3.828
REMARK  5 active torsions:
REMARK  status: ('A' for Active; 'I' for Inactive)
REMARK    1  A    between atoms: C_2  and  C_1 
REMARK    2  A    between atoms: C_3  and  C_1 
REMARK    3  A    between atoms: C_4  and  C_1 
REMARK    4  A    between atoms: C_5  and  C_2 
REMARK    5  A    between atoms: C_13  and  C_5 
ROOT
ATOM      1  C   UNL d   1     -55.871 -99.382 -43.917  0.00  0.00     0.029 C 
ENDROOT
BRANCH   1   2
ATOM      2  C   UNL d   1     -56.600 -99.072 -43.697  0.00  0.00     0.044 C 
BRANCH   2   3
ATOM      3  C   UNL d   1     -57.251 -99.168 -44.187  0.00  0.00     0.196 C 
ATOM      4  O   UNL d   1     -57.157 -99.358 -44.805  0.00  0.00    -0.287 OA
BRANCH   3   5
ATOM      5  C   UNL d   1     -58.036 -99.029 -43.919  0.00  0.00     0.039 A 
ATOM      6  C   UNL d   1     -58.168 -98.993 -43.109  0.00  0.00     0.003 A 
ATOM      7  C   UNL d   1     -58.947 -98.855 -42.837  0.00  0.00     0.000 A 
ATOM      8  C   UNL d   1     -59.569 -98.757 -43.374  0.00  0.00     0.000 A 
ATOM      9  C   UNL d   1     -59.406 -98.799 -44.176  0.00  0.00     0.000 A 
ATOM     10  C   UNL d   1     -58.653 -98.932 -44.454  0.00  0.00     0.003 A 
ENDBRANCH   3   5
ENDBRANCH   2   3
ENDBRANCH   1   2
BRANCH   1  11
ATOM     11  C   UNL d   1     -55.519 -99.145 -44.628  0.00  0.00     0.100 A 
ATOM     12  O   UNL d   1     -55.990 -98.974 -45.280  0.00  0.00    -0.305 OA
ATOM     13  C   UNL d   1     -55.490 -98.756 -45.897  0.00  0.00     0.123 A 
ATOM     14  C   UNL d   1     -54.714 -98.796 -45.619  0.00  0.00     0.029 A 
ATOM     15  C   UNL d   1     -54.729 -99.033 -44.845  0.00  0.00     0.027 A 
ENDBRANCH   1  11
BRANCH   1  16
ATOM     16  C   UNL d   1     -55.497 -99.932 -43.420  0.00  0.00     0.041 A 
ATOM     17  C   UNL d   1     -55.523-100.740 -43.587  0.00  0.00     0.196 A 
ATOM     18  O   UNL d   1     -55.923-101.024 -44.257  0.00  0.00    -0.287 OA
ATOM     19  C   UNL d   1     -55.140-101.280 -43.074  0.00  0.00     0.042 A 
ATOM     20  C   UNL d   1     -54.741-101.009 -42.407  0.00  0.00     0.003 A 
ATOM     21  C   UNL d   1     -54.715-100.202 -42.240  0.00  0.00     0.000 A 
ATOM     22  C   UNL d   1     -55.089 -99.665 -42.739  0.00  0.00     0.003 A 
ENDBRANCH   1  16
TORSDOF 5
ENDMDL
