MODEL 1
REMARK VINA RESULT:      65.1      0.000      0.000
REMARK  1 active torsions:
REMARK  status: ('A' for Active; 'I' for Inactive)
REMARK       I    between atoms: N_3  and  C_1 
REMARK       I    between atoms: N_5  and  C_1 
REMARK       I    between atoms: C_2  and  N_4 
REMARK    1  A    between atoms: C_6  and  C_2 
ROOT
ATOM      1  C   UNL d   1     -52.435  25.636  33.387  0.00  0.00     0.340 C 
ATOM      2  C   UNL d   1     -49.320  26.709  33.615  0.00  0.00     0.265 C 
ATOM      3  N   UNL d   1     -51.661  25.918  33.343  0.00  0.00    -0.254 N 
ATOM      4  N   UNL d   1     -50.117  26.445  33.545  0.00  0.00    -0.269 N 
ATOM      5  N   UNL d   1     -52.588  24.829  33.306  0.00  0.00    -0.253 N 
ATOM      6  O   UNL d   1     -53.058  26.168  33.514  0.00  0.00    -0.245 OA
ATOM      7  C   UNL d   1     -51.504  26.722  33.452  0.00  0.00     0.104 A 
ATOM      8  C   UNL d   1     -51.028  25.379  33.315  0.00  0.00     0.104 A 
ATOM      9  C   UNL d   1     -50.717  26.994  33.566  0.00  0.00     0.102 A 
ATOM     10  C   UNL d   1     -50.252  25.640  33.412  0.00  0.00     0.102 A 
ATOM     11  O   UNL d   1     -48.695  26.167  33.588  0.00  0.00    -0.267 OA
ATOM     12  O   UNL d   1     -52.869  23.189  33.434  0.00  0.00    -0.300 OA
ATOM     13  C   UNL d   1     -51.934  24.272  33.469  0.00  0.00     0.111 C 
ATOM     14  C   UNL d   1     -53.332  24.521  33.640  0.00  0.00     0.111 C 
ATOM     15  C   UNL d   1     -53.488  23.718  33.560  0.00  0.00     0.142 C 
ATOM     16  C   UNL d   1     -52.092  23.463  33.388  0.00  0.00     0.142 C 
ENDROOT
BRANCH   2  17
ATOM     17  C   UNL d   1     -49.163  27.512  33.732  0.00  0.00     0.057 C 
ATOM     18  C   UNL d   1     -48.842  27.755  34.466  0.00  0.00     0.011 C 
ATOM     19  C   UNL d   1     -48.712  28.565  34.609  0.00  0.00     0.035 C 
ATOM     20 BR   UNL d   1     -48.257  28.797  35.266  0.00  0.00    -0.049 Br
ATOM     21  C   UNL d   1     -49.032  29.130  34.100  0.00  0.00     0.007 C 
ATOM     22  C   UNL d   1     -49.485  28.889  33.447  0.00  0.00     0.001 C 
ATOM     23  C   UNL d   1     -49.614  28.083  33.306  0.00  0.00     0.005 C 
ENDBRANCH   2  17
TORSDOF 1
ENDMDL
