MODEL 1
REMARK VINA RESULT:      -6.0      0.000      0.000
REMARK  2 active torsions:
REMARK  status: ('A' for Active; 'I' for Inactive)
REMARK    1  A    between atoms: C_4  and  C_1 
REMARK       I    between atoms: N_7  and  C_4 
REMARK    2  A    between atoms: C_17  and  N_8 
ROOT
ATOM      1  C   UNL d   1     -41.414-121.887 -52.689  0.00  0.00     0.248 C 
ATOM      2  N   UNL d   1     -41.585-122.208 -51.909  0.00  0.00    -0.272 N 
ATOM      3  N   UNL d   1     -41.924-122.846 -50.352  0.00  0.00    -0.301 N 
ATOM      4  O   UNL d   1     -41.127-121.131 -52.764  0.00  0.00    -0.271 OA
ATOM      5  C   UNL d   1     -41.451-121.728 -51.206  0.00  0.00     0.102 A 
ATOM      6  C   UNL d   1     -41.887-123.007 -51.851  0.00  0.00     0.102 A 
ATOM      7  C   UNL d   1     -41.617-122.041 -50.437  0.00  0.00     0.100 A 
ATOM      8  C   UNL d   1     -42.058-123.326 -51.055  0.00  0.00     0.100 A 
ENDROOT
BRANCH   1   9
ATOM      9  C   UNL d   1     -41.539-122.336 -53.352  0.00  0.00     0.112 A 
ATOM     10  C   UNL d   1     -42.058-122.666 -54.741  0.00  0.00     0.025 A 
ATOM     11  C   UNL d   1     -41.669-122.779 -54.022  0.00  0.00     0.074 A 
ATOM     12  C   UNL d   1     -42.069-123.260 -55.294  0.00  0.00     0.002 C 
ATOM     13  C   UNL d   1     -42.474-122.060 -55.078  0.00  0.00     0.002 C 
ATOM     14  C   UNL d   1     -41.686-123.371 -54.586  0.00  0.00     0.012 C 
ATOM     15  C   UNL d   1     -41.250-123.390 -53.684  0.00  0.00    -0.023 A 
ATOM     16  C   UNL d   1     -41.969-122.028 -53.983  0.00  0.00     0.172 A 
ATOM     17  C   UNL d   1     -41.123-122.945 -53.018  0.00  0.00    -0.018 A 
ATOM     18  C   UNL d   1     -41.841-121.582 -53.315  0.00  0.00     0.024 A 
ATOM     19  O   UNL d   1     -42.403-121.554 -54.476  0.00  0.00    -0.291 OA
ENDBRANCH   1   9
BRANCH   3  20
ATOM     20  C   UNL d   1     -42.095-123.170 -49.570  0.00  0.00     0.064 A 
ATOM     21  C   UNL d   1     -41.458-123.475 -49.085  0.00  0.00     0.018 A 
ATOM     22  C   UNL d   1     -41.627-123.797 -48.307  0.00  0.00     0.002 A 
ATOM     23  C   UNL d   1     -42.441-123.815 -48.012  0.00  0.00     0.000 A 
ATOM     24  C   UNL d   1     -43.081-123.506 -48.505  0.00  0.00     0.002 A 
ATOM     25  C   UNL d   1     -42.908-123.184 -49.283  0.00  0.00     0.018 A 
ENDBRANCH   3  20
TORSDOF 2
ENDMDL
MODEL 2
REMARK VINA RESULT:      -4.9      1.214      4.669
REMARK  2 active torsions:
REMARK  status: ('A' for Active; 'I' for Inactive)
REMARK    1  A    between atoms: C_4  and  C_1 
REMARK       I    between atoms: N_7  and  C_4 
REMARK    2  A    between atoms: C_17  and  N_8 
ROOT
ATOM      1  C   UNL d   1     -41.608-121.920 -50.503  0.00  0.00     0.248 C 
ATOM      2  N   UNL d   1     -41.634-122.042 -51.355  0.00  0.00    -0.272 N 
ATOM      3  N   UNL d   1     -41.685-122.282 -53.053  0.00  0.00    -0.301 N 
ATOM      4  O   UNL d   1     -41.141-121.333 -50.190  0.00  0.00    -0.271 OA
ATOM      5  C   UNL d   1     -41.166-121.541 -51.877  0.00  0.00     0.102 A 
ATOM      6  C   UNL d   1     -42.132-122.665 -51.665  0.00  0.00     0.102 A 
ATOM      7  C   UNL d   1     -41.190-121.658 -52.715  0.00  0.00     0.100 A 
ATOM      8  C   UNL d   1     -42.154-122.783 -52.531  0.00  0.00     0.100 A 
ENDROOT
BRANCH   1   9
ATOM      9  C   UNL d   1     -42.047-122.389 -50.009  0.00  0.00     0.112 A 
ATOM     10  C   UNL d   1     -42.311-123.458 -48.963  0.00  0.00     0.025 A 
ATOM     11  C   UNL d   1     -42.480-122.863 -49.510  0.00  0.00     0.074 A 
ATOM     12  C   UNL d   1     -42.914-123.817 -48.555  0.00  0.00     0.002 C 
ATOM     13  C   UNL d   1     -41.637-123.817 -48.698  0.00  0.00     0.002 C 
ATOM     14  C   UNL d   1     -43.079-123.231 -49.093  0.00  0.00     0.012 C 
ATOM     15  C   UNL d   1     -43.159-122.502 -49.777  0.00  0.00    -0.023 A 
ATOM     16  C   UNL d   1     -41.675-122.941 -49.526  0.00  0.00     0.172 A 
ATOM     17  C   UNL d   1     -42.724-122.032 -50.272  0.00  0.00    -0.018 A 
ATOM     18  C   UNL d   1     -41.238-122.468 -50.024  0.00  0.00     0.024 A 
ATOM     19  O   UNL d   1     -41.132-123.406 -49.144  0.00  0.00    -0.291 OA
ENDBRANCH   1   9
BRANCH   3  20
ATOM     20  C   UNL d   1     -41.713-122.406 -53.908  0.00  0.00     0.064 A 
ATOM     21  C   UNL d   1     -41.368-123.112 -54.248  0.00  0.00     0.018 A 
ATOM     22  C   UNL d   1     -41.395-123.236 -55.097  0.00  0.00     0.002 A 
ATOM     23  C   UNL d   1     -41.771-122.648 -55.610  0.00  0.00     0.000 A 
ATOM     24  C   UNL d   1     -42.119-121.937 -55.263  0.00  0.00     0.002 A 
ATOM     25  C   UNL d   1     -42.090-121.817 -54.412  0.00  0.00     0.018 A 
ENDBRANCH   3  20
TORSDOF 2
ENDMDL
MODEL 3
REMARK VINA RESULT:      -4.4      0.903      1.353
REMARK  2 active torsions:
REMARK  status: ('A' for Active; 'I' for Inactive)
REMARK    1  A    between atoms: C_4  and  C_1 
REMARK       I    between atoms: N_7  and  C_4 
REMARK    2  A    between atoms: C_17  and  N_8 
ROOT
ATOM      1  C   UNL d   1     -41.466-123.156 -53.241  0.00  0.00     0.248 C 
ATOM      2  N   UNL d   1     -41.589-123.114 -52.390  0.00  0.00    -0.272 N 
ATOM      3  N   UNL d   1     -41.833-123.032 -50.693  0.00  0.00    -0.301 N 
ATOM      4  O   UNL d   1     -41.125-123.817 -53.571  0.00  0.00    -0.271 OA
ATOM      5  C   UNL d   1     -41.351-123.771 -51.886  0.00  0.00     0.102 A 
ATOM      6  C   UNL d   1     -41.949-122.411 -52.062  0.00  0.00     0.102 A 
ATOM      7  C   UNL d   1     -41.470-123.733 -51.049  0.00  0.00     0.100 A 
ATOM      8  C   UNL d   1     -42.071-122.374 -51.197  0.00  0.00     0.100 A 
ENDROOT
BRANCH   1   9
ATOM      9  C   UNL d   1     -41.688-122.541 -53.718  0.00  0.00     0.112 A 
ATOM     10  C   UNL d   1     -42.382-121.849 -54.879  0.00  0.00     0.025 A 
ATOM     11  C   UNL d   1     -41.917-121.927 -54.202  0.00  0.00     0.074 A 
ATOM     12  C   UNL d   1     -42.486-121.119 -55.218  0.00  0.00     0.002 C 
ATOM     13  C   UNL d   1     -42.807-122.357 -55.344  0.00  0.00     0.002 C 
ATOM     14  C   UNL d   1     -42.027-121.197 -54.551  0.00  0.00     0.012 C 
ATOM     15  C   UNL d   1     -41.489-121.416 -53.735  0.00  0.00    -0.023 A 
ATOM     16  C   UNL d   1     -42.175-122.677 -54.368  0.00  0.00     0.172 A 
ATOM     17  C   UNL d   1     -41.264-122.029 -53.255  0.00  0.00    -0.018 A 
ATOM     18  C   UNL d   1     -41.948-123.292 -53.886  0.00  0.00     0.024 A 
ATOM     19  O   UNL d   1     -42.642-123.013 -54.937  0.00  0.00    -0.291 OA
ENDBRANCH   1   9
BRANCH   3  20
ATOM     20  C   UNL d   1     -41.957-122.987 -49.839  0.00  0.00     0.064 A 
ATOM     21  C   UNL d   1     -41.305-123.135 -49.305  0.00  0.00     0.018 A 
ATOM     22  C   UNL d   1     -41.427-123.091 -48.456  0.00  0.00     0.002 A 
ATOM     23  C   UNL d   1     -42.209-122.897 -48.140  0.00  0.00     0.000 A 
ATOM     24  C   UNL d   1     -42.865-122.748 -48.682  0.00  0.00     0.002 A 
ATOM     25  C   UNL d   1     -42.739-122.793 -49.532  0.00  0.00     0.018 A 
ENDBRANCH   3  20
TORSDOF 2
ENDMDL
MODEL 4
REMARK VINA RESULT:      -3.7      1.196      4.547
REMARK  2 active torsions:
REMARK  status: ('A' for Active; 'I' for Inactive)
REMARK    1  A    between atoms: C_4  and  C_1 
REMARK       I    between atoms: N_7  and  C_4 
REMARK    2  A    between atoms: C_17  and  N_8 
ROOT
ATOM      1  C   UNL d   1     -41.485-122.070 -50.555  0.00  0.00     0.248 C 
ATOM      2  N   UNL d   1     -41.489-122.229 -51.401  0.00  0.00    -0.272 N 
ATOM      3  N   UNL d   1     -41.494-122.544 -53.088  0.00  0.00    -0.301 N 
ATOM      4  O   UNL d   1     -41.137-121.394 -50.269  0.00  0.00    -0.271 OA
ATOM      5  C   UNL d   1     -41.123-121.671 -51.947  0.00  0.00     0.102 A 
ATOM      6  C   UNL d   1     -41.860-122.947 -51.682  0.00  0.00     0.102 A 
ATOM      7  C   UNL d   1     -41.125-121.824 -52.779  0.00  0.00     0.100 A 
ATOM      8  C   UNL d   1     -41.860-123.102 -52.542  0.00  0.00     0.100 A 
ENDROOT
BRANCH   1   9
ATOM      9  C   UNL d   1     -41.828-122.593 -50.039  0.00  0.00     0.112 A 
ATOM     10  C   UNL d   1     -42.933-123.209 -49.199  0.00  0.00     0.025 A 
ATOM     11  C   UNL d   1     -42.180-123.113 -49.522  0.00  0.00     0.074 A 
ATOM     12  C   UNL d   1     -43.079-123.817 -48.682  0.00  0.00     0.002 C 
ATOM     13  C   UNL d   1     -43.639-122.819 -49.267  0.00  0.00     0.002 C 
ATOM     14  C   UNL d   1     -42.337-123.722 -49.000  0.00  0.00     0.012 C 
ATOM     15  C   UNL d   1     -41.470-123.505 -49.453  0.00  0.00    -0.023 A 
ATOM     16  C   UNL d   1     -42.622-122.513 -49.839  0.00  0.00     0.172 A 
ATOM     17  C   UNL d   1     -41.123-122.985 -49.969  0.00  0.00    -0.018 A 
ATOM     18  C   UNL d   1     -42.273-121.991 -50.356  0.00  0.00     0.024 A 
ATOM     19  O   UNL d   1     -43.391-122.268 -49.774  0.00  0.00    -0.291 OA
ENDBRANCH   1   9
BRANCH   3  20
ATOM     20  C   UNL d   1     -41.499-122.705 -53.937  0.00  0.00     0.064 A 
ATOM     21  C   UNL d   1     -41.699-122.081 -54.488  0.00  0.00     0.018 A 
ATOM     22  C   UNL d   1     -41.704-122.240 -55.332  0.00  0.00     0.002 A 
ATOM     23  C   UNL d   1     -41.507-123.030 -55.626  0.00  0.00     0.000 A 
ATOM     24  C   UNL d   1     -41.305-123.657 -55.066  0.00  0.00     0.002 A 
ATOM     25  C   UNL d   1     -41.301-123.494 -54.222  0.00  0.00     0.018 A 
ENDBRANCH   3  20
TORSDOF 2
ENDMDL
