MODEL 1
REMARK VINA RESULT:      -5.9      0.000      0.000
REMARK  4 active torsions:
REMARK  status: ('A' for Active; 'I' for Inactive)
REMARK       I    between atoms: C_5  and  N_1 
REMARK    1  A    between atoms: N_3  and  C_8 
REMARK    2  A    between atoms: C_7  and  C_5 
REMARK    3  A    between atoms: C_11  and  C_7 
REMARK    4  A    between atoms: C_15  and  C_11 
ROOT
ATOM      1  N   UNL d   1      58.426  -0.512  30.025  0.00  0.00    -0.256 N 
ATOM      2  C   UNL d   1      58.175  -1.258  29.758  0.00  0.00     0.185 A 
ATOM      3  N   UNL d   1      58.674  -1.455  29.150  0.00  0.00    -0.224 NA
ATOM      4  C   UNL d   1      58.087  -0.066  30.650  0.00  0.00     0.266 C 
ATOM      5  C   UNL d   1      59.067  -0.287  29.570  0.00  0.00     0.086 A 
ATOM      6  C   UNL d   1      59.225  -0.868  29.025  0.00  0.00     0.099 A 
ATOM      7  O   UNL d   1      58.395   0.682  30.865  0.00  0.00    -0.267 OA
ATOM      8  C   UNL d   1      59.533   0.401  29.593  0.00  0.00     0.019 A 
ATOM      9  C   UNL d   1      59.840  -0.785  28.496  0.00  0.00     0.021 A 
ATOM     10  C   UNL d   1      60.167   0.501  29.059  0.00  0.00     0.002 A 
ATOM     11  C   UNL d   1      60.331  -0.112  28.487  0.00  0.00     0.002 A 
ENDROOT
BRANCH   4  12
ATOM     12  C   UNL d   1      57.442  -0.362  31.062  0.00  0.00     0.061 C 
BRANCH  12  13
ATOM     13  C   UNL d   1      57.114   0.083  31.673  0.00  0.00     0.005 C 
BRANCH  13  14
ATOM     14  C   UNL d   1      56.594  -0.281  32.199  0.00  0.00     0.002 A 
ATOM     15  C   UNL d   1      56.149   0.192  32.731  0.00  0.00     0.024 A 
ATOM     16  C   UNL d   1      55.635  -0.162  33.252  0.00  0.00     0.127 A 
ATOM     17  C   UNL d   1      55.549  -0.987  33.259  0.00  0.00     0.024 A 
ATOM     18  C   UNL d   1      55.988  -1.448  32.734  0.00  0.00     0.002 A 
ATOM     19  C   UNL d   1      56.514  -1.100  32.200  0.00  0.00     0.000 A 
BRANCH  16  20
ATOM     20  N   UNL d   1      55.184   0.271  33.787  0.00  0.00    -0.114 N 
ATOM     21  O   UNL d   1      54.366   0.376  33.649  0.00  0.00    -0.532 OA
ATOM     22  O   UNL d   1      55.529   0.596  34.448  0.00  0.00    -0.532 OA
ENDBRANCH  16  20
ENDBRANCH  13  14
ENDBRANCH  12  13
ENDBRANCH   4  12
TORSDOF 4
ENDMDL
MODEL 2
REMARK VINA RESULT:      -5.8      1.495      5.016
REMARK  4 active torsions:
REMARK  status: ('A' for Active; 'I' for Inactive)
REMARK       I    between atoms: C_5  and  N_1 
REMARK    1  A    between atoms: N_3  and  C_8 
REMARK    2  A    between atoms: C_7  and  C_5 
REMARK    3  A    between atoms: C_11  and  C_7 
REMARK    4  A    between atoms: C_15  and  C_11 
ROOT
ATOM      1  N   UNL d   1      56.714  -0.593  31.963  0.00  0.00    -0.256 N 
ATOM      2  C   UNL d   1      56.718  -1.418  32.059  0.00  0.00     0.185 A 
ATOM      3  N   UNL d   1      56.199  -1.575  32.662  0.00  0.00    -0.224 NA
ATOM      4  C   UNL d   1      57.161  -0.153  31.407  0.00  0.00     0.266 C 
ATOM      5  C   UNL d   1      56.192  -0.282  32.512  0.00  0.00     0.086 A 
ATOM      6  C   UNL d   1      55.871  -0.887  32.947  0.00  0.00     0.099 A 
ATOM      7  O   UNL d   1      57.105   0.682  31.368  0.00  0.00    -0.267 OA
ATOM      8  C   UNL d   1      55.972   0.505  32.663  0.00  0.00     0.019 A 
ATOM      9  C   UNL d   1      55.329  -0.731  33.537  0.00  0.00     0.021 A 
ATOM     10  C   UNL d   1      55.419   0.681  33.263  0.00  0.00     0.002 A 
ATOM     11  C   UNL d   1      55.082   0.043  33.720  0.00  0.00     0.002 A 
ENDROOT
BRANCH   4  12
ATOM     12  C   UNL d   1      57.664  -0.540  30.888  0.00  0.00     0.061 C 
BRANCH  12  13
ATOM     13  C   UNL d   1      57.921  -0.151  30.207  0.00  0.00     0.005 C 
BRANCH  13  14
ATOM     14  C   UNL d   1      58.538  -0.476  29.768  0.00  0.00     0.002 A 
ATOM     15  C   UNL d   1      59.278  -0.081  29.743  0.00  0.00     0.024 A 
ATOM     16  C   UNL d   1      59.890  -0.398  29.311  0.00  0.00     0.127 A 
ATOM     17  C   UNL d   1      59.785  -1.109  28.897  0.00  0.00     0.024 A 
ATOM     18  C   UNL d   1      59.056  -1.494  28.924  0.00  0.00     0.002 A 
ATOM     19  C   UNL d   1      58.426  -1.182  29.360  0.00  0.00     0.000 A 
BRANCH  16  20
ATOM     20  N   UNL d   1      60.628  -0.037  29.264  0.00  0.00    -0.114 N 
ATOM     21  O   UNL d   1      61.133  -0.041  29.930  0.00  0.00    -0.532 OA
ATOM     22  O   UNL d   1      60.867   0.322  28.574  0.00  0.00    -0.532 OA
ENDBRANCH  16  20
ENDBRANCH  13  14
ENDBRANCH  12  13
ENDBRANCH   4  12
TORSDOF 4
ENDMDL
