MODEL 1
REMARK VINA RESULT:     120.4      0.000      0.000
REMARK  5 active torsions:
REMARK  status: ('A' for Active; 'I' for Inactive)
REMARK    1  A    between atoms: N_10  and  C_3 
REMARK    2  A    between atoms: C_11  and  C_5 
REMARK    3  A    between atoms: C_15  and  C_9 
REMARK    4  A    between atoms: C_16  and  N_10 
REMARK       I    between atoms: C_12  and  N_13 
REMARK    5  A    between atoms: N_13  and  C_17 
ROOT
ATOM      1  C   UNL d   1     -56.684-100.166 -43.923  0.00  0.00     0.168 A 
ATOM      2  N   UNL d   1     -56.402-100.475 -43.221  0.00  0.00    -0.184 N 
ATOM      3  C   UNL d   1     -55.760-100.957 -43.237  0.00  0.00     0.218 A 
ATOM      4  N   UNL d   1     -57.417 -99.810 -42.521  0.00  0.00    -0.162 NA
ATOM      5  C   UNL d   1     -57.320 -99.688 -43.918  0.00  0.00     0.055 A 
ATOM      6  N   UNL d   1     -56.312-100.349 -44.614  0.00  0.00    -0.227 NA
ATOM      7  C   UNL d   1     -55.383-101.141 -43.955  0.00  0.00     0.071 A 
ATOM      8  C   UNL d   1     -57.698 -99.500 -43.222  0.00  0.00     0.104 A 
ATOM      9  C   UNL d   1     -55.673-100.829 -44.621  0.00  0.00     0.087 A 
ATOM     10  C   UNL d   1     -58.330 -99.024 -43.220  0.00  0.00     0.023 C 
ENDROOT
BRANCH   3  11
ATOM     11  N   UNL d   1     -55.468-101.277 -42.518  0.00  0.00    -0.383 NA
BRANCH  11  12
ATOM     12  C   UNL d   1     -55.279-101.587 -41.774  0.00  0.00     0.134 A 
ATOM     13  C   UNL d   1     -55.132-102.391 -41.675  0.00  0.00     0.034 A 
ATOM     14  C   UNL d   1     -54.940-102.698 -40.909  0.00  0.00     0.022 A 
ATOM     15  C   UNL d   1     -54.900-102.189 -40.254  0.00  0.00     0.085 A 
ATOM     16  C   UNL d   1     -55.049-101.372 -40.348  0.00  0.00     0.022 A 
ATOM     17  C   UNL d   1     -55.241-101.058 -41.108  0.00  0.00     0.034 A 
BRANCH  15  18
ATOM     18  N   UNL d   1     -54.711-102.488 -39.498  0.00  0.00    -0.208 NA
ATOM     19  C   UNL d   1     -55.253-102.426 -38.879  0.00  0.00     0.279 C 
ATOM     20  O   UNL d   1     -55.064-102.724 -38.126  0.00  0.00    -0.265 OA
ATOM     21  C   UNL d   1     -55.994-102.064 -39.005  0.00  0.00     0.068 C 
ENDBRANCH  15  18
ENDBRANCH  11  12
ENDBRANCH   3  11
BRANCH   9  22
ATOM     22  C   UNL d   1     -55.286-101.018 -45.352  0.00  0.00     0.018 C 
ATOM     23  C   UNL d   1     -54.804-100.429 -45.733  0.00  0.00     0.002 C 
ATOM     24  C   UNL d   1     -55.379-101.784 -45.696  0.00  0.00     0.002 C 
ENDBRANCH   9  22
BRANCH   5  25
ATOM     25  C   UNL d   1     -57.604 -99.374 -44.627  0.00  0.00     0.004 A 
ATOM     26  C   UNL d   1     -58.397 -99.351 -44.765  0.00  0.00     0.000 A 
ATOM     27  C   UNL d   1     -58.677 -99.043 -45.463  0.00  0.00     0.000 A 
ATOM     28  C   UNL d   1     -58.159 -98.764 -46.009  0.00  0.00     0.000 A 
ATOM     29  C   UNL d   1     -57.360 -98.789 -45.865  0.00  0.00     0.000 A 
ATOM     30  C   UNL d   1     -57.091 -99.095 -45.175  0.00  0.00     0.000 A 
ENDBRANCH   5  25
TORSDOF 5
ENDMDL
