MODEL 1
REMARK VINA RESULT:      22.0      0.000      0.000
REMARK  3 active torsions:
REMARK  status: ('A' for Active; 'I' for Inactive)
REMARK    1  A    between atoms: C_4  and  C_1 
REMARK    2  A    between atoms: N_2  and  C_3 
REMARK    3  A    between atoms: C_5  and  N_2 
ROOT
ATOM      1  C   UNL d   1      60.072  49.591  50.747  0.00  0.00     0.082 A 
ATOM      2  C   UNL d   1      59.243  49.594  50.849  0.00  0.00     0.087 A 
ATOM      3  C   UNL d   1      60.568  49.626  51.401  0.00  0.00     0.008 A 
ATOM      4  C   UNL d   1      58.930  49.632  51.611  0.00  0.00     0.019 A 
ATOM      5  C   UNL d   1      60.245  49.665  52.169  0.00  0.00     0.000 A 
ATOM      6  C   UNL d   1      59.425  49.667  52.265  0.00  0.00     0.002 A 
ENDROOT
BRANCH   2   7
ATOM      7  N   UNL d   1      58.748  49.558  50.196  0.00  0.00    -0.245 NA
BRANCH   7   8
ATOM      8  C   UNL d   1      57.922  49.579  50.281  0.00  0.00     0.081 A 
ATOM      9  C   UNL d   1      57.431  49.631  49.631  0.00  0.00     0.018 A 
ATOM     10  C   UNL d   1      56.609  49.651  49.721  0.00  0.00     0.002 A 
ATOM     11  C   UNL d   1      57.761  49.664  48.888  0.00  0.00     0.002 C 
ATOM     12  C   UNL d   1      56.122  49.703  49.075  0.00  0.00     0.000 C 
ATOM     13  C   UNL d   1      56.291  49.616  50.490  0.00  0.00     0.000 A 
ATOM     14  C   UNL d   1      56.782  49.564  51.140  0.00  0.00     0.002 A 
ATOM     15  C   UNL d   1      57.613  49.544  51.051  0.00  0.00     0.019 A 
ENDBRANCH   7   8
ENDBRANCH   2   7
BRANCH   1  16
ATOM     16  C   UNL d   1      60.386  49.552  49.985  0.00  0.00     0.212 C 
ATOM     17  O   UNL d   1      61.197  49.589  49.866  0.00  0.00    -0.644 OA
ATOM     18  O   UNL d   1      59.893  49.476  49.336  0.00  0.00    -0.644 OA
ENDBRANCH   1  16
TORSDOF 3
ENDMDL
