MODEL 1
REMARK VINA RESULT:      -8.5      0.000      0.000
REMARK  4 active torsions:
REMARK  status: ('A' for Active; 'I' for Inactive)
REMARK    1  A    between atoms: N_6  and  S_1 
REMARK    2  A    between atoms: C_10  and  S_1 
REMARK    3  A    between atoms: S_2  and  C_11 
REMARK    4  A    between atoms: N_7  and  S_2 
REMARK       I    between atoms: C_14  and  N_6 
REMARK       I    between atoms: C_15  and  N_7 
ROOT
ATOM      1  C   UNL d   1      48.804  35.122  52.324  0.00  0.00     0.040 A 
ATOM      2  C   UNL d   1      49.999  34.756  52.776  0.00  0.00     0.040 A 
ATOM      3  C   UNL d   1      49.298  35.146  52.975  0.00  0.00     0.196 A 
ATOM      4  C   UNL d   1      49.925  34.496  52.000  0.00  0.00     0.003 A 
ATOM      5  C   UNL d   1      49.193  34.719  51.718  0.00  0.00     0.003 A 
ATOM      6  C   UNL d   1      47.669  35.309  51.469  0.00  0.00     0.105 A 
ATOM      7  C   UNL d   1      51.298  34.198  52.846  0.00  0.00     0.105 A 
ATOM      8  C   UNL d   1      48.031  35.420  52.195  0.00  0.00     0.016 A 
ATOM      9  C   UNL d   1      50.690  34.608  53.206  0.00  0.00     0.016 A 
ATOM     10  C   UNL d   1      50.544  34.084  51.644  0.00  0.00     0.001 A 
ATOM     11  C   UNL d   1      48.821  34.609  50.985  0.00  0.00     0.001 A 
ATOM     12  O   UNL d   1      49.136  35.495  53.708  0.00  0.00    -0.287 OA
ATOM     13  C   UNL d   1      51.237  33.933  52.068  0.00  0.00     0.013 A 
ATOM     14  C   UNL d   1      48.055  34.905  50.859  0.00  0.00     0.013 A 
ENDROOT
BRANCH   6  15
ATOM     15  S   UNL d   1      46.909  35.601  51.337  0.00  0.00     0.288 S 
ATOM     16  O   UNL d   1      47.115  36.294  51.738  0.00  0.00    -0.198 OA
ATOM     17  O   UNL d   1      46.692  34.911  50.933  0.00  0.00    -0.198 OA
BRANCH  15  18
ATOM     18  N   UNL d   1      46.138  35.913  51.211  0.00  0.00    -0.118 NA
ATOM     19  C   UNL d   1      45.493  35.580  51.606  0.00  0.00     0.289 C 
ATOM     20  O   UNL d   1      45.608  34.939  52.125  0.00  0.00    -0.265 OA
ATOM     21  C   UNL d   1      44.745  35.877  51.488  0.00  0.00     0.068 C 
ENDBRANCH  15  18
ENDBRANCH   6  15
BRANCH   7  22
ATOM     22  S   UNL d   1      51.989  34.050  53.276  0.00  0.00     0.288 S 
ATOM     23  O   UNL d   1      52.362  34.667  52.874  0.00  0.00    -0.198 OA
ATOM     24  O   UNL d   1      51.616  33.433  53.679  0.00  0.00    -0.198 OA
BRANCH  22  25
ATOM     25  N   UNL d   1      52.648  33.852  53.739  0.00  0.00    -0.118 NA
ATOM     26  C   UNL d   1      53.068  34.442  54.129  0.00  0.00     0.289 C 
ATOM     27  O   UNL d   1      53.726  34.239  54.590  0.00  0.00    -0.265 OA
ATOM     28  C   UNL d   1      52.839  35.227  54.064  0.00  0.00     0.068 C 
ENDBRANCH  22  25
ENDBRANCH   7  22
TORSDOF 4
ENDMDL
MODEL 2
REMARK VINA RESULT:      -8.4      0.812      5.415
REMARK  4 active torsions:
REMARK  status: ('A' for Active; 'I' for Inactive)
REMARK    1  A    between atoms: N_6  and  S_1 
REMARK    2  A    between atoms: C_10  and  S_1 
REMARK    3  A    between atoms: S_2  and  C_11 
REMARK    4  A    between atoms: N_7  and  S_2 
REMARK       I    between atoms: C_14  and  N_6 
REMARK       I    between atoms: C_15  and  N_7 
ROOT
ATOM      1  C   UNL d   1      49.874  34.766  52.743  0.00  0.00     0.040 A 
ATOM      2  C   UNL d   1      48.679  35.218  52.377  0.00  0.00     0.040 A 
ATOM      3  C   UNL d   1      49.225  35.192  52.997  0.00  0.00     0.196 A 
ATOM      4  C   UNL d   1      49.003  34.803  51.746  0.00  0.00     0.003 A 
ATOM      5  C   UNL d   1      49.737  34.524  51.966  0.00  0.00     0.003 A 
ATOM      6  C   UNL d   1      51.152  34.117  52.717  0.00  0.00     0.105 A 
ATOM      7  C   UNL d   1      47.520  35.491  51.612  0.00  0.00     0.105 A 
ATOM      8  C   UNL d   1      50.593  34.558  53.121  0.00  0.00     0.016 A 
ATOM      9  C   UNL d   1      47.931  35.566  52.314  0.00  0.00     0.016 A 
ATOM     10  C   UNL d   1      48.581  34.733  51.042  0.00  0.00     0.001 A 
ATOM     11  C   UNL d   1      50.307  34.077  51.561  0.00  0.00     0.001 A 
ATOM     12  O   UNL d   1      49.122  35.541  53.741  0.00  0.00    -0.287 OA
ATOM     13  C   UNL d   1      47.834  35.078  50.971  0.00  0.00     0.013 A 
ATOM     14  C   UNL d   1      51.018  33.873  51.938  0.00  0.00     0.013 A 
ENDROOT
BRANCH   6  15
ATOM     15  S   UNL d   1      51.861  33.910  53.085  0.00  0.00     0.288 S 
ATOM     16  O   UNL d   1      52.244  34.510  52.665  0.00  0.00    -0.198 OA
ATOM     17  O   UNL d   1      51.486  33.306  53.512  0.00  0.00    -0.198 OA
BRANCH  15  18
ATOM     18  N   UNL d   1      52.592  33.711  53.452  0.00  0.00    -0.118 NA
ATOM     19  C   UNL d   1      52.996  33.032  53.214  0.00  0.00     0.289 C 
ATOM     20  O   UNL d   1      52.681  32.547  52.615  0.00  0.00    -0.265 OA
ATOM     21  C   UNL d   1      53.703  32.834  53.564  0.00  0.00     0.068 C 
ENDBRANCH  15  18
ENDBRANCH   6  15
BRANCH   7  22
ATOM     22  S   UNL d   1      46.773  35.839  51.548  0.00  0.00     0.288 S 
ATOM     23  O   UNL d   1      46.456  35.104  51.346  0.00  0.00    -0.198 OA
ATOM     24  O   UNL d   1      47.089  36.576  51.751  0.00  0.00    -0.198 OA
BRANCH  22  25
ATOM     25  N   UNL d   1      46.052  36.248  51.502  0.00  0.00    -0.118 NA
ATOM     26  C   UNL d   1      45.429  36.038  51.995  0.00  0.00     0.289 C 
ATOM     27  O   UNL d   1      44.711  36.448  51.946  0.00  0.00    -0.265 OA
ATOM     28  C   UNL d   1      45.515  35.426  52.535  0.00  0.00     0.068 C 
ENDBRANCH  22  25
ENDBRANCH   7  22
TORSDOF 4
ENDMDL
MODEL 3
REMARK VINA RESULT:      -6.9      2.757      6.060
REMARK  4 active torsions:
REMARK  status: ('A' for Active; 'I' for Inactive)
REMARK    1  A    between atoms: N_6  and  S_1 
REMARK    2  A    between atoms: C_10  and  S_1 
REMARK    3  A    between atoms: S_2  and  C_11 
REMARK    4  A    between atoms: N_7  and  S_2 
REMARK       I    between atoms: C_14  and  N_6 
REMARK       I    between atoms: C_15  and  N_7 
ROOT
ATOM      1  C   UNL d   1      51.846  32.039  53.237  0.00  0.00     0.040 A 
ATOM      2  C   UNL d   1      50.999  33.034  52.995  0.00  0.00     0.040 A 
ATOM      3  C   UNL d   1      51.054  32.236  53.203  0.00  0.00     0.196 A 
ATOM      4  C   UNL d   1      51.765  33.318  52.904  0.00  0.00     0.003 A 
ATOM      5  C   UNL d   1      52.289  32.711  53.051  0.00  0.00     0.003 A 
ATOM      6  C   UNL d   1      53.057  31.290  53.406  0.00  0.00     0.105 A 
ATOM      7  C   UNL d   1      50.480  34.311  52.672  0.00  0.00     0.105 A 
ATOM      8  C   UNL d   1      52.240  31.320  53.416  0.00  0.00     0.016 A 
ATOM      9  C   UNL d   1      50.349  33.531  52.879  0.00  0.00     0.016 A 
ATOM     10  C   UNL d   1      51.888  34.106  52.695  0.00  0.00     0.001 A 
ATOM     11  C   UNL d   1      53.117  32.675  53.042  0.00  0.00     0.001 A 
ATOM     12  O   UNL d   1      50.412  31.734  53.348  0.00  0.00    -0.287 OA
ATOM     13  C   UNL d   1      51.243  34.608  52.578  0.00  0.00     0.013 A 
ATOM     14  C   UNL d   1      53.504  31.962  53.220  0.00  0.00     0.013 A 
ENDROOT
BRANCH   6  15
ATOM     15  S   UNL d   1      53.448  30.586  53.582  0.00  0.00     0.288 S 
ATOM     16  O   UNL d   1      53.195  30.275  52.859  0.00  0.00    -0.198 OA
ATOM     17  O   UNL d   1      53.708  30.887  54.309  0.00  0.00    -0.198 OA
BRANCH  15  18
ATOM     18  N   UNL d   1      53.841  29.860  53.746  0.00  0.00    -0.118 NA
ATOM     19  C   UNL d   1      53.473  29.295  54.222  0.00  0.00     0.289 C 
ATOM     20  O   UNL d   1      52.717  29.445  54.538  0.00  0.00    -0.265 OA
ATOM     21  C   UNL d   1      53.848  28.592  54.385  0.00  0.00     0.068 C 
ENDBRANCH  15  18
ENDBRANCH   6  15
BRANCH   7  22
ATOM     22  S   UNL d   1      49.829  34.808  52.557  0.00  0.00     0.288 S 
ATOM     23  O   UNL d   1      49.898  34.695  51.742  0.00  0.00    -0.198 OA
ATOM     24  O   UNL d   1      49.760  34.921  53.372  0.00  0.00    -0.198 OA
BRANCH  22  25
ATOM     25  N   UNL d   1      49.173  35.313  52.508  0.00  0.00    -0.118 NA
ATOM     26  C   UNL d   1      48.601  35.188  51.932  0.00  0.00     0.289 C 
ATOM     27  O   UNL d   1      47.947  35.695  51.886  0.00  0.00    -0.265 OA
ATOM     28  C   UNL d   1      48.674  34.565  51.402  0.00  0.00     0.068 C 
ENDBRANCH  22  25
ENDBRANCH   7  22
TORSDOF 4
ENDMDL
MODEL 4
REMARK VINA RESULT:      -6.7      2.784      3.847
REMARK  4 active torsions:
REMARK  status: ('A' for Active; 'I' for Inactive)
REMARK    1  A    between atoms: N_6  and  S_1 
REMARK    2  A    between atoms: C_10  and  S_1 
REMARK    3  A    between atoms: S_2  and  C_11 
REMARK    4  A    between atoms: N_7  and  S_2 
REMARK       I    between atoms: C_14  and  N_6 
REMARK       I    between atoms: C_15  and  N_7 
ROOT
ATOM      1  C   UNL d   1      51.050  33.050  53.047  0.00  0.00     0.040 A 
ATOM      2  C   UNL d   1      51.864  32.018  53.248  0.00  0.00     0.040 A 
ATOM      3  C   UNL d   1      51.071  32.250  53.214  0.00  0.00     0.196 A 
ATOM      4  C   UNL d   1      52.321  32.684  53.101  0.00  0.00     0.003 A 
ATOM      5  C   UNL d   1      51.827  33.321  52.977  0.00  0.00     0.003 A 
ATOM      6  C   UNL d   1      50.567  34.373  52.780  0.00  0.00     0.105 A 
ATOM      7  C   UNL d   1      53.035  31.236  53.390  0.00  0.00     0.105 A 
ATOM      8  C   UNL d   1      50.413  33.587  52.947  0.00  0.00     0.016 A 
ATOM      9  C   UNL d   1      52.219  31.286  53.394  0.00  0.00     0.016 A 
ATOM     10  C   UNL d   1      53.144  32.625  53.099  0.00  0.00     0.001 A 
ATOM     11  C   UNL d   1      51.976  34.119  52.808  0.00  0.00     0.001 A 
ATOM     12  O   UNL d   1      50.421  31.751  53.330  0.00  0.00    -0.287 OA
ATOM     13  C   UNL d   1      53.506  31.897  53.244  0.00  0.00     0.013 A 
ATOM     14  C   UNL d   1      51.344  34.648  52.709  0.00  0.00     0.013 A 
ENDROOT
BRANCH   6  15
ATOM     15  S   UNL d   1      49.944  34.904  52.680  0.00  0.00     0.288 S 
ATOM     16  O   UNL d   1      49.714  34.493  52.000  0.00  0.00    -0.198 OA
ATOM     17  O   UNL d   1      50.165  35.323  53.360  0.00  0.00    -0.198 OA
BRANCH  15  18
ATOM     18  N   UNL d   1      49.303  35.437  52.564  0.00  0.00    -0.118 NA
ATOM     19  C   UNL d   1      48.757  35.557  53.171  0.00  0.00     0.289 C 
ATOM     20  O   UNL d   1      48.841  35.152  53.894  0.00  0.00    -0.265 OA
ATOM     21  C   UNL d   1      48.135  36.071  53.066  0.00  0.00     0.068 C 
ENDBRANCH  15  18
ENDBRANCH   6  15
BRANCH   7  22
ATOM     22  S   UNL d   1      53.390  30.504  53.537  0.00  0.00     0.288 S 
ATOM     23  O   UNL d   1      53.697  30.803  54.242  0.00  0.00    -0.198 OA
ATOM     24  O   UNL d   1      53.083  30.203  52.831  0.00  0.00    -0.198 OA
BRANCH  22  25
ATOM     25  N   UNL d   1      53.720  29.748  53.625  0.00  0.00    -0.118 NA
ATOM     26  C   UNL d   1      53.488  29.271  54.253  0.00  0.00     0.289 C 
ATOM     27  O   UNL d   1      53.820  28.516  54.338  0.00  0.00    -0.265 OA
ATOM     28  C   UNL d   1      52.932  29.537  54.795  0.00  0.00     0.068 C 
ENDBRANCH  22  25
ENDBRANCH   7  22
TORSDOF 4
ENDMDL
MODEL 5
REMARK VINA RESULT:      -6.0      4.269      6.528
REMARK  4 active torsions:
REMARK  status: ('A' for Active; 'I' for Inactive)
REMARK    1  A    between atoms: N_6  and  S_1 
REMARK    2  A    between atoms: C_10  and  S_1 
REMARK    3  A    between atoms: S_2  and  C_11 
REMARK    4  A    between atoms: N_7  and  S_2 
REMARK       I    between atoms: C_14  and  N_6 
REMARK       I    between atoms: C_15  and  N_7 
ROOT
ATOM      1  C   UNL d   1      53.297  31.380  54.013  0.00  0.00     0.040 A 
ATOM      2  C   UNL d   1      53.177  32.703  53.972  0.00  0.00     0.040 A 
ATOM      3  C   UNL d   1      53.457  32.069  54.423  0.00  0.00     0.196 A 
ATOM      4  C   UNL d   1      52.847  32.391  53.287  0.00  0.00     0.003 A 
ATOM      5  C   UNL d   1      52.918  31.579  53.308  0.00  0.00     0.003 A 
ATOM      6  C   UNL d   1      53.219  29.992  53.661  0.00  0.00     0.105 A 
ATOM      7  C   UNL d   1      52.857  34.012  53.540  0.00  0.00     0.105 A 
ATOM      8  C   UNL d   1      53.448  30.573  54.189  0.00  0.00     0.016 A 
ATOM      9  C   UNL d   1      53.184  33.519  54.103  0.00  0.00     0.016 A 
ATOM     10  C   UNL d   1      52.519  32.896  52.724  0.00  0.00     0.001 A 
ATOM     11  C   UNL d   1      52.688  30.986  52.776  0.00  0.00     0.001 A 
ATOM     12  O   UNL d   1      53.832  32.132  55.158  0.00  0.00    -0.287 OA
ATOM     13  C   UNL d   1      52.523  33.712  52.848  0.00  0.00     0.013 A 
ATOM     14  C   UNL d   1      52.839  30.189  52.953  0.00  0.00     0.013 A 
ENDROOT
BRANCH   6  15
ATOM     15  S   UNL d   1      53.365  29.198  53.830  0.00  0.00     0.288 S 
ATOM     16  O   UNL d   1      52.550  29.066  53.868  0.00  0.00    -0.198 OA
ATOM     17  O   UNL d   1      54.184  29.320  53.794  0.00  0.00    -0.198 OA
BRANCH  15  18
ATOM     18  N   UNL d   1      53.497  28.386  54.003  0.00  0.00    -0.118 NA
ATOM     19  C   UNL d   1      53.490  28.129  54.788  0.00  0.00     0.289 C 
ATOM     20  O   UNL d   1      53.353  28.674  55.403  0.00  0.00    -0.265 OA
ATOM     21  C   UNL d   1      53.616  27.345  54.963  0.00  0.00     0.068 C 
ENDBRANCH  15  18
ENDBRANCH   6  15
BRANCH   7  22
ATOM     22  S   UNL d   1      52.864  34.828  53.672  0.00  0.00     0.288 S 
ATOM     23  O   UNL d   1      52.143  34.891  53.275  0.00  0.00    -0.198 OA
ATOM     24  O   UNL d   1      53.586  34.767  54.069  0.00  0.00    -0.198 OA
BRANCH  22  25
ATOM     25  N   UNL d   1      52.931  35.639  53.836  0.00  0.00    -0.118 NA
ATOM     26  C   UNL d   1      52.959  35.898  54.616  0.00  0.00     0.289 C 
ATOM     27  O   UNL d   1      53.025  36.708  54.776  0.00  0.00    -0.265 OA
ATOM     28  C   UNL d   1      52.921  35.360  55.234  0.00  0.00     0.068 C 
ENDBRANCH  22  25
ENDBRANCH   7  22
TORSDOF 4
ENDMDL
MODEL 6
REMARK VINA RESULT:      -6.0      4.349      5.986
REMARK  4 active torsions:
REMARK  status: ('A' for Active; 'I' for Inactive)
REMARK    1  A    between atoms: N_6  and  S_1 
REMARK    2  A    between atoms: C_10  and  S_1 
REMARK    3  A    between atoms: S_2  and  C_11 
REMARK    4  A    between atoms: N_7  and  S_2 
REMARK       I    between atoms: C_14  and  N_6 
REMARK       I    between atoms: C_15  and  N_7 
ROOT
ATOM      1  C   UNL d   1      53.225  32.638  54.034  0.00  0.00     0.040 A 
ATOM      2  C   UNL d   1      53.326  31.313  54.032  0.00  0.00     0.040 A 
ATOM      3  C   UNL d   1      53.533  32.001  54.442  0.00  0.00     0.196 A 
ATOM      4  C   UNL d   1      52.890  31.541  53.374  0.00  0.00     0.003 A 
ATOM      5  C   UNL d   1      52.825  32.353  53.370  0.00  0.00     0.003 A 
ATOM      6  C   UNL d   1      52.883  33.980  53.661  0.00  0.00     0.105 A 
ATOM      7  C   UNL d   1      53.195  29.954  53.659  0.00  0.00     0.105 A 
ATOM      8  C   UNL d   1      53.252  33.465  54.179  0.00  0.00     0.016 A 
ATOM      9  C   UNL d   1      53.482  30.515  54.179  0.00  0.00     0.016 A 
ATOM     10  C   UNL d   1      52.604  30.969  52.853  0.00  0.00     0.001 A 
ATOM     11  C   UNL d   1      52.453  32.881  52.849  0.00  0.00     0.001 A 
ATOM     12  O   UNL d   1      53.976  32.027  55.141  0.00  0.00    -0.287 OA
ATOM     13  C   UNL d   1      52.756  30.169  52.994  0.00  0.00     0.013 A 
ATOM     14  C   UNL d   1      52.482  33.698  52.995  0.00  0.00     0.013 A 
ENDROOT
BRANCH   6  15
ATOM     15  S   UNL d   1      52.907  34.793  53.799  0.00  0.00     0.288 S 
ATOM     16  O   UNL d   1      53.627  34.831  53.393  0.00  0.00    -0.198 OA
ATOM     17  O   UNL d   1      52.187  34.766  54.208  0.00  0.00    -0.198 OA
BRANCH  15  18
ATOM     18  N   UNL d   1      52.948  35.623  53.931  0.00  0.00    -0.118 NA
ATOM     19  C   UNL d   1      53.108  35.908  54.690  0.00  0.00     0.289 C 
ATOM     20  O   UNL d   1      53.229  35.375  55.319  0.00  0.00    -0.265 OA
ATOM     21  C   UNL d   1      53.148  36.709  54.825  0.00  0.00     0.068 C 
ENDBRANCH  15  18
ENDBRANCH   6  15
BRANCH   7  22
ATOM     22  S   UNL d   1      53.351  29.156  53.806  0.00  0.00     0.288 S 
ATOM     23  O   UNL d   1      54.029  29.210  53.338  0.00  0.00    -0.198 OA
ATOM     24  O   UNL d   1      52.672  29.101  54.275  0.00  0.00    -0.198 OA
BRANCH  22  25
ATOM     25  N   UNL d   1      53.451  28.353  53.992  0.00  0.00    -0.118 NA
ATOM     26  C   UNL d   1      53.459  28.113  54.778  0.00  0.00     0.289 C 
ATOM     27  O   UNL d   1      53.559  27.311  54.960  0.00  0.00    -0.265 OA
ATOM     28  C   UNL d   1      53.369  28.662  55.382  0.00  0.00     0.068 C 
ENDBRANCH  22  25
ENDBRANCH   7  22
TORSDOF 4
ENDMDL
