MODEL 1
REMARK VINA RESULT:      39.8      0.000      0.000
REMARK  5 active torsions:
REMARK  status: ('A' for Active; 'I' for Inactive)
REMARK    1  A    between atoms: N_2  and  C_1 
REMARK    2  A    between atoms: C_8  and  C_5 
REMARK    3  A    between atoms: C_6  and  C_9 
REMARK       I    between atoms: N_12  and  C_6 
REMARK    4  A    between atoms: C_9  and  C_8 
REMARK    5  A    between atoms: C_14  and  N_12 
ROOT
ATOM      1  C   UNL d   1      59.675  49.607  50.677  0.00  0.00     0.279 C 
ATOM      2  N   UNL d   1      58.984  49.608  51.117  0.00  0.00    -0.208 NA
ATOM      3  O   UNL d   1      59.641  49.630  49.857  0.00  0.00    -0.265 OA
ENDROOT
BRANCH   1   4
ATOM      4  C   UNL d   1      60.412  49.582  51.061  0.00  0.00     0.063 C 
BRANCH   4   5
ATOM      5  C   UNL d   1      61.080  49.306  50.663  0.00  0.00     0.011 C 
BRANCH   5   6
ATOM      6  C   UNL d   1      61.261  48.480  50.655  0.00  0.00     0.031 A 
ATOM      7  S   UNL d   1      61.514  47.979  50.051  0.00  0.00    -0.064 SA
ATOM      8  C   UNL d   1      61.599  47.233  50.373  0.00  0.00     0.156 A 
ATOM      9  C   UNL d   1      61.404  47.251  51.168  0.00  0.00     0.031 A 
ATOM     10  C   UNL d   1      61.191  48.039  51.344  0.00  0.00     0.009 A 
BRANCH   8  11
ATOM     11  N   UNL d   1      61.846  46.566  49.945  0.00  0.00    -0.107 N 
ATOM     12  O   UNL d   1      62.525  46.583  49.480  0.00  0.00    -0.531 OA
ATOM     13  O   UNL d   1      61.391  45.875  49.994  0.00  0.00    -0.531 OA
ENDBRANCH   8  11
ENDBRANCH   5   6
ENDBRANCH   4   5
ENDBRANCH   1   4
BRANCH   2  14
ATOM     14  C   UNL d   1      58.248  49.633  50.734  0.00  0.00     0.085 A 
ATOM     15  C   UNL d   1      58.215  49.666  49.903  0.00  0.00     0.019 A 
ATOM     16  C   UNL d   1      57.505  49.691  49.508  0.00  0.00     0.002 A 
ATOM     17  C   UNL d   1      56.791  49.682  49.975  0.00  0.00     0.000 A 
ATOM     18  C   UNL d   1      56.833  49.650  50.796  0.00  0.00     0.002 A 
ATOM     19  C   UNL d   1      56.045  49.707  49.611  0.00  0.00     0.000 C 
ATOM     20  C   UNL d   1      57.553  49.625  51.171  0.00  0.00     0.019 A 
ENDBRANCH   2  14
TORSDOF 5
ENDMDL
