MODEL 1
REMARK VINA RESULT:      93.3      0.000      0.000
REMARK  3 active torsions:
REMARK  status: ('A' for Active; 'I' for Inactive)
REMARK    1  A    between atoms: C_7  and  C_1 
REMARK    2  A    between atoms: C_12  and  C_6 
REMARK       I    between atoms: N_10  and  C_7 
REMARK    3  A    between atoms: C_13  and  N_10 
ROOT
ATOM      1  C   UNL d   1      58.986  49.508  53.516  0.00  0.00     0.108 A 
ATOM      2  C   UNL d   1      59.362  49.430  52.255  0.00  0.00     0.046 A 
ATOM      3  C   UNL d   1      58.715  49.374  52.755  0.00  0.00     0.116 A 
ATOM      4  C   UNL d   1      60.019  49.600  52.724  0.00  0.00     0.112 A 
ATOM      5  S   UNL d   1      59.766  49.645  53.505  0.00  0.00    -0.061 SA
ATOM      6  C   UNL d   1      59.448  49.352  51.441  0.00  0.00     0.028 A 
ATOM      7  N   UNL d   1      60.766  49.692  52.382  0.00  0.00    -0.239 NA
ATOM      8  C   UNL d   1      60.191  49.443  51.089  0.00  0.00     0.020 A 
ATOM      9  C   UNL d   1      60.848  49.612  51.558  0.00  0.00     0.082 A 
ATOM     10  N   UNL d   1      57.930  49.211  52.538  0.00  0.00    -0.147 N 
ATOM     11  C   UNL d   1      60.277  49.365  50.275  0.00  0.00     0.002 A 
ATOM     12  C   UNL d   1      61.596  49.705  51.216  0.00  0.00     0.019 A 
ATOM     13  C   UNL d   1      61.023  49.456  49.919  0.00  0.00     0.000 A 
ATOM     14  C   UNL d   1      61.680  49.625  50.388  0.00  0.00     0.002 A 
ENDROOT
BRANCH   1  15
ATOM     15  C   UNL d   1      58.538  49.509  54.209  0.00  0.00     0.287 C 
ATOM     16  N   UNL d   1      57.728  49.625  54.190  0.00  0.00    -0.208 NA
ATOM     17  O   UNL d   1      58.922  49.388  54.936  0.00  0.00    -0.265 OA
BRANCH  16  18
ATOM     18  C   UNL d   1      57.294  49.623  54.886  0.00  0.00     0.085 A 
ATOM     19  C   UNL d   1      56.469  49.555  54.862  0.00  0.00     0.018 A 
ATOM     20  C   UNL d   1      56.040  49.488  54.190  0.00  0.00     0.002 C 
ATOM     21  C   UNL d   1      56.043  49.555  55.580  0.00  0.00     0.002 A 
ATOM     22  C   UNL d   1      56.437  49.622  56.312  0.00  0.00     0.000 A 
ATOM     23  C   UNL d   1      57.259  49.689  56.313  0.00  0.00     0.002 A 
ATOM     24  C   UNL d   1      57.689  49.690  55.608  0.00  0.00     0.019 A 
ENDBRANCH  16  18
ENDBRANCH   1  15
BRANCH   6  25
ATOM     25  C   UNL d   1      58.795  49.184  50.974  0.00  0.00     0.100 A 
ATOM     26  O   UNL d   1      58.294  49.701  50.578  0.00  0.00    -0.305 OA
ATOM     27  C   UNL d   1      57.724  49.247  50.189  0.00  0.00     0.123 A 
ATOM     28  C   UNL d   1      57.867  48.477  50.340  0.00  0.00     0.029 A 
ATOM     29  C   UNL d   1      58.522  48.419  50.821  0.00  0.00     0.027 A 
ENDBRANCH   6  25
TORSDOF 3
ENDMDL
