MODEL 1
REMARK VINA RESULT:      34.6      0.000      0.000
REMARK  3 active torsions:
REMARK  status: ('A' for Active; 'I' for Inactive)
REMARK    1  A    between atoms: C_9  and  N_1 
REMARK       I    between atoms: C_8  and  N_2 
REMARK    2  A    between atoms: C_3  and  C_9 
REMARK    3  A    between atoms: C_13  and  C_8 
ROOT
ATOM      1  N   UNL d   1      45.526 -14.769  44.179  0.00  0.00    -0.194 N 
ATOM      2  C   UNL d   1      45.563 -16.093  44.362  0.00  0.00     0.055 A 
ATOM      3  N   UNL d   1      44.861 -15.106  43.796  0.00  0.00    -0.163 NA
ATOM      4  C   UNL d   1      45.947 -15.381  44.521  0.00  0.00     0.089 A 
ATOM      5  C   UNL d   1      45.708 -13.967  44.199  0.00  0.00     0.286 C 
ATOM      6  C   UNL d   1      44.894 -15.925  43.916  0.00  0.00     0.104 A 
ATOM      7  O   UNL d   1      46.392 -13.720  44.604  0.00  0.00    -0.265 OA
ATOM      8  C   UNL d   1      46.646 -15.290  44.954  0.00  0.00     0.021 C 
ATOM      9  C   UNL d   1      44.343 -16.473  43.631  0.00  0.00     0.023 C 
ENDROOT
BRANCH   2  10
ATOM     10  C   UNL d   1      45.813 -16.848  44.612  0.00  0.00     0.089 C 
BRANCH  10  11
ATOM     11  N   UNL d   1      46.009 -17.426  44.054  0.00  0.00    -0.240 N 
ATOM     12  C   UNL d   1      46.124 -17.300  43.254  0.00  0.00     0.267 A 
ATOM     13  C   UNL d   1      46.309 -18.032  42.914  0.00  0.00     0.061 A 
ATOM     14  O   UNL d   1      46.067 -16.577  42.861  0.00  0.00    -0.267 OA
ATOM     15  C   UNL d   1      46.479 -18.242  42.137  0.00  0.00     0.005 A 
ATOM     16  C   UNL d   1      46.307 -18.602  43.501  0.00  0.00     0.061 A 
ATOM     17  C   UNL d   1      46.646 -19.025  41.948  0.00  0.00     0.000 A 
ATOM     18  C   UNL d   1      46.645 -19.602  42.539  0.00  0.00     0.000 A 
ATOM     19  C   UNL d   1      46.475 -19.392  43.317  0.00  0.00     0.005 A 
ATOM     20  C   UNL d   1      46.121 -18.233  44.216  0.00  0.00     0.267 A 
ATOM     21  O   UNL d   1      46.058 -18.602  44.954  0.00  0.00    -0.267 OA
ENDBRANCH  10  11
ENDBRANCH   2  10
BRANCH   5  22
ATOM     22  C   UNL d   1      45.218 -13.424  43.821  0.00  0.00     0.087 A 
ATOM     23  S   UNL d   1      45.449 -12.893  43.233  0.00  0.00    -0.082 SA
ATOM     24  C   UNL d   1      44.784 -12.456  43.014  0.00  0.00     0.036 A 
ATOM     25  C   UNL d   1      44.150 -12.713  43.459  0.00  0.00     0.008 A 
ATOM     26  C   UNL d   1      44.417 -13.315  43.963  0.00  0.00     0.012 A 
ENDBRANCH   5  22
TORSDOF 3
ENDMDL
MODEL 2
REMARK VINA RESULT:      35.1      1.416      4.624
REMARK  3 active torsions:
REMARK  status: ('A' for Active; 'I' for Inactive)
REMARK    1  A    between atoms: C_9  and  N_1 
REMARK       I    between atoms: C_8  and  N_2 
REMARK    2  A    between atoms: C_3  and  C_9 
REMARK    3  A    between atoms: C_13  and  C_8 
ROOT
ATOM      1  N   UNL d   1      46.001 -17.388  43.580  0.00  0.00    -0.194 N 
ATOM      2  C   UNL d   1      46.008 -16.154  44.094  0.00  0.00     0.055 A 
ATOM      3  N   UNL d   1      46.289 -16.860  42.995  0.00  0.00    -0.163 NA
ATOM      4  C   UNL d   1      45.833 -16.944  44.246  0.00  0.00     0.089 A 
ATOM      5  C   UNL d   1      45.910 -18.199  43.485  0.00  0.00     0.286 C 
ATOM      6  C   UNL d   1      46.289 -16.101  43.324  0.00  0.00     0.104 A 
ATOM      7  O   UNL d   1      45.616 -18.648  44.122  0.00  0.00    -0.265 OA
ATOM      8  C   UNL d   1      45.535 -17.251  44.955  0.00  0.00     0.021 C 
ATOM      9  C   UNL d   1      46.532 -15.410  42.935  0.00  0.00     0.023 C 
ENDROOT
BRANCH   2  10
ATOM     10  C   UNL d   1      45.915 -15.522  44.630  0.00  0.00     0.089 C 
BRANCH  10  11
ATOM     11  N   UNL d   1      45.504 -14.842  44.404  0.00  0.00    -0.240 N 
ATOM     12  C   UNL d   1      45.839 -14.158  44.104  0.00  0.00     0.267 A 
ATOM     13  C   UNL d   1      45.222 -13.627  43.956  0.00  0.00     0.061 A 
ATOM     14  O   UNL d   1      46.644 -14.025  43.975  0.00  0.00    -0.267 OA
ATOM     15  C   UNL d   1      45.227 -12.860  43.656  0.00  0.00     0.005 A 
ATOM     16  C   UNL d   1      44.515 -13.981  44.162  0.00  0.00     0.061 A 
ATOM     17  C   UNL d   1      44.519 -12.450  43.563  0.00  0.00     0.000 A 
ATOM     18  C   UNL d   1      43.805 -12.806  43.771  0.00  0.00     0.000 A 
ATOM     19  C   UNL d   1      43.800 -13.573  44.071  0.00  0.00     0.005 A 
ATOM     20  C   UNL d   1      44.681 -14.740  44.443  0.00  0.00     0.267 A 
ATOM     21  O   UNL d   1      44.127 -15.293  44.712  0.00  0.00    -0.267 OA
ENDBRANCH  10  11
ENDBRANCH   2  10
BRANCH   5  22
ATOM     22  C   UNL d   1      46.109 -18.556  42.770  0.00  0.00     0.087 A 
ATOM     23  S   UNL d   1      45.839 -18.325  42.024  0.00  0.00    -0.082 SA
ATOM     24  C   UNL d   1      46.176 -18.833  41.468  0.00  0.00     0.036 A 
ATOM     25  C   UNL d   1      46.647 -19.370  41.862  0.00  0.00     0.008 A 
ATOM     26  C   UNL d   1      46.607 -19.201  42.673  0.00  0.00     0.012 A 
ENDBRANCH   5  22
TORSDOF 3
ENDMDL
