MODEL 1
REMARK VINA RESULT:      24.5      0.000      0.000
REMARK  6 active torsions:
REMARK  status: ('A' for Active; 'I' for Inactive)
REMARK    1  A    between atoms: N_5  and  S_1 
REMARK    2  A    between atoms: C_6  and  S_1 
REMARK    3  A    between atoms: C_2  and  C_11 
REMARK    4  A    between atoms: C_9  and  N_5 
REMARK    5  A    between atoms: C_10  and  C_9 
REMARK       I    between atoms: N_15  and  C_10 
REMARK    6  A    between atoms: C_19  and  N_15 
ROOT
ATOM      1  C   UNL d   1      46.048 -17.024  43.783  0.00  0.00     0.024 A 
ATOM      2  C   UNL d   1      45.618 -16.992  44.487  0.00  0.00     0.004 A 
ATOM      3  C   UNL d   1      46.346 -16.332  43.454  0.00  0.00     0.004 A 
ATOM      4  C   UNL d   1      45.784 -15.567  44.533  0.00  0.00     0.085 A 
ATOM      5  C   UNL d   1      46.212 -15.601  43.832  0.00  0.00     0.019 A 
ATOM      6  C   UNL d   1      45.483 -16.271  44.865  0.00  0.00     0.019 A 
ENDROOT
BRANCH   4   7
ATOM      7  N   UNL d   1      45.659 -14.836  44.895  0.00  0.00    -0.207 NA
ATOM      8  C   UNL d   1      46.011 -14.164  44.584  0.00  0.00     0.299 C 
ATOM      9  O   UNL d   1      46.485 -14.214  43.914  0.00  0.00    -0.263 OA
BRANCH   8  10
ATOM     10  C   UNL d   1      45.885 -13.426  44.952  0.00  0.00     0.174 C 
BRANCH  10  11
ATOM     11  N   UNL d   1      45.953 -12.732  44.515  0.00  0.00    -0.152 NA
BRANCH  11  12
ATOM     12  S   UNL d   1      45.439 -12.589  43.886  0.00  0.00     0.285 S 
ATOM     13  O   UNL d   1      44.837 -12.414  44.422  0.00  0.00    -0.198 OA
ATOM     14  O   UNL d   1      46.047 -12.766  43.356  0.00  0.00    -0.198 OA
BRANCH  12  15
ATOM     15  C   UNL d   1      44.934 -12.449  43.260  0.00  0.00     0.106 A 
ATOM     16  C   UNL d   1      45.241 -12.337  42.500  0.00  0.00     0.024 A 
ATOM     17  C   UNL d   1      44.730 -12.195  41.868  0.00  0.00     0.059 A 
ATOM     18 CL   UNL d   1      45.036 -12.080  41.094  0.00  0.00    -0.082 Cl
ATOM     19  C   UNL d   1      43.915 -12.163  41.983  0.00  0.00     0.011 A 
ATOM     20  C   UNL d   1      43.608 -12.276  42.743  0.00  0.00     0.002 A 
ATOM     21  C   UNL d   1      44.124 -12.419  43.381  0.00  0.00     0.013 A 
ENDBRANCH  12  15
ENDBRANCH  11  12
ENDBRANCH  10  11
ENDBRANCH   8  10
ENDBRANCH   4   7
BRANCH   1  22
ATOM     22  C   UNL d   1      46.188 -17.745  43.397  0.00  0.00     0.111 A 
ATOM     23  N   UNL d   1      46.275 -18.456  43.797  0.00  0.00    -0.239 NA
ATOM     24  C   UNL d   1      46.406 -19.054  43.243  0.00  0.00     0.088 A 
ATOM     25  C   UNL d   1      46.530 -19.864  43.322  0.00  0.00     0.020 A 
ATOM     26  C   UNL d   1      46.399 -18.708  42.496  0.00  0.00     0.049 A 
ATOM     27  C   UNL d   1      46.647 -20.328  42.652  0.00  0.00     0.002 A 
ATOM     28  C   UNL d   1      46.640 -19.982  41.904  0.00  0.00     0.001 A 
ATOM     29  C   UNL d   1      46.516 -19.171  41.825  0.00  0.00     0.008 A 
ATOM     30  S   UNL d   1      46.264 -17.898  42.591  0.00  0.00    -0.066 SA
ENDBRANCH   1  22
TORSDOF 6
ENDMDL
