MODEL 1
REMARK VINA RESULT:     121.9      0.000      0.000
REMARK  5 active torsions:
REMARK  status: ('A' for Active; 'I' for Inactive)
REMARK    1  A    between atoms: N_8  and  C_1 
REMARK    2  A    between atoms: S_2  and  C_7 
REMARK    3  A    between atoms: N_9  and  S_2 
REMARK    4  A    between atoms: C_17  and  N_5 
REMARK       I    between atoms: C_10  and  N_8 
REMARK    5  A    between atoms: C_12  and  C_10 
ROOT
ATOM      1  N   UNL d   1      60.902  46.380  50.648  0.00  0.00    -0.202 NA
ATOM      2  C   UNL d   1      61.263  47.131  50.657  0.00  0.00     0.279 C 
ATOM      3  O   UNL d   1      62.025  47.225  50.351  0.00  0.00    -0.265 OA
ENDROOT
BRANCH   2   4
ATOM      4  C   UNL d   1      60.861  47.771  50.970  0.00  0.00     0.059 A 
ATOM      5  C   UNL d   1      60.137  48.009  50.646  0.00  0.00     0.019 A 
ATOM      6  C   UNL d   1      59.734  48.655  50.964  0.00  0.00     0.115 A 
ATOM      7  C   UNL d   1      60.055  49.063  51.606  0.00  0.00     0.070 A 
ATOM      8  C   UNL d   1      60.771  48.827  51.925  0.00  0.00     0.012 A 
ATOM      9 CL   UNL d   1      59.653  49.708  51.924  0.00  0.00    -0.082 Cl
ATOM     10  C   UNL d   1      61.182  48.178  51.611  0.00  0.00     0.006 A 
BRANCH   6  11
ATOM     11  S   UNL d   1      59.010  48.890  50.638  0.00  0.00     0.272 S 
ATOM     12  O   UNL d   1      59.388  49.033  49.915  0.00  0.00    -0.200 OA
ATOM     13  O   UNL d   1      58.634  48.747  51.356  0.00  0.00    -0.200 OA
BRANCH  11  14
ATOM     14  N   UNL d   1      58.293  49.124  50.309  0.00  0.00    -0.229 N 
ATOM     15  C   UNL d   1      58.286  49.466  49.566  0.00  0.00     0.092 A 
ATOM     16  C   UNL d   1      57.566  49.701  49.236  0.00  0.00     0.020 A 
ATOM     17  C   UNL d   1      56.863  49.591  49.653  0.00  0.00     0.003 A 
ATOM     18  C   UNL d   1      56.882  49.245  50.402  0.00  0.00     0.020 A 
ATOM     19  C   UNL d   1      57.598  49.011  50.730  0.00  0.00     0.092 A 
ENDBRANCH  11  14
ENDBRANCH   6  11
ENDBRANCH   2   4
BRANCH   1  20
ATOM     20  C   UNL d   1      61.308  45.742  50.334  0.00  0.00     0.160 A 
ATOM     21  C   UNL d   1      61.461  45.021  50.709  0.00  0.00     0.298 A 
ATOM     22  N   UNL d   1      61.881  44.548  50.191  0.00  0.00    -0.209 N 
ATOM     23  O   UNL d   1      61.228  44.820  51.469  0.00  0.00    -0.263 OA
ATOM     24  N   UNL d   1      61.992  44.973  49.493  0.00  0.00    -0.238 N 
ATOM     25  C   UNL d   1      61.640  45.708  49.577  0.00  0.00     0.104 A 
ATOM     26  C   UNL d   1      62.385  44.706  48.828  0.00  0.00     0.120 C 
ATOM     27  C   UNL d   1      61.619  46.304  49.019  0.00  0.00     0.022 C 
BRANCH  22  28
ATOM     28  C   UNL d   1      62.144  43.791  50.341  0.00  0.00     0.085 A 
ATOM     29  C   UNL d   1      62.728  43.464  49.871  0.00  0.00     0.019 A 
ATOM     30  C   UNL d   1      62.991  42.702  50.023  0.00  0.00     0.002 A 
ATOM     31  C   UNL d   1      62.676  42.269  50.637  0.00  0.00     0.000 A 
ATOM     32  C   UNL d   1      62.085  42.602  51.110  0.00  0.00     0.002 A 
ATOM     33  C   UNL d   1      61.822  43.364  50.958  0.00  0.00     0.019 A 
ENDBRANCH  22  28
ENDBRANCH   1  20
TORSDOF 5
ENDMDL
