MODEL 1
REMARK VINA RESULT:      86.8      0.000      0.000
REMARK  4 active torsions:
REMARK  status: ('A' for Active; 'I' for Inactive)
REMARK    1  A    between atoms: O_8  and  C_1 
REMARK    2  A    between atoms: C_9  and  C_5 
REMARK    3  A    between atoms: C_11  and  O_8 
REMARK    4  A    between atoms: N_12  and  C_9 
ROOT
ATOM      1  C   UNL d   1     -54.918-100.298 -42.720  0.00  0.00     0.161 A 
ATOM      2  C   UNL d   1     -54.822-100.805 -41.138  0.00  0.00     0.108 A 
ATOM      3  C   UNL d   1     -54.863 -99.986 -41.315  0.00  0.00     0.064 A 
ATOM      4  C   UNL d   1     -54.911 -99.736 -42.105  0.00  0.00     0.222 A 
ATOM      5  C   UNL d   1     -54.775-101.055 -40.361  0.00  0.00     0.079 A 
ATOM      6  O   UNL d   1     -54.829-101.363 -41.754  0.00  0.00    -0.305 OA
ATOM      7  C   UNL d   1     -54.877-101.109 -42.545  0.00  0.00     0.126 A 
ATOM      8  C   UNL d   1     -54.856 -99.445 -40.695  0.00  0.00     0.009 A 
ATOM      9  C   UNL d   1     -54.768-100.509 -39.747  0.00  0.00     0.199 A 
ATOM     10  O   UNL d   1     -54.951 -98.929 -42.279  0.00  0.00    -0.284 OA
ATOM     11  C   UNL d   1     -54.808 -99.702 -39.917  0.00  0.00     0.042 A 
ATOM     12  O   UNL d   1     -54.721-100.766 -38.964  0.00  0.00    -0.286 OA
ATOM     13  C   UNL d   1     -54.884-101.669 -43.156  0.00  0.00     0.029 C 
ENDROOT
BRANCH   1  14
ATOM     14  O   UNL d   1     -54.965-100.042 -43.503  0.00  0.00    -0.301 OA
BRANCH  14  15
ATOM     15  C   UNL d   1     -55.143-100.573 -44.110  0.00  0.00     0.106 A 
ATOM     16  C   UNL d   1     -55.029-100.354 -44.891  0.00  0.00     0.057 A 
ATOM     17 BR   UNL d   1     -54.736 -99.603 -45.076  0.00  0.00    -0.047 Br
ATOM     18  C   UNL d   1     -55.209-100.887 -45.496  0.00  0.00     0.009 A 
ATOM     19  C   UNL d   1     -55.503-101.641 -45.315  0.00  0.00     0.001 A 
ATOM     20  C   UNL d   1     -55.615-101.855 -44.522  0.00  0.00     0.002 A 
ATOM     21  C   UNL d   1     -55.435-101.321 -43.924  0.00  0.00     0.025 A 
ENDBRANCH  14  15
ENDBRANCH   1  14
BRANCH   5  22
ATOM     22  C   UNL d   1     -54.736-101.850 -40.193  0.00  0.00     0.085 C 
BRANCH  22  23
ATOM     23  N   UNL d   1     -55.115-102.236 -39.584  0.00  0.00    -0.302 N 
ATOM     24  C   UNL d   1     -54.774-102.486 -38.888  0.00  0.00     0.080 A 
ATOM     25  C   UNL d   1     -55.345-102.838 -38.445  0.00  0.00     0.021 A 
ATOM     26  C   UNL d   1     -56.031-102.813 -38.850  0.00  0.00     0.021 A 
ATOM     27  C   UNL d   1     -55.892-102.435 -39.566  0.00  0.00     0.080 A 
ENDBRANCH  22  23
ENDBRANCH   5  22
TORSDOF 4
ENDMDL
