MODEL 1
REMARK VINA RESULT:      27.0      0.000      0.000
REMARK  3 active torsions:
REMARK  status: ('A' for Active; 'I' for Inactive)
REMARK    1  A    between atoms: C_7  and  N_1 
REMARK    2  A    between atoms: C_11  and  C_4 
REMARK    3  A    between atoms: C_9  and  C_7 
ROOT
ATOM      1  N   UNL d   1      46.134 -17.629  43.664  0.00  0.00    -0.252 N 
ATOM      2  C   UNL d   1      46.272 -16.995  43.110  0.00  0.00     0.354 A 
ATOM      3  C   UNL d   1      46.319 -18.551  42.576  0.00  0.00     0.035 A 
ATOM      4  C   UNL d   1      46.159 -18.404  43.386  0.00  0.00     0.070 A 
ATOM      5  N   UNL d   1      46.427 -17.168  42.316  0.00  0.00    -0.192 NA
ATOM      6  C   UNL d   1      46.453 -17.944  42.038  0.00  0.00     0.087 A 
ATOM      7  C   UNL d   1      46.337 -19.337  42.333  0.00  0.00     0.010 A 
ATOM      8  O   UNL d   1      46.254 -16.208  43.352  0.00  0.00    -0.244 OA
ATOM      9  C   UNL d   1      46.603 -18.091  41.273  0.00  0.00     0.020 A 
ATOM     10  C   UNL d   1      46.492 -19.519  41.541  0.00  0.00     0.035 A 
ATOM     11  C   UNL d   1      46.631 -18.864  40.988  0.00  0.00     0.008 A 
ATOM     12 BR   UNL d   1      46.510 -20.330  41.291  0.00  0.00    -0.049 Br
ENDROOT
BRANCH   4  13
ATOM     13  C   UNL d   1      46.037 -19.012  43.868  0.00  0.00     0.016 A 
ATOM     14  C   UNL d   1      45.297 -19.367  43.898  0.00  0.00     0.001 A 
ATOM     15  C   UNL d   1      45.154 -20.009  44.403  0.00  0.00     0.000 A 
ATOM     16  C   UNL d   1      45.768 -20.302  44.888  0.00  0.00     0.000 A 
ATOM     17  C   UNL d   1      46.513 -19.950  44.864  0.00  0.00     0.000 A 
ATOM     18  C   UNL d   1      46.647 -19.332  44.376  0.00  0.00     0.001 A 
ENDBRANCH   4  13
BRANCH   1  19
ATOM     19  C   UNL d   1      45.974 -17.490  44.473  0.00  0.00     0.155 C 
BRANCH  19  20
ATOM     20  C   UNL d   1      45.788 -16.724  44.721  0.00  0.00     0.230 C 
ATOM     21  O   UNL d   1      46.415 -16.193  44.924  0.00  0.00    -0.643 OA
ATOM     22  O   UNL d   1      45.001 -16.502  44.762  0.00  0.00    -0.643 OA
ENDBRANCH  19  20
ENDBRANCH   1  19
TORSDOF 3
ENDMDL
