MODEL 1
REMARK VINA RESULT:      -3.9      0.000      0.000
REMARK  3 active torsions:
REMARK  status: ('A' for Active; 'I' for Inactive)
REMARK    1  A    between atoms: N_11  and  C_4 
REMARK    2  A    between atoms: C_18  and  N_15 
REMARK    3  A    between atoms: C_22  and  C_18 
ROOT
ATOM      1  N   UNL d   1      33.236  21.234 -21.759  0.00  0.00    -0.195 N 
ATOM      2  C   UNL d   1      33.236  22.033 -21.634  0.00  0.00     0.168 A 
ATOM      3  C   UNL d   1      33.234  22.329 -20.892  0.00  0.00     0.073 A 
ATOM      4  C   UNL d   1      33.238  20.956 -22.506  0.00  0.00     0.153 A 
ATOM      5  N   UNL d   1      33.233  21.021 -20.402  0.00  0.00    -0.143 NA
ATOM      6  C   UNL d   1      33.232  21.820 -20.276  0.00  0.00     0.185 A 
ATOM      7  N   UNL d   1      33.237  22.535 -22.259  0.00  0.00    -0.227 NA
ATOM      8  C   UNL d   1      33.233  23.121 -20.768  0.00  0.00     0.007 A 
ATOM      9  N   UNL d   1      33.230  22.106 -19.519  0.00  0.00    -0.225 NA
ATOM     10  C   UNL d   1      33.240  21.448 -23.128  0.00  0.00     0.057 A 
ATOM     11  C   UNL d   1      33.231  23.417 -20.026  0.00  0.00     0.019 A 
ATOM     12  C   UNL d   1      33.239  22.248 -23.003  0.00  0.00     0.086 A 
ATOM     13  C   UNL d   1      33.230  22.906 -19.394  0.00  0.00     0.083 A 
ATOM     14  C   UNL d   1      33.235  23.623 -21.397  0.00  0.00     0.000 C 
ATOM     15  C   UNL d   1      33.241  22.767 -23.656  0.00  0.00     0.021 C 
ATOM     16  C   UNL d   1      33.228  23.193 -18.653  0.00  0.00     0.021 C 
ENDROOT
BRANCH   4  17
ATOM     17  N   UNL d   1      33.239  20.129 -22.627  0.00  0.00    -0.286 N 
ATOM     18  C   UNL d   1      33.239  20.071 -23.449  0.00  0.00     0.101 A 
ATOM     19  C   UNL d   1      33.239  19.311 -23.805  0.00  0.00     0.100 A 
ATOM     20  N   UNL d   1      33.240  18.618 -23.340  0.00  0.00    -0.300 N 
ATOM     21  C   UNL d   1      33.239  18.688 -22.505  0.00  0.00     0.100 A 
ATOM     22  C   UNL d   1      33.239  19.443 -22.144  0.00  0.00     0.101 A 
BRANCH  20  23
ATOM     23  C   UNL d   1      33.240  17.872 -23.699  0.00  0.00     0.080 C 
BRANCH  23  24
ATOM     24  C   UNL d   1      32.521  17.525 -23.951  0.00  0.00     0.018 A 
ATOM     25  C   UNL d   1      32.257  17.653 -24.722  0.00  0.00     0.002 A 
ATOM     26  C   UNL d   1      31.543  17.313 -24.987  0.00  0.00     0.000 A 
ATOM     27  C   UNL d   1      31.092  16.840 -24.466  0.00  0.00     0.000 A 
ATOM     28  C   UNL d   1      31.362  16.711 -23.684  0.00  0.00     0.000 A 
ATOM     29  C   UNL d   1      32.077  17.056 -23.433  0.00  0.00     0.002 A 
ENDBRANCH  23  24
ENDBRANCH  20  23
ENDBRANCH   4  17
TORSDOF 3
ENDMDL
MODEL 2
REMARK VINA RESULT:      -1.0      1.002      5.383
REMARK  3 active torsions:
REMARK  status: ('A' for Active; 'I' for Inactive)
REMARK    1  A    between atoms: N_11  and  C_4 
REMARK    2  A    between atoms: C_18  and  N_15 
REMARK    3  A    between atoms: C_22  and  C_18 
ROOT
ATOM      1  N   UNL d   1      33.133  20.796 -22.283  0.00  0.00    -0.195 N 
ATOM      2  C   UNL d   1      33.116  20.423 -23.001  0.00  0.00     0.168 A 
ATOM      3  C   UNL d   1      33.066  19.627 -23.045  0.00  0.00     0.073 A 
ATOM      4  C   UNL d   1      33.184  21.591 -22.257  0.00  0.00     0.153 A 
ATOM      5  N   UNL d   1      33.051  19.579 -21.649  0.00  0.00    -0.143 NA
ATOM      6  C   UNL d   1      33.033  19.207 -22.367  0.00  0.00     0.185 A 
ATOM      7  N   UNL d   1      33.149  20.854 -23.675  0.00  0.00    -0.227 NA
ATOM      8  C   UNL d   1      33.048  19.257 -23.756  0.00  0.00     0.007 A 
ATOM      9  N   UNL d   1      32.983  18.399 -22.396  0.00  0.00    -0.225 NA
ATOM     10  C   UNL d   1      33.216  22.023 -22.922  0.00  0.00     0.057 A 
ATOM     11  C   UNL d   1      32.998  18.462 -23.800  0.00  0.00     0.019 A 
ATOM     12  C   UNL d   1      33.199  21.650 -23.640  0.00  0.00     0.086 A 
ATOM     13  C   UNL d   1      32.965  18.026 -23.115  0.00  0.00     0.083 A 
ATOM     14  C   UNL d   1      33.082  19.693 -24.432  0.00  0.00     0.000 C 
ATOM     15  C   UNL d   1      33.233  22.102 -24.340  0.00  0.00     0.021 C 
ATOM     16  C   UNL d   1      32.915  17.235 -23.151  0.00  0.00     0.021 C 
ENDROOT
BRANCH   4  17
ATOM     17  N   UNL d   1      33.201  21.969 -21.512  0.00  0.00    -0.286 N 
ATOM     18  C   UNL d   1      33.190  22.766 -21.718  0.00  0.00     0.101 A 
ATOM     19  C   UNL d   1      33.202  23.346 -21.111  0.00  0.00     0.100 A 
ATOM     20  N   UNL d   1      33.226  23.125 -20.306  0.00  0.00    -0.300 N 
ATOM     21  C   UNL d   1      33.237  22.311 -20.107  0.00  0.00     0.100 A 
ATOM     22  C   UNL d   1      33.225  21.729 -20.708  0.00  0.00     0.101 A 
BRANCH  20  23
ATOM     23  C   UNL d   1      33.238  23.702 -19.713  0.00  0.00     0.080 C 
BRANCH  23  24
ATOM     24  C   UNL d   1      32.806  23.588 -19.005  0.00  0.00     0.018 A 
ATOM     25  C   UNL d   1      31.981  23.594 -19.027  0.00  0.00     0.002 A 
ATOM     26  C   UNL d   1      31.538  23.482 -18.329  0.00  0.00     0.000 A 
ATOM     27  C   UNL d   1      31.934  23.362 -17.603  0.00  0.00     0.000 A 
ATOM     28  C   UNL d   1      32.771  23.357 -17.583  0.00  0.00     0.000 A 
ATOM     29  C   UNL d   1      33.200  23.470 -18.287  0.00  0.00     0.002 A 
ENDBRANCH  23  24
ENDBRANCH  20  23
ENDBRANCH   4  17
TORSDOF 3
ENDMDL
