MODEL 1
REMARK VINA RESULT:       1.5      0.000      0.000
REMARK  6 active torsions:
REMARK  status: ('A' for Active; 'I' for Inactive)
REMARK    1  A    between atoms: N_3  and  C_1 
REMARK    2  A    between atoms: S_2  and  C_10 
REMARK    3  A    between atoms: N_8  and  S_2 
REMARK       I    between atoms: C_9  and  N_3 
REMARK    4  A    between atoms: C_23  and  N_4 
REMARK    5  A    between atoms: C_13  and  C_9 
REMARK    6  A    between atoms: O_25  and  C_14 
ROOT
ATOM      1  N   UNL d   1      32.993  19.387 -22.054  0.00  0.00    -0.184 NA
ATOM      2  C   UNL d   1      32.727  20.171 -22.144  0.00  0.00     0.281 C 
ATOM      3  O   UNL d   1      32.486  20.439 -22.887  0.00  0.00    -0.265 OA
ENDROOT
BRANCH   2   4
ATOM      4  C   UNL d   1      32.704  20.679 -21.490  0.00  0.00     0.058 A 
ATOM      5  C   UNL d   1      33.240  20.572 -20.875  0.00  0.00     0.005 A 
ATOM      6  C   UNL d   1      33.219  21.078 -20.223  0.00  0.00     0.013 A 
ATOM      7  C   UNL d   1      32.661  21.690 -20.187  0.00  0.00     0.104 A 
ATOM      8  C   UNL d   1      32.122  21.790 -20.815  0.00  0.00     0.013 A 
ATOM      9  C   UNL d   1      32.141  21.285 -21.470  0.00  0.00     0.005 A 
BRANCH   7  10
ATOM     10  S   UNL d   1      32.639  22.196 -19.535  0.00  0.00     0.272 S 
ATOM     11  O   UNL d   1      32.888  21.548 -19.071  0.00  0.00    -0.200 OA
ATOM     12  O   UNL d   1      32.395  22.829 -19.996  0.00  0.00    -0.200 OA
BRANCH  10  13
ATOM     13  N   UNL d   1      32.617  22.699 -18.884  0.00  0.00    -0.225 N 
ATOM     14  C   UNL d   1      33.239  22.695 -18.351  0.00  0.00     0.118 A 
ATOM     15  C   UNL d   1      33.221  23.198 -17.697  0.00  0.00     0.142 A 
ATOM     16  O   UNL d   1      32.578  23.702 -17.581  0.00  0.00    -0.300 OA
ATOM     17  C   UNL d   1      31.955  23.702 -18.121  0.00  0.00     0.142 A 
ATOM     18  C   UNL d   1      31.974  23.199 -18.775  0.00  0.00     0.118 A 
ENDBRANCH  10  13
ENDBRANCH   7  10
ENDBRANCH   2   4
BRANCH   1  19
ATOM     19  C   UNL d   1      33.013  18.879 -22.717  0.00  0.00     0.182 A 
ATOM     20  N   UNL d   1      32.886  18.071 -22.701  0.00  0.00    -0.283 N 
ATOM     21  C   UNL d   1      32.955  17.777 -23.469  0.00  0.00     0.094 A 
ATOM     22  C   UNL d   1      32.882  17.004 -23.785  0.00  0.00     0.111 A 
ATOM     23  C   UNL d   1      33.126  18.405 -23.967  0.00  0.00     0.050 A 
ATOM     24  C   UNL d   1      32.985  16.888 -24.591  0.00  0.00     0.026 A 
ATOM     25  C   UNL d   1      33.157  17.515 -25.097  0.00  0.00     0.003 A 
ATOM     26  C   UNL d   1      33.228  18.277 -24.782  0.00  0.00     0.008 A 
ATOM     27  S   UNL d   1      33.164  19.092 -23.511  0.00  0.00    -0.048 SA
BRANCH  20  28
ATOM     28  C   UNL d   1      32.716  17.617 -22.033  0.00  0.00     0.082 C 
ATOM     29  C   UNL d   1      33.238  17.477 -21.410  0.00  0.00     0.021 C 
ENDBRANCH  20  28
BRANCH  22  30
ATOM     30  O   UNL d   1      32.712  16.379 -23.293  0.00  0.00    -0.327 OA
ATOM     31  C   UNL d   1      32.633  15.623 -23.599  0.00  0.00     0.181 C 
ENDBRANCH  22  30
ENDBRANCH   1  19
TORSDOF 6
ENDMDL
