MODEL 1
REMARK VINA RESULT:      -8.2      0.000      0.000
REMARK  3 active torsions:
REMARK  status: ('A' for Active; 'I' for Inactive)
REMARK    1  A    between atoms: N_2  and  S_1 
REMARK    2  A    between atoms: C_4  and  S_1 
REMARK    3  A    between atoms: C_3  and  N_2 
ROOT
ATOM      1  N   UNL d   1     -48.247  13.851  22.856  0.00  0.00    -0.157 NA
ENDROOT
BRANCH   1   2
ATOM      2  S   UNL d   1     -47.721  13.237  23.022  0.00  0.00     0.285 S 
ATOM      3  O   UNL d   1     -47.264  13.452  22.370  0.00  0.00    -0.198 OA
ATOM      4  O   UNL d   1     -48.176  13.015  23.681  0.00  0.00    -0.198 OA
BRANCH   2   5
ATOM      5  C   UNL d   1     -47.196  12.623  23.188  0.00  0.00     0.105 A 
ATOM      6  C   UNL d   1     -46.387  12.707  23.011  0.00  0.00     0.013 A 
ATOM      7  C   UNL d   1     -45.862  12.092  23.178  0.00  0.00     0.001 A 
ATOM      8  C   UNL d   1     -46.135  11.395  23.520  0.00  0.00     0.000 A 
ATOM      9  C   UNL d   1     -46.936  11.308  23.697  0.00  0.00     0.001 A 
ATOM     10  C   UNL d   1     -45.602  10.781  23.685  0.00  0.00     0.000 C 
ATOM     11  C   UNL d   1     -47.464  11.922  23.531  0.00  0.00     0.013 A 
ENDBRANCH   2   5
ENDBRANCH   1   2
BRANCH   1  12
ATOM     12  C   UNL d   1     -48.922  13.705  22.406  0.00  0.00     0.111 A 
ATOM     13  C   UNL d   1     -49.593  14.179  22.496  0.00  0.00     0.100 A 
ATOM     14  N   UNL d   1     -49.588  14.808  23.045  0.00  0.00    -0.242 NA
ATOM     15  C   UNL d   1     -50.269  14.033  22.045  0.00  0.00     0.019 A 
ATOM     16  C   UNL d   1     -50.261  15.286  23.137  0.00  0.00     0.099 A 
ATOM     17  C   UNL d   1     -50.936  15.140  22.686  0.00  0.00     0.021 A 
ATOM     18  C   UNL d   1     -50.941  14.515  22.142  0.00  0.00     0.003 A 
ATOM     19  C   UNL d   1     -50.276  13.412  21.503  0.00  0.00     0.002 A 
ATOM     20  C   UNL d   1     -49.608  12.936  21.410  0.00  0.00     0.002 A 
ATOM     21  C   UNL d   1     -48.932  13.083  21.861  0.00  0.00     0.021 A 
ENDBRANCH   1  12
TORSDOF 3
ENDMDL
MODEL 2
REMARK VINA RESULT:      -7.6      0.982      4.227
REMARK  3 active torsions:
REMARK  status: ('A' for Active; 'I' for Inactive)
REMARK    1  A    between atoms: N_2  and  S_1 
REMARK    2  A    between atoms: C_4  and  S_1 
REMARK    3  A    between atoms: C_3  and  N_2 
ROOT
ATOM      1  N   UNL d   1     -47.400  13.570  22.566  0.00  0.00    -0.157 NA
ENDROOT
BRANCH   1   2
ATOM      2  S   UNL d   1     -48.132  13.945  22.632  0.00  0.00     0.285 S 
ATOM      3  O   UNL d   1     -47.855  14.373  23.279  0.00  0.00    -0.198 OA
ATOM      4  O   UNL d   1     -48.419  13.518  21.979  0.00  0.00    -0.198 OA
BRANCH   2   5
ATOM      5  C   UNL d   1     -48.864  14.320  22.696  0.00  0.00     0.105 A 
ATOM      6  C   UNL d   1     -48.986  14.899  23.282  0.00  0.00     0.013 A 
ATOM      7  C   UNL d   1     -49.719  15.274  23.346  0.00  0.00     0.001 A 
ATOM      8  C   UNL d   1     -50.331  15.079  22.832  0.00  0.00     0.000 A 
ATOM      9  C   UNL d   1     -50.214  14.506  22.250  0.00  0.00     0.001 A 
ATOM     10  C   UNL d   1     -51.064  15.459  22.902  0.00  0.00     0.000 C 
ATOM     11  C   UNL d   1     -49.482  14.128  22.183  0.00  0.00     0.013 A 
ENDBRANCH   2   5
ENDBRANCH   1   2
BRANCH   1  12
ATOM     12  C   UNL d   1     -47.273  12.847  22.943  0.00  0.00     0.111 A 
ATOM     13  C   UNL d   1     -46.521  12.506  22.947  0.00  0.00     0.100 A 
ATOM     14  N   UNL d   1     -45.886  12.895  22.568  0.00  0.00    -0.242 NA
ATOM     15  C   UNL d   1     -46.394  11.783  23.323  0.00  0.00     0.019 A 
ATOM     16  C   UNL d   1     -45.128  12.555  22.571  0.00  0.00     0.099 A 
ATOM     17  C   UNL d   1     -45.001  11.832  22.948  0.00  0.00     0.021 A 
ATOM     18  C   UNL d   1     -45.632  11.446  23.323  0.00  0.00     0.003 A 
ATOM     19  C   UNL d   1     -47.019  11.398  23.697  0.00  0.00     0.002 A 
ATOM     20  C   UNL d   1     -47.772  11.735  23.695  0.00  0.00     0.002 A 
ATOM     21  C   UNL d   1     -47.899  12.458  23.319  0.00  0.00     0.021 A 
ENDBRANCH   1  12
TORSDOF 3
ENDMDL
MODEL 3
REMARK VINA RESULT:      -6.8      1.636      2.093
REMARK  3 active torsions:
REMARK  status: ('A' for Active; 'I' for Inactive)
REMARK    1  A    between atoms: N_2  and  S_1 
REMARK    2  A    between atoms: C_4  and  S_1 
REMARK    3  A    between atoms: C_3  and  N_2 
ROOT
ATOM      1  N   UNL d   1     -47.900  11.868  23.691  0.00  0.00    -0.157 NA
ENDROOT
BRANCH   1   2
ATOM      2  S   UNL d   1     -47.124  11.594  23.625  0.00  0.00     0.285 S 
ATOM      3  O   UNL d   1     -47.401  10.820  23.569  0.00  0.00    -0.198 OA
ATOM      4  O   UNL d   1     -46.836  12.372  23.681  0.00  0.00    -0.198 OA
BRANCH   2   5
ATOM      5  C   UNL d   1     -46.348  11.322  23.560  0.00  0.00     0.105 A 
ATOM      6  C   UNL d   1     -46.175  10.519  23.698  0.00  0.00     0.013 A 
ATOM      7  C   UNL d   1     -45.398  10.247  23.632  0.00  0.00     0.001 A 
ATOM      8  C   UNL d   1     -44.792  10.766  23.431  0.00  0.00     0.000 A 
ATOM      9  C   UNL d   1     -44.959  11.562  23.294  0.00  0.00     0.001 A 
ATOM     10  C   UNL d   1     -44.014  10.486  23.367  0.00  0.00     0.000 C 
ATOM     11  C   UNL d   1     -45.736  11.838  23.359  0.00  0.00     0.013 A 
ENDBRANCH   2   5
ENDBRANCH   1   2
BRANCH   1  12
ATOM     12  C   UNL d   1     -48.298  12.141  23.022  0.00  0.00     0.111 A 
ATOM     13  C   UNL d   1     -49.123  12.179  23.015  0.00  0.00     0.100 A 
ATOM     14  N   UNL d   1     -49.556  11.940  23.688  0.00  0.00    -0.242 NA
ATOM     15  C   UNL d   1     -49.521  12.452  22.346  0.00  0.00     0.019 A 
ATOM     16  C   UNL d   1     -50.386  11.977  23.684  0.00  0.00     0.099 A 
ATOM     17  C   UNL d   1     -50.784  12.250  23.015  0.00  0.00     0.021 A 
ATOM     18  C   UNL d   1     -50.353  12.487  22.348  0.00  0.00     0.003 A 
ATOM     19  C   UNL d   1     -49.095  12.688  21.681  0.00  0.00     0.002 A 
ATOM     20  C   UNL d   1     -48.271  12.652  21.684  0.00  0.00     0.002 A 
ATOM     21  C   UNL d   1     -47.873  12.379  22.353  0.00  0.00     0.021 A 
ENDBRANCH   1  12
TORSDOF 3
ENDMDL
MODEL 4
REMARK VINA RESULT:      -6.3      8.916      9.450
REMARK  3 active torsions:
REMARK  status: ('A' for Active; 'I' for Inactive)
REMARK    1  A    between atoms: N_2  and  S_1 
REMARK    2  A    between atoms: C_4  and  S_1 
REMARK    3  A    between atoms: C_3  and  N_2 
ROOT
ATOM      1  N   UNL d   1     -40.578  15.074  19.485  0.00  0.00    -0.157 NA
ENDROOT
BRANCH   1   2
ATOM      2  S   UNL d   1     -40.199  14.975  20.211  0.00  0.00     0.285 S 
ATOM      3  O   UNL d   1     -39.723  15.629  20.052  0.00  0.00    -0.198 OA
ATOM      4  O   UNL d   1     -40.675  14.315  20.379  0.00  0.00    -0.198 OA
BRANCH   2   5
ATOM      5  C   UNL d   1     -39.821  14.875  20.938  0.00  0.00     0.105 A 
ATOM      6  C   UNL d   1     -39.463  15.526  21.315  0.00  0.00     0.013 A 
ATOM      7  C   UNL d   1     -39.085  15.426  22.042  0.00  0.00     0.001 A 
ATOM      8  C   UNL d   1     -39.060  14.684  22.397  0.00  0.00     0.000 A 
ATOM      9  C   UNL d   1     -39.413  14.036  22.027  0.00  0.00     0.001 A 
ATOM     10  C   UNL d   1     -38.679  14.590  23.127  0.00  0.00     0.000 C 
ATOM     11  C   UNL d   1     -39.793  14.133  21.299  0.00  0.00     0.013 A 
ENDBRANCH   2   5
ENDBRANCH   1   2
BRANCH   1  12
ATOM     12  C   UNL d   1     -40.233  14.776  18.797  0.00  0.00     0.111 A 
ATOM     13  C   UNL d   1     -40.473  15.055  18.057  0.00  0.00     0.100 A 
ATOM     14  N   UNL d   1     -41.067  15.640  18.006  0.00  0.00    -0.242 NA
ATOM     15  C   UNL d   1     -40.129  14.758  17.369  0.00  0.00     0.019 A 
ATOM     16  C   UNL d   1     -41.311  15.922  17.263  0.00  0.00     0.099 A 
ATOM     17  C   UNL d   1     -40.966  15.625  16.575  0.00  0.00     0.021 A 
ATOM     18  C   UNL d   1     -40.377  15.044  16.627  0.00  0.00     0.003 A 
ATOM     19  C   UNL d   1     -39.543  14.180  17.418  0.00  0.00     0.002 A 
ATOM     20  C   UNL d   1     -39.300  13.899  18.155  0.00  0.00     0.002 A 
ATOM     21  C   UNL d   1     -39.645  14.197  18.843  0.00  0.00     0.021 A 
ENDBRANCH   1  12
TORSDOF 3
ENDMDL
MODEL 5
REMARK VINA RESULT:      -6.3      9.115     10.854
REMARK  3 active torsions:
REMARK  status: ('A' for Active; 'I' for Inactive)
REMARK    1  A    between atoms: N_2  and  S_1 
REMARK    2  A    between atoms: C_4  and  S_1 
REMARK    3  A    between atoms: C_3  and  N_2 
ROOT
ATOM      1  N   UNL d   1     -39.637  14.774  17.598  0.00  0.00    -0.157 NA
ENDROOT
BRANCH   1   2
ATOM      2  S   UNL d   1     -39.804  14.996  18.375  0.00  0.00     0.285 S 
ATOM      3  O   UNL d   1     -40.489  14.537  18.360  0.00  0.00    -0.198 OA
ATOM      4  O   UNL d   1     -39.116  15.461  18.400  0.00  0.00    -0.198 OA
BRANCH   2   5
ATOM      5  C   UNL d   1     -39.970  15.218  19.152  0.00  0.00     0.105 A 
ATOM      6  C   UNL d   1     -39.435  15.699  19.572  0.00  0.00     0.013 A 
ATOM      7  C   UNL d   1     -39.602  15.922  20.349  0.00  0.00     0.001 A 
ATOM      8  C   UNL d   1     -40.296  15.670  20.713  0.00  0.00     0.000 A 
ATOM      9  C   UNL d   1     -40.828  15.193  20.301  0.00  0.00     0.001 A 
ATOM     10  C   UNL d   1     -40.457  15.896  21.494  0.00  0.00     0.000 C 
ATOM     11  C   UNL d   1     -40.665  14.968  19.522  0.00  0.00     0.013 A 
ENDBRANCH   2   5
ENDBRANCH   1   2
BRANCH   1  12
ATOM     12  C   UNL d   1     -39.184  14.101  17.451  0.00  0.00     0.111 A 
ATOM     13  C   UNL d   1     -38.789  14.016  16.730  0.00  0.00     0.100 A 
ATOM     14  N   UNL d   1     -38.848  14.613  16.149  0.00  0.00    -0.242 NA
ATOM     15  C   UNL d   1     -38.335  13.343  16.582  0.00  0.00     0.019 A 
ATOM     16  C   UNL d   1     -38.452  14.529  15.424  0.00  0.00     0.099 A 
ATOM     17  C   UNL d   1     -37.999  13.856  15.276  0.00  0.00     0.021 A 
ATOM     18  C   UNL d   1     -37.940  13.264  15.853  0.00  0.00     0.003 A 
ATOM     19  C   UNL d   1     -38.275  12.752  17.154  0.00  0.00     0.002 A 
ATOM     20  C   UNL d   1     -38.668  12.834  17.875  0.00  0.00     0.002 A 
ATOM     21  C   UNL d   1     -39.122  13.507  18.023  0.00  0.00     0.021 A 
ENDBRANCH   1  12
TORSDOF 3
ENDMDL
MODEL 6
REMARK VINA RESULT:      -6.1      8.835     10.395
REMARK  3 active torsions:
REMARK  status: ('A' for Active; 'I' for Inactive)
REMARK    1  A    between atoms: N_2  and  S_1 
REMARK    2  A    between atoms: C_4  and  S_1 
REMARK    3  A    between atoms: C_3  and  N_2 
ROOT
ATOM      1  N   UNL d   1     -39.914  14.256  18.721  0.00  0.00    -0.157 NA
ENDROOT
BRANCH   1   2
ATOM      2  S   UNL d   1     -39.518  14.140  18.007  0.00  0.00     0.285 S 
ATOM      3  O   UNL d   1     -39.164  13.461  18.312  0.00  0.00    -0.198 OA
ATOM      4  O   UNL d   1     -39.870  14.823  17.691  0.00  0.00    -0.198 OA
BRANCH   2   5
ATOM      5  C   UNL d   1     -39.123  14.025  17.292  0.00  0.00     0.105 A 
ATOM      6  C   UNL d   1     -39.269  14.533  16.648  0.00  0.00     0.013 A 
ATOM      7  C   UNL d   1     -38.873  14.417  15.932  0.00  0.00     0.001 A 
ATOM      8  C   UNL d   1     -38.333  13.801  15.852  0.00  0.00     0.000 A 
ATOM      9  C   UNL d   1     -38.186  13.296  16.487  0.00  0.00     0.001 A 
ATOM     10  C   UNL d   1     -37.940  13.691  15.131  0.00  0.00     0.000 C 
ATOM     11  C   UNL d   1     -38.580  13.409  17.205  0.00  0.00     0.013 A 
ENDBRANCH   2   5
ENDBRANCH   1   2
BRANCH   1  12
ATOM     12  C   UNL d   1     -39.631  14.810  19.263  0.00  0.00     0.111 A 
ATOM     13  C   UNL d   1     -40.086  15.019  19.921  0.00  0.00     0.100 A 
ATOM     14  N   UNL d   1     -40.834  14.667  20.037  0.00  0.00    -0.242 NA
ATOM     15  C   UNL d   1     -39.804  15.573  20.463  0.00  0.00     0.019 A 
ATOM     16  C   UNL d   1     -41.294  14.875  20.698  0.00  0.00     0.099 A 
ATOM     17  C   UNL d   1     -41.011  15.429  21.240  0.00  0.00     0.021 A 
ATOM     18  C   UNL d   1     -40.268  15.777  21.123  0.00  0.00     0.003 A 
ATOM     19  C   UNL d   1     -39.065  15.921  20.349  0.00  0.00     0.002 A 
ATOM     20  C   UNL d   1     -38.608  15.715  19.694  0.00  0.00     0.002 A 
ATOM     21  C   UNL d   1     -38.890  15.161  19.152  0.00  0.00     0.021 A 
ENDBRANCH   1  12
TORSDOF 3
ENDMDL
