MODEL 1
REMARK VINA RESULT:      -3.1      0.000      0.000
REMARK  8 active torsions:
REMARK  status: ('A' for Active; 'I' for Inactive)
REMARK    1  A    between atoms: C_9  and  N_1 
REMARK    2  A    between atoms: C_13  and  C_5 
REMARK    3  A    between atoms: C_8  and  C_6 
REMARK    4  A    between atoms: C_7  and  N_11 
REMARK    5  A    between atoms: C_10  and  C_9 
REMARK       I    between atoms: N_11  and  C_10 
REMARK    6  A    between atoms: C_15  and  C_13 
REMARK    7  A    between atoms: C_18  and  C_15 
REMARK    8  A    between atoms: C_20  and  C_18 
ROOT
ATOM      1  N   UNL d   1     -41.605-122.462 -50.816  0.00  0.00    -0.230 N 
ATOM      2  C   UNL d   1     -41.417-121.710 -51.110  0.00  0.00     0.299 A 
ATOM      3  C   UNL d   1     -41.525-123.006 -51.431  0.00  0.00     0.274 A 
ATOM      4  S   UNL d   1     -41.219-121.792 -51.912  0.00  0.00    -0.022 SA
ATOM      5  C   UNL d   1     -41.287-122.589 -52.104  0.00  0.00     0.090 A 
ATOM      6  O   UNL d   1     -41.424-121.002 -50.679  0.00  0.00    -0.259 OA
ATOM      7  O   UNL d   1     -41.658-123.817 -51.386  0.00  0.00    -0.266 OA
ENDROOT
BRANCH   1   8
ATOM      8  C   UNL d   1     -41.833-122.630 -50.043  0.00  0.00     0.149 C 
BRANCH   8   9
ATOM      9  C   UNL d   1     -42.633-122.572 -49.829  0.00  0.00     0.297 C 
ATOM     10  N   UNL d   1     -42.877-122.809 -49.079  0.00  0.00    -0.206 NA
ATOM     11  O   UNL d   1     -43.181-122.274 -50.375  0.00  0.00    -0.264 OA
BRANCH  10  12
ATOM     12  C   UNL d   1     -42.324-123.103 -48.546  0.00  0.00     0.090 A 
ATOM     13  C   UNL d   1     -42.424-122.973 -47.742  0.00  0.00     0.082 A 
ATOM     14  C   UNL d   1     -41.873-123.265 -47.207  0.00  0.00     0.008 A 
ATOM     15  C   UNL d   1     -41.217-123.691 -47.481  0.00  0.00     0.000 A 
ATOM     16  C   UNL d   1     -41.124-123.817 -48.294  0.00  0.00     0.002 A 
ATOM     17  C   UNL d   1     -41.678-123.523 -48.821  0.00  0.00     0.019 A 
BRANCH  13  18
ATOM     18  C   UNL d   1     -43.078-122.549 -47.471  0.00  0.00     0.212 C 
ATOM     19  O   UNL d   1     -43.422-121.965 -47.949  0.00  0.00    -0.644 OA
ATOM     20  O   UNL d   1     -43.389-122.705 -46.727  0.00  0.00    -0.644 OA
ENDBRANCH  13  18
ENDBRANCH  10  12
ENDBRANCH   8   9
ENDBRANCH   1   8
BRANCH   5  21
ATOM     21  C   UNL d   1     -41.141-122.921 -52.849  0.00  0.00     0.011 C 
BRANCH  21  22
ATOM     22  C   UNL d   1     -41.275-122.477 -53.534  0.00  0.00     0.001 C 
BRANCH  22  23
ATOM     23  C   UNL d   1     -41.454-122.852 -54.242  0.00  0.00     0.000 C 
BRANCH  23  24
ATOM     24  C   UNL d   1     -41.815-122.431 -54.854  0.00  0.00     0.000 A 
ATOM     25  C   UNL d   1     -41.362-121.956 -55.342  0.00  0.00     0.000 A 
ATOM     26  C   UNL d   1     -41.717-121.533 -55.954  0.00  0.00     0.000 A 
ATOM     27  C   UNL d   1     -42.536-121.588 -56.076  0.00  0.00     0.000 A 
ATOM     28  C   UNL d   1     -42.990-122.071 -55.577  0.00  0.00     0.000 A 
ATOM     29  C   UNL d   1     -42.629-122.489 -54.970  0.00  0.00     0.000 A 
ENDBRANCH  23  24
ENDBRANCH  22  23
ENDBRANCH  21  22
ENDBRANCH   5  21
TORSDOF 8
ENDMDL
MODEL 2
REMARK VINA RESULT:      -1.6      0.970      1.572
REMARK  8 active torsions:
REMARK  status: ('A' for Active; 'I' for Inactive)
REMARK    1  A    between atoms: C_9  and  N_1 
REMARK    2  A    between atoms: C_13  and  C_5 
REMARK    3  A    between atoms: C_8  and  C_6 
REMARK    4  A    between atoms: C_7  and  N_11 
REMARK    5  A    between atoms: C_10  and  C_9 
REMARK       I    between atoms: N_11  and  C_10 
REMARK    6  A    between atoms: C_15  and  C_13 
REMARK    7  A    between atoms: C_18  and  C_15 
REMARK    8  A    between atoms: C_20  and  C_18 
ROOT
ATOM      1  N   UNL d   1     -41.943-122.561 -50.890  0.00  0.00    -0.230 N 
ATOM      2  C   UNL d   1     -41.464-123.131 -51.256  0.00  0.00     0.299 A 
ATOM      3  C   UNL d   1     -42.139-121.990 -51.452  0.00  0.00     0.274 A 
ATOM      4  S   UNL d   1     -41.365-122.907 -52.050  0.00  0.00    -0.022 SA
ATOM      5  C   UNL d   1     -41.781-122.207 -52.165  0.00  0.00     0.090 A 
ATOM      6  O   UNL d   1     -41.142-123.802 -50.894  0.00  0.00    -0.259 OA
ATOM      7  O   UNL d   1     -42.606-121.323 -51.328  0.00  0.00    -0.266 OA
ENDROOT
BRANCH   1   8
ATOM      8  C   UNL d   1     -42.178-122.570 -50.101  0.00  0.00     0.149 C 
BRANCH   8   9
ATOM      9  C   UNL d   1     -41.725-122.169 -49.533  0.00  0.00     0.297 C 
ATOM     10  N   UNL d   1     -41.876-122.282 -48.731  0.00  0.00    -0.206 NA
ATOM     11  O   UNL d   1     -41.123-121.655 -49.779  0.00  0.00    -0.264 OA
BRANCH  10  12
ATOM     12  C   UNL d   1     -42.475-122.794 -48.498  0.00  0.00     0.090 A 
ATOM     13  C   UNL d   1     -42.423-123.183 -47.779  0.00  0.00     0.082 A 
ATOM     14  C   UNL d   1     -43.021-123.696 -47.543  0.00  0.00     0.008 A 
ATOM     15  C   UNL d   1     -43.676-123.817 -48.035  0.00  0.00     0.000 A 
ATOM     16  C   UNL d   1     -43.721-123.420 -48.760  0.00  0.00     0.002 A 
ATOM     17  C   UNL d   1     -43.121-122.912 -48.987  0.00  0.00     0.019 A 
BRANCH  13  18
ATOM     18  C   UNL d   1     -41.769-123.061 -47.290  0.00  0.00     0.212 C 
ATOM     19  O   UNL d   1     -41.245-123.684 -47.131  0.00  0.00    -0.644 OA
ATOM     20  O   UNL d   1     -41.636-122.320 -46.960  0.00  0.00    -0.644 OA
ENDBRANCH  13  18
ENDBRANCH  10  12
ENDBRANCH   8   9
ENDBRANCH   1   8
BRANCH   5  21
ATOM     21  C   UNL d   1     -41.834-121.787 -52.876  0.00  0.00     0.011 C 
BRANCH  21  22
ATOM     22  C   UNL d   1     -41.814-122.191 -53.599  0.00  0.00     0.001 C 
BRANCH  22  23
ATOM     23  C   UNL d   1     -41.487-121.837 -54.262  0.00  0.00     0.000 C 
BRANCH  23  24
ATOM     24  C   UNL d   1     -41.865-121.900 -54.994  0.00  0.00     0.000 A 
ATOM     25  C   UNL d   1     -42.572-122.307 -55.051  0.00  0.00     0.000 A 
ATOM     26  C   UNL d   1     -42.954-122.372 -55.779  0.00  0.00     0.000 A 
ATOM     27  C   UNL d   1     -42.621-122.024 -56.455  0.00  0.00     0.000 A 
ATOM     28  C   UNL d   1     -41.904-121.613 -56.391  0.00  0.00     0.000 A 
ATOM     29  C   UNL d   1     -41.530-121.553 -55.662  0.00  0.00     0.000 A 
ENDBRANCH  23  24
ENDBRANCH  22  23
ENDBRANCH  21  22
ENDBRANCH   5  21
TORSDOF 8
ENDMDL
