MODEL 1
REMARK VINA RESULT:      -5.0      0.000      0.000
REMARK  10 active torsions:
REMARK  status: ('A' for Active; 'I' for Inactive)
REMARK    1  A    between atoms: C_4  and  N_1 
REMARK    2  A    between atoms: C_10  and  C_2 
REMARK    3  A    between atoms: N_16  and  C_4 
REMARK    4  A    between atoms: O_22  and  C_8 
REMARK    5  A    between atoms: O_15  and  C_10 
REMARK    6  A    between atoms: O_23  and  C_11 
REMARK    7  A    between atoms: C_14  and  O_15 
REMARK    8  A    between atoms: C_25  and  N_16 
REMARK    9  A    between atoms: O_24  and  C_28 
REMARK   10  A    between atoms: C_28  and  C_25 
ROOT
ATOM      1  N   UNL d   1      52.167  31.567  53.121  0.00  0.00    -0.280 N 
ATOM      2  C   UNL d   1      52.386  32.355  53.224  0.00  0.00     0.091 A 
ATOM      3  C   UNL d   1      51.825  32.945  53.152  0.00  0.00     0.020 A 
ATOM      4  C   UNL d   1      51.043  32.754  52.978  0.00  0.00     0.005 A 
ATOM      5  C   UNL d   1      52.046  33.729  53.254  0.00  0.00     0.028 A 
ATOM      6  C   UNL d   1      51.384  31.376  52.947  0.00  0.00     0.082 A 
ATOM      7  C   UNL d   1      51.483  34.327  53.182  0.00  0.00     0.116 A 
ATOM      8  C   UNL d   1      50.480  33.348  52.906  0.00  0.00     0.026 A 
ATOM      9  C   UNL d   1      50.700  34.137  53.008  0.00  0.00     0.116 A 
ATOM     10  C   UNL d   1      50.820  31.975  52.875  0.00  0.00     0.019 A 
ENDROOT
BRANCH   2  11
ATOM     11  C   UNL d   1      53.170  32.546  53.398  0.00  0.00     0.140 C 
BRANCH  11  12
ATOM     12  O   UNL d   1      53.419  32.586  54.183  0.00  0.00    -0.304 OA
BRANCH  12  13
ATOM     13  C   UNL d   1      54.123  32.972  54.373  0.00  0.00     0.100 A 
ATOM     14  C   UNL d   1      54.277  33.189  55.153  0.00  0.00     0.025 A 
ATOM     15  C   UNL d   1      54.981  33.575  55.343  0.00  0.00     0.002 A 
ATOM     16  C   UNL d   1      55.142  33.796  56.126  0.00  0.00     0.000 C 
ATOM     17  C   UNL d   1      55.530  33.744  54.752  0.00  0.00     0.000 A 
ATOM     18  C   UNL d   1      55.376  33.528  53.970  0.00  0.00     0.002 A 
ATOM     19  C   UNL d   1      54.672  33.141  53.781  0.00  0.00     0.025 A 
ATOM     20  C   UNL d   1      55.938  33.704  53.382  0.00  0.00     0.000 C 
ENDBRANCH  12  13
ENDBRANCH  11  12
ENDBRANCH   2  11
BRANCH   1  21
ATOM     21  C   UNL d   1      52.732  30.960  53.193  0.00  0.00     0.206 C 
ATOM     22  S   UNL d   1      53.279  30.830  52.576  0.00  0.00    -0.038 SA
BRANCH  21  23
ATOM     23  N   UNL d   1      52.750  30.494  53.864  0.00  0.00    -0.215 NA
BRANCH  23  24
ATOM     24  C   UNL d   1      53.028  29.720  53.825  0.00  0.00     0.128 C 
BRANCH  24  25
ATOM     25  C   UNL d   1      53.293  29.341  54.508  0.00  0.00     0.137 C 
BRANCH  25  26
ATOM     26  O   UNL d   1      53.282  28.527  54.554  0.00  0.00    -0.325 OA
ATOM     27  C   UNL d   1      53.485  28.152  55.255  0.00  0.00     0.182 C 
ENDBRANCH  25  26
ENDBRANCH  24  25
ENDBRANCH  23  24
ENDBRANCH  21  23
ENDBRANCH   1  21
BRANCH   7  28
ATOM     28  O   UNL d   1      51.701  35.120  53.285  0.00  0.00    -0.326 OA
ATOM     29  C   UNL d   1      52.159  35.352  53.941  0.00  0.00     0.181 C 
ENDBRANCH   7  28
BRANCH   9  30
ATOM     30  O   UNL d   1      50.135  34.740  52.937  0.00  0.00    -0.326 OA
ATOM     31  C   UNL d   1      49.430  34.609  52.511  0.00  0.00     0.181 C 
ENDBRANCH   9  30
TORSDOF 10
ENDMDL
MODEL 2
REMARK VINA RESULT:      -4.9      1.801      4.615
REMARK  10 active torsions:
REMARK  status: ('A' for Active; 'I' for Inactive)
REMARK    1  A    between atoms: C_4  and  N_1 
REMARK    2  A    between atoms: C_10  and  C_2 
REMARK    3  A    between atoms: N_16  and  C_4 
REMARK    4  A    between atoms: O_22  and  C_8 
REMARK    5  A    between atoms: O_15  and  C_10 
REMARK    6  A    between atoms: O_23  and  C_11 
REMARK    7  A    between atoms: C_14  and  O_15 
REMARK    8  A    between atoms: C_25  and  N_16 
REMARK    9  A    between atoms: O_24  and  C_28 
REMARK   10  A    between atoms: C_28  and  C_25 
ROOT
ATOM      1  N   UNL d   1      52.107  34.300  53.230  0.00  0.00    -0.280 N 
ATOM      2  C   UNL d   1      52.472  33.662  53.606  0.00  0.00     0.091 A 
ATOM      3  C   UNL d   1      53.128  33.790  54.074  0.00  0.00     0.020 A 
ATOM      4  C   UNL d   1      53.427  34.551  54.174  0.00  0.00     0.005 A 
ATOM      5  C   UNL d   1      53.490  33.154  54.447  0.00  0.00     0.028 A 
ATOM      6  C   UNL d   1      52.405  35.062  53.330  0.00  0.00     0.082 A 
ATOM      7  C   UNL d   1      54.154  33.278  54.921  0.00  0.00     0.116 A 
ATOM      8  C   UNL d   1      54.087  34.678  54.645  0.00  0.00     0.026 A 
ATOM      9  C   UNL d   1      54.452  34.039  55.020  0.00  0.00     0.116 A 
ATOM     10  C   UNL d   1      53.069  35.186  53.804  0.00  0.00     0.019 A 
ENDROOT
BRANCH   2  11
ATOM     11  C   UNL d   1      52.173  32.900  53.506  0.00  0.00     0.140 C 
BRANCH  11  12
ATOM     12  O   UNL d   1      52.492  32.404  52.929  0.00  0.00    -0.304 OA
BRANCH  12  13
ATOM     13  C   UNL d   1      52.443  31.585  53.015  0.00  0.00     0.100 A 
ATOM     14  C   UNL d   1      51.758  31.244  53.323  0.00  0.00     0.025 A 
ATOM     15  C   UNL d   1      51.709  30.425  53.410  0.00  0.00     0.002 A 
ATOM     16  C   UNL d   1      51.023  30.075  53.719  0.00  0.00     0.000 C 
ATOM     17  C   UNL d   1      52.344  29.948  53.188  0.00  0.00     0.000 A 
ATOM     18  C   UNL d   1      53.029  30.290  52.880  0.00  0.00     0.002 A 
ATOM     19  C   UNL d   1      53.079  31.108  52.793  0.00  0.00     0.025 A 
ATOM     20  C   UNL d   1      53.664  29.799  52.660  0.00  0.00     0.000 C 
ENDBRANCH  12  13
ENDBRANCH  11  12
ENDBRANCH   2  11
BRANCH   1  21
ATOM     21  C   UNL d   1      51.437  34.179  52.751  0.00  0.00     0.206 C 
ATOM     22  S   UNL d   1      51.534  34.037  51.935  0.00  0.00    -0.038 SA
BRANCH  21  23
ATOM     23  N   UNL d   1      50.689  34.199  53.080  0.00  0.00    -0.215 NA
BRANCH  23  24
ATOM     24  C   UNL d   1      50.064  34.544  52.668  0.00  0.00     0.128 C 
BRANCH  24  25
ATOM     25  C   UNL d   1      49.404  34.822  53.078  0.00  0.00     0.137 C 
BRANCH  25  26
ATOM     26  O   UNL d   1      48.853  35.287  52.696  0.00  0.00    -0.325 OA
ATOM     27  C   UNL d   1      48.301  35.712  53.131  0.00  0.00     0.182 C 
ENDBRANCH  25  26
ENDBRANCH  24  25
ENDBRANCH  23  24
ENDBRANCH  21  23
ENDBRANCH   1  21
BRANCH   7  28
ATOM     28  O   UNL d   1      54.522  32.639  55.299  0.00  0.00    -0.326 OA
ATOM     29  C   UNL d   1      54.118  32.202  55.883  0.00  0.00     0.181 C 
ENDBRANCH   7  28
BRANCH   9  30
ATOM     30  O   UNL d   1      55.119  34.163  55.498  0.00  0.00    -0.326 OA
ATOM     31  C   UNL d   1      55.824  34.462  55.169  0.00  0.00     0.181 C 
ENDBRANCH   9  30
TORSDOF 10
ENDMDL
MODEL 3
REMARK VINA RESULT:      -3.8      1.521      4.852
REMARK  10 active torsions:
REMARK  status: ('A' for Active; 'I' for Inactive)
REMARK    1  A    between atoms: C_4  and  N_1 
REMARK    2  A    between atoms: C_10  and  C_2 
REMARK    3  A    between atoms: N_16  and  C_4 
REMARK    4  A    between atoms: O_22  and  C_8 
REMARK    5  A    between atoms: O_15  and  C_10 
REMARK    6  A    between atoms: O_23  and  C_11 
REMARK    7  A    between atoms: C_14  and  O_15 
REMARK    8  A    between atoms: C_25  and  N_16 
REMARK    9  A    between atoms: O_24  and  C_28 
REMARK   10  A    between atoms: C_28  and  C_25 
ROOT
ATOM      1  N   UNL d   1      53.734  32.964  53.780  0.00  0.00    -0.280 N 
ATOM      2  C   UNL d   1      53.115  32.532  53.446  0.00  0.00     0.091 A 
ATOM      3  C   UNL d   1      53.090  31.722  53.539  0.00  0.00     0.020 A 
ATOM      4  C   UNL d   1      53.680  31.334  53.964  0.00  0.00     0.005 A 
ATOM      5  C   UNL d   1      52.474  31.294  53.205  0.00  0.00     0.028 A 
ATOM      6  C   UNL d   1      54.324  32.576  54.205  0.00  0.00     0.082 A 
ATOM      7  C   UNL d   1      52.444  30.475  53.297  0.00  0.00     0.116 A 
ATOM      8  C   UNL d   1      53.653  30.518  54.057  0.00  0.00     0.026 A 
ATOM      9  C   UNL d   1      53.034  30.087  53.722  0.00  0.00     0.116 A 
ATOM     10  C   UNL d   1      54.295  31.756  54.297  0.00  0.00     0.019 A 
ENDROOT
BRANCH   2  11
ATOM     11  C   UNL d   1      52.525  32.921  53.020  0.00  0.00     0.140 C 
BRANCH  11  12
ATOM     12  O   UNL d   1      51.757  32.958  53.319  0.00  0.00    -0.304 OA
BRANCH  12  13
ATOM     13  C   UNL d   1      51.208  33.474  52.983  0.00  0.00     0.100 A 
ATOM     14  C   UNL d   1      51.184  33.574  52.165  0.00  0.00     0.025 A 
ATOM     15  C   UNL d   1      50.635  34.090  51.829  0.00  0.00     0.002 A 
ATOM     16  C   UNL d   1      50.605  34.196  51.007  0.00  0.00     0.000 C 
ATOM     17  C   UNL d   1      50.111  34.506  52.312  0.00  0.00     0.000 A 
ATOM     18  C   UNL d   1      50.136  34.406  53.131  0.00  0.00     0.002 A 
ATOM     19  C   UNL d   1      50.685  33.890  53.466  0.00  0.00     0.025 A 
ATOM     20  C   UNL d   1      49.602  34.831  53.608  0.00  0.00     0.000 C 
ENDBRANCH  12  13
ENDBRANCH  11  12
ENDBRANCH   2  11
BRANCH   1  21
ATOM     21  C   UNL d   1      53.767  33.791  53.690  0.00  0.00     0.206 C 
ATOM     22  S   UNL d   1      54.038  34.117  52.972  0.00  0.00    -0.038 SA
BRANCH  21  23
ATOM     23  N   UNL d   1      53.536  34.279  54.303  0.00  0.00    -0.215 NA
BRANCH  23  24
ATOM     24  C   UNL d   1      53.684  35.089  54.268  0.00  0.00     0.128 C 
BRANCH  24  25
ATOM     25  C   UNL d   1      53.400  35.586  54.862  0.00  0.00     0.137 C 
BRANCH  25  26
ATOM     26  O   UNL d   1      53.112  36.325  54.672  0.00  0.00    -0.325 OA
ATOM     27  C   UNL d   1      52.596  36.709  55.182  0.00  0.00     0.182 C 
ENDBRANCH  25  26
ENDBRANCH  24  25
ENDBRANCH  23  24
ENDBRANCH  21  23
ENDBRANCH   1  21
BRANCH   7  28
ATOM     28  O   UNL d   1      51.824  30.040  52.962  0.00  0.00    -0.326 OA
ATOM     29  C   UNL d   1      51.074  30.025  53.324  0.00  0.00     0.181 C 
ENDBRANCH   7  28
BRANCH   9  30
ATOM     30  O   UNL d   1      53.003  29.263  53.813  0.00  0.00    -0.326 OA
ATOM     31  C   UNL d   1      53.437  28.889  54.419  0.00  0.00     0.181 C 
ENDBRANCH   9  30
TORSDOF 10
ENDMDL
MODEL 4
REMARK VINA RESULT:      -3.6      1.210      3.706
REMARK  10 active torsions:
REMARK  status: ('A' for Active; 'I' for Inactive)
REMARK    1  A    between atoms: C_4  and  N_1 
REMARK    2  A    between atoms: C_10  and  C_2 
REMARK    3  A    between atoms: N_16  and  C_4 
REMARK    4  A    between atoms: O_22  and  C_8 
REMARK    5  A    between atoms: O_15  and  C_10 
REMARK    6  A    between atoms: O_23  and  C_11 
REMARK    7  A    between atoms: C_14  and  O_15 
REMARK    8  A    between atoms: C_25  and  N_16 
REMARK    9  A    between atoms: O_24  and  C_28 
REMARK   10  A    between atoms: C_28  and  C_25 
ROOT
ATOM      1  N   UNL d   1      53.384  31.879  53.453  0.00  0.00    -0.280 N 
ATOM      2  C   UNL d   1      53.137  32.646  53.629  0.00  0.00     0.091 A 
ATOM      3  C   UNL d   1      53.643  33.154  54.021  0.00  0.00     0.020 A 
ATOM      4  C   UNL d   1      54.397  32.903  54.240  0.00  0.00     0.005 A 
ATOM      5  C   UNL d   1      53.395  33.917  54.195  0.00  0.00     0.028 A 
ATOM      6  C   UNL d   1      54.138  31.628  53.672  0.00  0.00     0.082 A 
ATOM      7  C   UNL d   1      53.903  34.434  54.591  0.00  0.00     0.116 A 
ATOM      8  C   UNL d   1      54.904  33.416  54.634  0.00  0.00     0.026 A 
ATOM      9  C   UNL d   1      54.656  34.183  54.810  0.00  0.00     0.116 A 
ATOM     10  C   UNL d   1      54.646  32.145  54.068  0.00  0.00     0.019 A 
ENDROOT
BRANCH   2  11
ATOM     11  C   UNL d   1      52.383  32.897  53.410  0.00  0.00     0.140 C 
BRANCH  11  12
ATOM     12  O   UNL d   1      52.292  33.439  52.794  0.00  0.00    -0.304 OA
BRANCH  12  13
ATOM     13  C   UNL d   1      51.545  33.746  52.623  0.00  0.00     0.100 A 
ATOM     14  C   UNL d   1      51.344  33.932  51.846  0.00  0.00     0.025 A 
ATOM     15  C   UNL d   1      50.598  34.240  51.675  0.00  0.00     0.002 A 
ATOM     16  C   UNL d   1      50.389  34.429  50.894  0.00  0.00     0.000 C 
ATOM     17  C   UNL d   1      50.054  34.361  52.282  0.00  0.00     0.000 A 
ATOM     18  C   UNL d   1      50.255  34.176  53.060  0.00  0.00     0.002 A 
ATOM     19  C   UNL d   1      51.001  33.868  53.231  0.00  0.00     0.025 A 
ATOM     20  C   UNL d   1      49.697  34.302  53.666  0.00  0.00     0.000 C 
ENDBRANCH  12  13
ENDBRANCH  11  12
ENDBRANCH   2  11
BRANCH   1  21
ATOM     21  C   UNL d   1      52.875  31.355  53.054  0.00  0.00     0.206 C 
ATOM     22  S   UNL d   1      52.805  31.398  52.224  0.00  0.00    -0.038 SA
BRANCH  21  23
ATOM     23  N   UNL d   1      52.447  30.800  53.475  0.00  0.00    -0.215 NA
BRANCH  23  24
ATOM     24  C   UNL d   1      52.545  29.996  53.322  0.00  0.00     0.128 C 
BRANCH  24  25
ATOM     25  C   UNL d   1      52.421  29.444  53.922  0.00  0.00     0.137 C 
BRANCH  25  26
ATOM     26  O   UNL d   1      52.917  28.801  53.994  0.00  0.00    -0.325 OA
ATOM     27  C   UNL d   1      53.167  28.554  54.736  0.00  0.00     0.182 C 
ENDBRANCH  25  26
ENDBRANCH  24  25
ENDBRANCH  23  24
ENDBRANCH  21  23
ENDBRANCH   1  21
BRANCH   7  28
ATOM     28  O   UNL d   1      53.657  35.205  54.769  0.00  0.00    -0.326 OA
ATOM     29  C   UNL d   1      53.012  35.337  55.279  0.00  0.00     0.181 C 
ENDBRANCH   7  28
BRANCH   9  30
ATOM     30  O   UNL d   1      55.165  34.704  55.207  0.00  0.00    -0.326 OA
ATOM     31  C   UNL d   1      55.920  34.450  55.453  0.00  0.00     0.181 C 
ENDBRANCH   9  30
TORSDOF 10
ENDMDL
MODEL 5
REMARK VINA RESULT:      -2.2      1.466      4.033
REMARK  10 active torsions:
REMARK  status: ('A' for Active; 'I' for Inactive)
REMARK    1  A    between atoms: C_4  and  N_1 
REMARK    2  A    between atoms: C_10  and  C_2 
REMARK    3  A    between atoms: N_16  and  C_4 
REMARK    4  A    between atoms: O_22  and  C_8 
REMARK    5  A    between atoms: O_15  and  C_10 
REMARK    6  A    between atoms: O_23  and  C_11 
REMARK    7  A    between atoms: C_14  and  O_15 
REMARK    8  A    between atoms: C_25  and  N_16 
REMARK    9  A    between atoms: O_24  and  C_28 
REMARK   10  A    between atoms: C_28  and  C_25 
ROOT
ATOM      1  N   UNL d   1      51.371  33.048  52.862  0.00  0.00    -0.280 N 
ATOM      2  C   UNL d   1      52.107  32.852  53.179  0.00  0.00     0.091 A 
ATOM      3  C   UNL d   1      52.328  32.068  53.236  0.00  0.00     0.020 A 
ATOM      4  C   UNL d   1      51.819  31.473  52.979  0.00  0.00     0.005 A 
ATOM      5  C   UNL d   1      53.061  31.875  53.551  0.00  0.00     0.028 A 
ATOM      6  C   UNL d   1      50.862  32.454  52.606  0.00  0.00     0.082 A 
ATOM      7  C   UNL d   1      53.288  31.084  53.610  0.00  0.00     0.116 A 
ATOM      8  C   UNL d   1      52.042  30.685  53.037  0.00  0.00     0.026 A 
ATOM      9  C   UNL d   1      52.779  30.489  53.353  0.00  0.00     0.116 A 
ATOM     10  C   UNL d   1      51.088  31.662  52.665  0.00  0.00     0.019 A 
ENDROOT
BRANCH   2  11
ATOM     11  C   UNL d   1      52.617  33.447  53.436  0.00  0.00     0.140 C 
BRANCH  11  12
ATOM     12  O   UNL d   1      52.692  33.606  54.242  0.00  0.00    -0.304 OA
BRANCH  12  13
ATOM     13  C   UNL d   1      53.266  34.137  54.506  0.00  0.00     0.100 A 
ATOM     14  C   UNL d   1      53.108  34.946  54.508  0.00  0.00     0.025 A 
ATOM     15  C   UNL d   1      53.682  35.477  54.772  0.00  0.00     0.002 A 
ATOM     16  C   UNL d   1      53.530  36.293  54.776  0.00  0.00     0.000 C 
ATOM     17  C   UNL d   1      54.412  35.199  55.034  0.00  0.00     0.000 A 
ATOM     18  C   UNL d   1      54.570  34.389  55.032  0.00  0.00     0.002 A 
ATOM     19  C   UNL d   1      53.996  33.858  54.768  0.00  0.00     0.025 A 
ATOM     20  C   UNL d   1      55.310  34.118  55.299  0.00  0.00     0.000 C 
ENDBRANCH  12  13
ENDBRANCH  11  12
ENDBRANCH   2  11
BRANCH   1  21
ATOM     21  C   UNL d   1      51.138  33.845  52.801  0.00  0.00     0.206 C 
ATOM     22  S   UNL d   1      51.541  34.353  52.276  0.00  0.00    -0.038 SA
BRANCH  21  23
ATOM     23  N   UNL d   1      50.518  34.127  53.253  0.00  0.00    -0.215 NA
BRANCH  23  24
ATOM     24  C   UNL d   1      49.998  34.685  52.942  0.00  0.00     0.128 C 
BRANCH  24  25
ATOM     25  C   UNL d   1      49.452  35.060  53.434  0.00  0.00     0.137 C 
BRANCH  25  26
ATOM     26  O   UNL d   1      48.797  35.423  53.114  0.00  0.00    -0.325 OA
ATOM     27  C   UNL d   1      48.342  35.930  53.573  0.00  0.00     0.182 C 
ENDBRANCH  25  26
ENDBRANCH  24  25
ENDBRANCH  23  24
ENDBRANCH  21  23
ENDBRANCH   1  21
BRANCH   7  28
ATOM     28  O   UNL d   1      54.027  30.885  53.928  0.00  0.00    -0.326 OA
ATOM     29  C   UNL d   1      54.717  30.942  53.464  0.00  0.00     0.181 C 
ENDBRANCH   7  28
BRANCH   9  30
ATOM     30  O   UNL d   1      53.008  29.695  53.414  0.00  0.00    -0.326 OA
ATOM     31  C   UNL d   1      52.434  29.093  53.476  0.00  0.00     0.181 C 
ENDBRANCH   9  30
TORSDOF 10
ENDMDL
