MODEL 1
REMARK VINA RESULT:      58.4      0.000      0.000
REMARK  5 active torsions:
REMARK  status: ('A' for Active; 'I' for Inactive)
REMARK    1  A    between atoms: C_3  and  C_1 
REMARK       I    between atoms: N_2  and  C_4 
REMARK    2  A    between atoms: C_5  and  N_2 
REMARK       I    between atoms: N_6  and  C_3 
REMARK    3  A    between atoms: C_4  and  C_7 
REMARK    4  A    between atoms: C_7  and  N_6 
REMARK    5  A    between atoms: C_21  and  C_7 
ROOT
ATOM      1  C   UNL d   1      58.527  49.590  51.971  0.00  0.00     0.263 C 
ATOM      2  N   UNL d   1      58.135  49.536  52.687  0.00  0.00    -0.206 NA
ATOM      3  O   UNL d   1      58.082  49.638  51.274  0.00  0.00    -0.270 OA
ENDROOT
BRANCH   2   4
ATOM      4  C   UNL d   1      57.320  49.531  52.717  0.00  0.00     0.142 C 
BRANCH   4   5
ATOM      5  C   UNL d   1      56.923  49.518  53.451  0.00  0.00     0.299 C 
ATOM      6  N   UNL d   1      57.339  49.466  54.144  0.00  0.00    -0.181 NA
ATOM      7  O   UNL d   1      56.099  49.560  53.453  0.00  0.00    -0.263 OA
BRANCH   6   8
ATOM      8  C   UNL d   1      56.952  49.453  54.872  0.00  0.00     0.197 A 
ATOM      9  N   UNL d   1      57.334  49.161  55.559  0.00  0.00    -0.219 NA
ATOM     10  C   UNL d   1      56.795  49.228  56.184  0.00  0.00     0.108 A 
ATOM     11  C   UNL d   1      56.117  49.537  55.922  0.00  0.00     0.059 A 
ATOM     12  S   UNL d   1      56.182  49.695  55.081  0.00  0.00    -0.046 SA
ENDBRANCH   6   8
ENDBRANCH   4   5
BRANCH   4  13
ATOM     13  C   UNL d   1      56.895  49.537  52.019  0.00  0.00     0.022 C 
ATOM     14  C   UNL d   1      56.085  49.376  52.032  0.00  0.00     0.002 C 
ATOM     15  C   UNL d   1      57.291  49.703  51.338  0.00  0.00     0.002 C 
ENDBRANCH   4  13
ENDBRANCH   2   4
BRANCH   1  16
ATOM     16  C   UNL d   1      59.332  49.595  51.941  0.00  0.00     0.111 A 
ATOM     17  C   UNL d   1      59.358  49.661  52.653  0.00  0.00     0.026 A 
ATOM     18  C   UNL d   1      60.032  49.701  53.008  0.00  0.00     0.045 A 
ATOM     19  C   UNL d   1      60.689  49.649  52.365  0.00  0.00    -0.022 A 
ATOM     20  C   UNL d   1      60.857  49.679  52.675  0.00  0.00    -0.022 A 
ATOM     21  C   UNL d   1      60.659  49.572  51.532  0.00  0.00    -0.007 A 
ATOM     22  C   UNL d   1      59.846  49.540  51.281  0.00  0.00    -0.014 A 
ATOM     23  C   UNL d   1      61.378  49.551  51.225  0.00  0.00    -0.001 A 
ATOM     24  C   UNL d   1      60.829  49.609  51.923  0.00  0.00    -0.007 A 
ATOM     25  C   UNL d   1      59.982  49.574  51.634  0.00  0.00    -0.014 A 
ENDBRANCH   1  16
TORSDOF 5
ENDMDL
MODEL 2
REMARK VINA RESULT:      59.7      2.825      4.330
REMARK  5 active torsions:
REMARK  status: ('A' for Active; 'I' for Inactive)
REMARK    1  A    between atoms: C_3  and  C_1 
REMARK       I    between atoms: N_2  and  C_4 
REMARK    2  A    between atoms: C_5  and  N_2 
REMARK       I    between atoms: N_6  and  C_3 
REMARK    3  A    between atoms: C_4  and  C_7 
REMARK    4  A    between atoms: C_7  and  N_6 
REMARK    5  A    between atoms: C_21  and  C_7 
ROOT
ATOM      1  C   UNL d   1      60.907  47.757  50.724  0.00  0.00     0.263 C 
ATOM      2  N   UNL d   1      60.593  48.341  50.246  0.00  0.00    -0.206 NA
ATOM      3  O   UNL d   1      60.913  47.870  51.545  0.00  0.00    -0.270 OA
ENDROOT
BRANCH   2   4
ATOM      4  C   UNL d   1      60.288  49.026  50.570  0.00  0.00     0.142 C 
BRANCH   4   5
ATOM      5  C   UNL d   1      59.511  49.269  50.394  0.00  0.00     0.299 C 
ATOM      6  N   UNL d   1      58.896  49.078  50.887  0.00  0.00    -0.181 NA
ATOM      7  O   UNL d   1      59.382  49.708  49.707  0.00  0.00    -0.263 OA
BRANCH   6   8
ATOM      8  C   UNL d   1      58.126  49.316  50.718  0.00  0.00     0.197 A 
ATOM      9  N   UNL d   1      57.869  49.413  49.925  0.00  0.00    -0.219 NA
ATOM     10  C   UNL d   1      57.077  49.652  49.953  0.00  0.00     0.108 A 
ATOM     11  C   UNL d   1      56.840  49.706  50.705  0.00  0.00     0.059 A 
ATOM     12  S   UNL d   1      57.489  49.496  51.224  0.00  0.00    -0.046 SA
ENDBRANCH   6   8
ENDBRANCH   4   5
BRANCH   4  13
ATOM     13  C   UNL d   1      60.756  49.473  51.071  0.00  0.00     0.022 C 
ATOM     14  C   UNL d   1      61.513  49.699  50.829  0.00  0.00     0.002 C 
ATOM     15  C   UNL d   1      60.453  49.675  51.789  0.00  0.00     0.002 C 
ENDBRANCH   4  13
ENDBRANCH   2   4
BRANCH   1  16
ATOM     16  C   UNL d   1      61.208  47.081  50.405  0.00  0.00     0.111 A 
ATOM     17  C   UNL d   1      60.751  46.693  50.796  0.00  0.00     0.026 A 
ATOM     18  C   UNL d   1      60.754  45.932  50.742  0.00  0.00     0.045 A 
ATOM     19  C   UNL d   1      61.404  45.698  50.133  0.00  0.00    -0.022 A 
ATOM     20  C   UNL d   1      61.259  45.395  50.245  0.00  0.00    -0.022 A 
ATOM     21  C   UNL d   1      61.938  46.152  49.676  0.00  0.00    -0.007 A 
ATOM     22  C   UNL d   1      61.819  46.978  49.840  0.00  0.00    -0.014 A 
ATOM     23  C   UNL d   1      62.390  45.692  49.232  0.00  0.00    -0.001 A 
ATOM     24  C   UNL d   1      61.742  45.805  49.831  0.00  0.00    -0.007 A 
ATOM     25  C   UNL d   1      61.635  46.680  49.987  0.00  0.00    -0.014 A 
ENDBRANCH   1  16
TORSDOF 5
ENDMDL
