MODEL 1
REMARK VINA RESULT:       7.4      0.000      0.000
REMARK  7 active torsions:
REMARK  status: ('A' for Active; 'I' for Inactive)
REMARK    1  A    between atoms: C_4  and  C_1 
REMARK    2  A    between atoms: C_13  and  N_3 
REMARK    3  A    between atoms: C_15  and  N_5 
REMARK    4  A    between atoms: C_12  and  C_15 
REMARK    5  A    between atoms: C_18  and  C_13 
REMARK    6  A    between atoms: O_16  and  C_18 
REMARK    7  A    between atoms: C_17  and  O_16 
ROOT
ATOM      1  C   UNL d   1     -41.570-121.249 -50.979  0.00  0.00     0.149 A 
ATOM      2  N   UNL d   1     -41.466-120.491 -50.667  0.00  0.00    -0.227 NA
ATOM      3  N   UNL d   1     -41.519-121.196 -51.805  0.00  0.00    -0.287 N 
ATOM      4  C   UNL d   1     -41.382-120.396 -52.004  0.00  0.00     0.083 A 
ATOM      5  C   UNL d   1     -41.351-119.967 -51.298  0.00  0.00     0.099 A 
ATOM      6  C   UNL d   1     -41.284-120.010 -52.726  0.00  0.00     0.019 A 
ATOM      7  C   UNL d   1     -41.221-119.153 -51.314  0.00  0.00     0.021 A 
ATOM      8  C   UNL d   1     -41.154-119.196 -52.743  0.00  0.00     0.002 A 
ATOM      9  C   UNL d   1     -41.123-118.771 -52.043  0.00  0.00     0.002 A 
ENDROOT
BRANCH   1  10
ATOM     10  C   UNL d   1     -41.702-121.944 -50.551  0.00  0.00     0.057 A 
ATOM     11  C   UNL d   1     -41.232-122.240 -49.942  0.00  0.00     0.086 A 
ATOM     12  N   UNL d   1     -41.574-122.945 -49.678  0.00  0.00    -0.272 N 
ATOM     13  C   UNL d   1     -42.256-123.081 -50.125  0.00  0.00     0.265 A 
ATOM     14  C   UNL d   1     -42.330-122.460 -50.663  0.00  0.00     0.066 A 
ATOM     15  O   UNL d   1     -42.765-123.724 -50.044  0.00  0.00    -0.267 OA
BRANCH  12  16
ATOM     16  C   UNL d   1     -41.278-123.422 -49.070  0.00  0.00     0.083 C 
BRANCH  16  17
ATOM     17  C   UNL d   1     -41.403-123.227 -48.277  0.00  0.00     0.019 C 
ATOM     18  C   UNL d   1     -41.572-123.817 -47.724  0.00  0.00     0.002 C 
ENDBRANCH  16  17
ENDBRANCH  12  16
ENDBRANCH   1  10
BRANCH   3  19
ATOM     19  C   UNL d   1     -41.612-121.913 -52.201  0.00  0.00     0.108 C 
BRANCH  19  20
ATOM     20  C   UNL d   1     -41.514-121.950 -53.018  0.00  0.00     0.142 C 
BRANCH  20  21
ATOM     21  O   UNL d   1     -41.892-122.533 -53.452  0.00  0.00    -0.304 OA
BRANCH  21  22
ATOM     22  C   UNL d   1     -41.956-122.465 -54.270  0.00  0.00     0.100 A 
ATOM     23  C   UNL d   1     -42.500-121.952 -54.592  0.00  0.00     0.025 A 
ATOM     24  C   UNL d   1     -42.561-121.886 -55.408  0.00  0.00     0.002 A 
ATOM     25  C   UNL d   1     -42.077-122.334 -55.893  0.00  0.00     0.000 A 
ATOM     26  C   UNL d   1     -41.528-122.851 -55.554  0.00  0.00     0.002 A 
ATOM     27  C   UNL d   1     -41.468-122.916 -54.747  0.00  0.00     0.025 A 
ENDBRANCH  21  22
ENDBRANCH  20  21
ENDBRANCH  19  20
ENDBRANCH   3  19
TORSDOF 7
ENDMDL
