MODEL 1
REMARK VINA RESULT:      -8.2      0.000      0.000
REMARK  6 active torsions:
REMARK  status: ('A' for Active; 'I' for Inactive)
REMARK    1  A    between atoms: C_12  and  N_1 
REMARK    2  A    between atoms: S_10  and  C_2 
REMARK    3  A    between atoms: C_5  and  N_7 
REMARK       I    between atoms: N_7  and  C_11 
REMARK    4  A    between atoms: C_16  and  S_10 
REMARK    5  A    between atoms: C_11  and  C_16 
REMARK    6  A    between atoms: C_17  and  C_12 
ROOT
ATOM      1  N   UNL d   1     -48.638  13.349  22.462  0.00  0.00    -0.303 N 
ATOM      2  C   UNL d   1     -47.414  13.241  22.983  0.00  0.00     0.049 A 
ATOM      3  C   UNL d   1     -48.115  12.827  22.793  0.00  0.00     0.087 A 
ATOM      4  C   UNL d   1     -47.534  14.026  22.756  0.00  0.00     0.024 A 
ATOM      5  C   UNL d   1     -48.291  14.093  22.434  0.00  0.00     0.065 A 
ATOM      6  C   UNL d   1     -47.046  14.685  22.804  0.00  0.00     0.002 A 
ATOM      7  C   UNL d   1     -48.559  14.819  22.160  0.00  0.00     0.018 A 
ATOM      8  C   UNL d   1     -47.315  15.416  22.529  0.00  0.00     0.000 A 
ATOM      9  C   UNL d   1     -48.072  15.483  22.207  0.00  0.00     0.002 A 
ENDROOT
BRANCH   2  10
ATOM     10  S   UNL d   1     -46.735  12.932  23.329  0.00  0.00    -0.080 SA
BRANCH  10  11
ATOM     11  C   UNL d   1     -46.609  12.111  23.345  0.00  0.00     0.098 C 
BRANCH  11  12
ATOM     12  C   UNL d   1     -45.849  11.798  23.342  0.00  0.00     0.288 C 
ATOM     13  N   UNL d   1     -45.712  11.009  23.542  0.00  0.00    -0.182 NA
ATOM     14  O   UNL d   1     -45.221  12.281  23.139  0.00  0.00    -0.265 OA
BRANCH  13  15
ATOM     15  C   UNL d   1     -44.946  10.706  23.536  0.00  0.00     0.197 A 
ATOM     16  N   UNL d   1     -44.218  11.066  23.390  0.00  0.00    -0.219 NA
ATOM     17  C   UNL d   1     -43.632  10.483  23.462  0.00  0.00     0.108 A 
ATOM     18  C   UNL d   1     -44.007   9.775  23.651  0.00  0.00     0.059 A 
ATOM     19  S   UNL d   1     -44.820   9.914  23.697  0.00  0.00    -0.046 SA
ENDBRANCH  13  15
ENDBRANCH  11  12
ENDBRANCH  10  11
ENDBRANCH   2  10
BRANCH   1  20
ATOM     20  C   UNL d   1     -49.410  13.159  22.192  0.00  0.00     0.080 C 
BRANCH  20  21
ATOM     21  C   UNL d   1     -49.944  12.786  22.692  0.00  0.00     0.018 A 
ATOM     22  C   UNL d   1     -50.464  13.226  23.157  0.00  0.00     0.002 A 
ATOM     23  C   UNL d   1     -50.999  12.848  23.657  0.00  0.00     0.000 A 
ATOM     24  C   UNL d   1     -51.020  12.031  23.698  0.00  0.00     0.000 A 
ATOM     25  C   UNL d   1     -50.496  11.576  23.229  0.00  0.00     0.000 A 
ATOM     26  C   UNL d   1     -49.960  11.962  22.729  0.00  0.00     0.002 A 
ENDBRANCH  20  21
ENDBRANCH   1  20
TORSDOF 6
ENDMDL
MODEL 2
REMARK VINA RESULT:      -5.8      0.718      2.512
REMARK  6 active torsions:
REMARK  status: ('A' for Active; 'I' for Inactive)
REMARK    1  A    between atoms: C_12  and  N_1 
REMARK    2  A    between atoms: S_10  and  C_2 
REMARK    3  A    between atoms: C_5  and  N_7 
REMARK       I    between atoms: N_7  and  C_11 
REMARK    4  A    between atoms: C_16  and  S_10 
REMARK    5  A    between atoms: C_11  and  C_16 
REMARK    6  A    between atoms: C_17  and  C_12 
ROOT
ATOM      1  N   UNL d   1     -48.783  12.896  22.440  0.00  0.00    -0.303 N 
ATOM      2  C   UNL d   1     -47.955  12.077  23.091  0.00  0.00     0.049 A 
ATOM      3  C   UNL d   1     -48.003  12.750  22.598  0.00  0.00     0.087 A 
ATOM      4  C   UNL d   1     -48.731  11.824  23.224  0.00  0.00     0.024 A 
ATOM      5  C   UNL d   1     -49.243  12.331  22.821  0.00  0.00     0.065 A 
ATOM      6  C   UNL d   1     -49.029  11.197  23.661  0.00  0.00     0.002 A 
ATOM      7  C   UNL d   1     -50.054  12.209  22.856  0.00  0.00     0.018 A 
ATOM      8  C   UNL d   1     -49.845  11.073  23.697  0.00  0.00     0.000 A 
ATOM      9  C   UNL d   1     -50.357  11.579  23.295  0.00  0.00     0.002 A 
ENDROOT
BRANCH   2  10
ATOM     10  S   UNL d   1     -47.272  11.729  23.389  0.00  0.00    -0.080 SA
BRANCH  10  11
ATOM     11  C   UNL d   1     -46.563  12.162  23.426  0.00  0.00     0.098 C 
BRANCH  11  12
ATOM     12  C   UNL d   1     -45.837  11.795  23.313  0.00  0.00     0.288 C 
ATOM     13  N   UNL d   1     -45.651  11.088  23.698  0.00  0.00    -0.182 NA
ATOM     14  O   UNL d   1     -45.291  12.139  22.810  0.00  0.00    -0.265 OA
BRANCH  13  15
ATOM     15  C   UNL d   1     -44.920  10.729  23.578  0.00  0.00     0.197 A 
ATOM     16  N   UNL d   1     -44.150  11.013  23.672  0.00  0.00    -0.219 NA
ATOM     17  C   UNL d   1     -43.631  10.399  23.467  0.00  0.00     0.108 A 
ATOM     18  C   UNL d   1     -44.087   9.749  23.250  0.00  0.00     0.059 A 
ATOM     19  S   UNL d   1     -44.884   9.954  23.319  0.00  0.00    -0.046 SA
ENDBRANCH  13  15
ENDBRANCH  11  12
ENDBRANCH  10  11
ENDBRANCH   2  10
BRANCH   1  20
ATOM     20  C   UNL d   1     -49.074  13.523  21.965  0.00  0.00     0.080 C 
BRANCH  20  21
ATOM     21  C   UNL d   1     -48.960  14.303  22.192  0.00  0.00     0.018 A 
ATOM     22  C   UNL d   1     -48.252  14.693  22.023  0.00  0.00     0.002 A 
ATOM     23  C   UNL d   1     -48.142  15.476  22.253  0.00  0.00     0.000 A 
ATOM     24  C   UNL d   1     -48.733  15.877  22.651  0.00  0.00     0.000 A 
ATOM     25  C   UNL d   1     -49.455  15.490  22.827  0.00  0.00     0.000 A 
ATOM     26  C   UNL d   1     -49.560  14.702  22.593  0.00  0.00     0.002 A 
ENDBRANCH  20  21
ENDBRANCH   1  20
TORSDOF 6
ENDMDL
MODEL 3
REMARK VINA RESULT:      -5.7      1.447      1.669
REMARK  6 active torsions:
REMARK  status: ('A' for Active; 'I' for Inactive)
REMARK    1  A    between atoms: C_12  and  N_1 
REMARK    2  A    between atoms: S_10  and  C_2 
REMARK    3  A    between atoms: C_5  and  N_7 
REMARK       I    between atoms: N_7  and  C_11 
REMARK    4  A    between atoms: C_16  and  S_10 
REMARK    5  A    between atoms: C_11  and  C_16 
REMARK    6  A    between atoms: C_17  and  C_12 
ROOT
ATOM      1  N   UNL d   1     -48.600  13.231  22.214  0.00  0.00    -0.303 N 
ATOM      2  C   UNL d   1     -47.313  13.356  22.544  0.00  0.00     0.049 A 
ATOM      3  C   UNL d   1     -47.921  12.814  22.356  0.00  0.00     0.087 A 
ATOM      4  C   UNL d   1     -47.650  14.110  22.511  0.00  0.00     0.024 A 
ATOM      5  C   UNL d   1     -48.445  14.033  22.307  0.00  0.00     0.065 A 
ATOM      6  C   UNL d   1     -47.327  14.854  22.643  0.00  0.00     0.002 A 
ATOM      7  C   UNL d   1     -48.918  14.700  22.233  0.00  0.00     0.018 A 
ATOM      8  C   UNL d   1     -47.802  15.526  22.569  0.00  0.00     0.000 A 
ATOM      9  C   UNL d   1     -48.598  15.449  22.365  0.00  0.00     0.002 A 
ENDROOT
BRANCH   2  10
ATOM     10  S   UNL d   1     -46.532  13.179  22.728  0.00  0.00    -0.080 SA
BRANCH  10  11
ATOM     11  C   UNL d   1     -46.138  12.563  22.334  0.00  0.00     0.098 C 
BRANCH  11  12
ATOM     12  C   UNL d   1     -45.318  12.506  22.351  0.00  0.00     0.288 C 
ATOM     13  N   UNL d   1     -44.863  12.695  21.688  0.00  0.00    -0.182 NA
ATOM     14  O   UNL d   1     -44.950  12.256  23.037  0.00  0.00    -0.265 OA
BRANCH  13  15
ATOM     15  C   UNL d   1     -44.043  12.633  21.715  0.00  0.00     0.197 A 
ATOM     16  N   UNL d   1     -43.547  12.115  22.125  0.00  0.00    -0.219 NA
ATOM     17  C   UNL d   1     -42.765  12.318  21.937  0.00  0.00     0.108 A 
ATOM     18  C   UNL d   1     -42.790  12.955  21.417  0.00  0.00     0.059 A 
ATOM     19  S   UNL d   1     -43.581  13.149  21.280  0.00  0.00    -0.046 SA
ENDBRANCH  13  15
ENDBRANCH  11  12
ENDBRANCH  10  11
ENDBRANCH   2  10
BRANCH   1  20
ATOM     20  C   UNL d   1     -49.341  12.897  22.005  0.00  0.00     0.080 C 
BRANCH  20  21
ATOM     21  C   UNL d   1     -49.786  12.493  22.564  0.00  0.00     0.018 A 
ATOM     22  C   UNL d   1     -49.465  11.855  22.978  0.00  0.00     0.002 A 
ATOM     23  C   UNL d   1     -49.916  11.452  23.538  0.00  0.00     0.000 A 
ATOM     24  C   UNL d   1     -50.686  11.681  23.691  0.00  0.00     0.000 A 
ATOM     25  C   UNL d   1     -51.019  12.327  23.277  0.00  0.00     0.000 A 
ATOM     26  C   UNL d   1     -50.562  12.728  22.715  0.00  0.00     0.002 A 
ENDBRANCH  20  21
ENDBRANCH   1  20
TORSDOF 6
ENDMDL
