MODEL 1
REMARK VINA RESULT:      -6.8      0.000      0.000
REMARK  5 active torsions:
REMARK  status: ('A' for Active; 'I' for Inactive)
REMARK    1  A    between atoms: C_11  and  C_1 
REMARK    2  A    between atoms: C_2  and  N_5 
REMARK    3  A    between atoms: N_3  and  C_7 
REMARK       I    between atoms: N_5  and  C_6 
REMARK    4  A    between atoms: C_6  and  C_9 
REMARK    5  A    between atoms: C_16  and  C_8 
ROOT
ATOM      1  N   UNL d   1     -41.542-123.210 -52.224  0.00  0.00    -0.183 NA
ATOM      2  C   UNL d   1     -41.472-122.583 -52.837  0.00  0.00     0.281 C 
ATOM      3  O   UNL d   1     -41.394-121.784 -52.599  0.00  0.00    -0.265 OA
ENDROOT
BRANCH   2   4
ATOM      4  C   UNL d   1     -41.485-122.822 -53.680  0.00  0.00     0.065 A 
ATOM      5  C   UNL d   1     -41.864-122.304 -54.199  0.00  0.00     0.091 A 
ATOM      6  C   UNL d   1     -41.887-122.516 -55.007  0.00  0.00     0.133 A 
ATOM      7  C   UNL d   1     -41.542-123.217 -55.273  0.00  0.00     0.024 A 
ATOM      8  C   UNL d   1     -41.160-123.738 -54.743  0.00  0.00     0.002 A 
ATOM      9  C   UNL d   1     -41.141-123.523 -53.946  0.00  0.00     0.005 A 
BRANCH   5  10
ATOM     10  C   UNL d   1     -42.203-121.614 -53.938  0.00  0.00     0.213 C 
ATOM     11  O   UNL d   1     -43.010-121.584 -53.722  0.00  0.00    -0.644 OA
ATOM     12  O   UNL d   1     -41.705-121.004 -53.912  0.00  0.00    -0.644 OA
ENDBRANCH   5  10
BRANCH   6  13
ATOM     13  N   UNL d   1     -42.251-122.031 -55.551  0.00  0.00    -0.114 N 
ATOM     14  O   UNL d   1     -41.867-121.446 -55.989  0.00  0.00    -0.532 OA
ATOM     15  O   UNL d   1     -43.044-122.061 -55.734  0.00  0.00    -0.532 OA
ENDBRANCH   6  13
ENDBRANCH   2   4
BRANCH   1  16
ATOM     16  C   UNL d   1     -41.531-122.997 -51.428  0.00  0.00     0.197 A 
ATOM     17  N   UNL d   1     -41.962-123.415 -50.910  0.00  0.00    -0.221 NA
ATOM     18  C   UNL d   1     -41.849-123.089 -50.180  0.00  0.00     0.090 A 
ATOM     19  C   UNL d   1     -41.383-122.516 -50.249  0.00  0.00     0.058 A 
ATOM     20  S   UNL d   1     -41.123-122.376 -51.014  0.00  0.00    -0.046 SA
BRANCH  18  21
ATOM     21  C   UNL d   1     -42.163-123.305 -49.451  0.00  0.00     0.018 A 
ATOM     22  C   UNL d   1     -42.977-123.230 -49.323  0.00  0.00     0.002 A 
ATOM     23  C   UNL d   1     -43.306-123.447 -48.585  0.00  0.00     0.000 A 
ATOM     24  C   UNL d   1     -42.807-123.739 -47.984  0.00  0.00     0.000 A 
ATOM     25  C   UNL d   1     -42.004-123.812 -48.115  0.00  0.00     0.000 A 
ATOM     26  C   UNL d   1     -41.675-123.594 -48.853  0.00  0.00     0.002 A 
ENDBRANCH  18  21
ENDBRANCH   1  16
TORSDOF 5
ENDMDL
MODEL 2
REMARK VINA RESULT:      -4.4      2.036      5.243
REMARK  5 active torsions:
REMARK  status: ('A' for Active; 'I' for Inactive)
REMARK    1  A    between atoms: C_11  and  C_1 
REMARK    2  A    between atoms: C_2  and  N_5 
REMARK    3  A    between atoms: N_3  and  C_7 
REMARK       I    between atoms: N_5  and  C_6 
REMARK    4  A    between atoms: C_6  and  C_9 
REMARK    5  A    between atoms: C_16  and  C_8 
ROOT
ATOM      1  N   UNL d   1     -41.440-122.878 -51.221  0.00  0.00    -0.183 NA
ATOM      2  C   UNL d   1     -41.738-122.485 -50.492  0.00  0.00     0.281 C 
ATOM      3  O   UNL d   1     -41.974-121.683 -50.526  0.00  0.00    -0.265 OA
ENDROOT
BRANCH   2   4
ATOM      4  C   UNL d   1     -41.776-122.954 -49.753  0.00  0.00     0.065 A 
ATOM      5  C   UNL d   1     -42.507-122.970 -49.370  0.00  0.00     0.091 A 
ATOM      6  C   UNL d   1     -42.562-123.413 -48.663  0.00  0.00     0.133 A 
ATOM      7  C   UNL d   1     -41.909-123.817 -48.362  0.00  0.00     0.024 A 
ATOM      8  C   UNL d   1     -41.171-123.797 -48.755  0.00  0.00     0.002 A 
ATOM      9  C   UNL d   1     -41.123-123.358 -49.452  0.00  0.00     0.005 A 
BRANCH   5  10
ATOM     10  C   UNL d   1     -43.150-122.573 -49.666  0.00  0.00     0.213 C 
ATOM     11  O   UNL d   1     -43.718-122.962 -50.141  0.00  0.00    -0.644 OA
ATOM     12  O   UNL d   1     -43.176-121.812 -49.462  0.00  0.00    -0.644 OA
ENDBRANCH   5  10
BRANCH   6  13
ATOM     13  N   UNL d   1     -43.266-123.454 -48.255  0.00  0.00    -0.114 N 
ATOM     14  O   UNL d   1     -43.386-123.151 -47.496  0.00  0.00    -0.532 OA
ATOM     15  O   UNL d   1     -43.944-123.799 -48.544  0.00  0.00    -0.532 OA
ENDBRANCH   6  13
ENDBRANCH   2   4
BRANCH   1  16
ATOM     16  C   UNL d   1     -41.400-122.446 -51.922  0.00  0.00     0.197 A 
ATOM     17  N   UNL d   1     -41.645-122.783 -52.597  0.00  0.00    -0.221 NA
ATOM     18  C   UNL d   1     -41.545-122.242 -53.189  0.00  0.00     0.090 A 
ATOM     19  C   UNL d   1     -41.259-121.624 -52.895  0.00  0.00     0.058 A 
ATOM     20  S   UNL d   1     -41.129-121.657 -52.086  0.00  0.00    -0.046 SA
BRANCH  18  21
ATOM     21  C   UNL d   1     -41.709-122.303 -53.992  0.00  0.00     0.018 A 
ATOM     22  C   UNL d   1     -41.179-122.707 -54.484  0.00  0.00     0.002 A 
ATOM     23  C   UNL d   1     -41.337-122.775 -55.303  0.00  0.00     0.000 A 
ATOM     24  C   UNL d   1     -42.030-122.433 -55.616  0.00  0.00     0.000 A 
ATOM     25  C   UNL d   1     -42.549-122.035 -55.127  0.00  0.00     0.000 A 
ATOM     26  C   UNL d   1     -42.392-121.967 -54.308  0.00  0.00     0.002 A 
ENDBRANCH  18  21
ENDBRANCH   1  16
TORSDOF 5
ENDMDL
