MODEL 1
REMARK VINA RESULT:      15.5      0.000      0.000
REMARK  7 active torsions:
REMARK  status: ('A' for Active; 'I' for Inactive)
REMARK    1  A    between atoms: C_6  and  C_2 
REMARK    2  A    between atoms: S_7  and  C_4 
REMARK    3  A    between atoms: C_12  and  S_7 
REMARK    4  A    between atoms: C_8  and  C_12 
REMARK    5  A    between atoms: O_16  and  C_8 
REMARK    6  A    between atoms: O_17  and  C_13 
REMARK    7  A    between atoms: C_18  and  O_16 
ROOT
ATOM      1  N   UNL d   1      14.391  13.071  -1.496  0.00  0.00    -0.212 NA
ATOM      2  C   UNL d   1      14.326  12.401  -1.962  0.00  0.00     0.171 A 
ATOM      3  N   UNL d   1      14.716  11.779  -1.579  0.00  0.00    -0.188 NA
ATOM      4  C   UNL d   1      14.821  12.879  -0.818  0.00  0.00     0.160 A 
ATOM      5  S   UNL d   1      15.022  12.075  -0.871  0.00  0.00     0.041 SA
ENDROOT
BRANCH   2   6
ATOM      6  C   UNL d   1      13.939  12.344  -2.691  0.00  0.00     0.037 A 
ATOM      7  C   UNL d   1      14.199  12.781  -3.351  0.00  0.00     0.005 A 
ATOM      8  C   UNL d   1      13.814  12.722  -4.068  0.00  0.00     0.024 A 
ATOM      9  C   UNL d   1      13.163  12.225  -4.141  0.00  0.00     0.094 A 
ATOM     10  C   UNL d   1      12.899  11.785  -3.487  0.00  0.00     0.024 A 
ATOM     11  C   UNL d   1      13.292  11.853  -2.772  0.00  0.00     0.005 A 
BRANCH   9  12
ATOM     12  O   UNL d   1      12.769  12.158  -4.860  0.00  0.00    -0.328 OA
ATOM     13  C   UNL d   1      13.170  11.891  -5.523  0.00  0.00     0.181 C 
ENDBRANCH   9  12
ENDBRANCH   2   6
BRANCH   4  14
ATOM     14  S   UNL d   1      15.020  13.387  -0.195  0.00  0.00    -0.054 SA
BRANCH  14  15
ATOM     15  C   UNL d   1      14.722  14.148  -0.176  0.00  0.00     0.106 C 
BRANCH  15  16
ATOM     16  C   UNL d   1      15.229  14.800  -0.180  0.00  0.00     0.307 C 
ATOM     17  O   UNL d   1      16.035  14.692  -0.016  0.00  0.00    -0.258 OA
BRANCH  16  18
ATOM     18  O   UNL d   1      14.939  15.557  -0.346  0.00  0.00    -0.271 OA
BRANCH  18  19
ATOM     19  C   UNL d   1      15.447  16.215  -0.321  0.00  0.00     0.126 C 
ATOM     20  C   UNL d   1      15.496  16.724  -0.967  0.00  0.00     0.029 C 
ENDBRANCH  18  19
ENDBRANCH  16  18
ENDBRANCH  15  16
ENDBRANCH  14  15
ENDBRANCH   4  14
TORSDOF 7
ENDMDL
