MODEL 1
REMARK VINA RESULT:      -2.6      0.000      0.000
REMARK  3 active torsions:
REMARK  status: ('A' for Active; 'I' for Inactive)
REMARK    1  A    between atoms: C_6  and  C_1 
REMARK    2  A    between atoms: C_7  and  C_3 
REMARK    3  A    between atoms: C_11  and  C_7 
ROOT
ATOM      1  C   UNL d   1      56.197   0.566  34.289  0.00  0.00     0.085 A 
ATOM      2  C   UNL d   1      57.011   0.602  34.184  0.00  0.00     0.137 A 
ATOM      3  C   UNL d   1      56.449   0.485  32.989  0.00  0.00     0.031 A 
ATOM      4  S   UNL d   1      57.161   0.551  33.374  0.00  0.00    -0.066 SA
ATOM      5  C   UNL d   1      55.841   0.493  33.548  0.00  0.00     0.013 A 
ATOM      6  N   UNL d   1      57.560   0.676  34.807  0.00  0.00    -0.141 N 
ATOM      7  C   UNL d   1      55.061   0.441  33.396  0.00  0.00     0.001 C 
ENDROOT
BRANCH   3   8
ATOM      8  C   UNL d   1      56.262   0.416  32.183  0.00  0.00     0.006 C 
BRANCH   8   9
ATOM      9  C   UNL d   1      56.815   0.137  31.643  0.00  0.00     0.001 A 
ATOM     10  C   UNL d   1      57.281   0.665  31.228  0.00  0.00     0.000 A 
ATOM     11  C   UNL d   1      57.842   0.374  30.679  0.00  0.00     0.000 A 
ATOM     12  C   UNL d   1      57.910  -0.431  30.572  0.00  0.00     0.000 A 
ATOM     13  C   UNL d   1      57.438  -0.969  30.991  0.00  0.00     0.000 A 
ATOM     14  C   UNL d   1      56.902  -0.679  31.516  0.00  0.00     0.000 A 
ENDBRANCH   8   9
ENDBRANCH   3   8
BRANCH   1  15
ATOM     15  C   UNL d   1      55.814   0.600  35.032  0.00  0.00     0.299 C 
ATOM     16  O   UNL d   1      56.232   0.682  35.730  0.00  0.00    -0.264 OA
ATOM     17  N   UNL d   1      54.966   0.546  35.042  0.00  0.00    -0.102 N 
ENDBRANCH   1  15
TORSDOF 3
ENDMDL
MODEL 2
REMARK VINA RESULT:      -2.5      1.559      2.170
REMARK  3 active torsions:
REMARK  status: ('A' for Active; 'I' for Inactive)
REMARK    1  A    between atoms: C_6  and  C_1 
REMARK    2  A    between atoms: C_7  and  C_3 
REMARK    3  A    between atoms: C_11  and  C_7 
ROOT
ATOM      1  C   UNL d   1      56.571  -0.421  32.771  0.00  0.00     0.085 A 
ATOM      2  C   UNL d   1      56.440  -0.902  32.118  0.00  0.00     0.137 A 
ATOM      3  C   UNL d   1      57.403  -0.045  31.807  0.00  0.00     0.031 A 
ATOM      4  S   UNL d   1      56.960  -0.663  31.524  0.00  0.00    -0.066 SA
ATOM      5  C   UNL d   1      57.169   0.116  32.584  0.00  0.00     0.013 A 
ATOM      6  N   UNL d   1      55.874  -1.515  32.094  0.00  0.00    -0.141 N 
ATOM      7  C   UNL d   1      57.468   0.682  33.057  0.00  0.00     0.001 C 
ENDROOT
BRANCH   3   8
ATOM      8  C   UNL d   1      58.004   0.409  31.460  0.00  0.00     0.006 C 
BRANCH   8   9
ATOM      9  C   UNL d   1      58.209   0.306  30.670  0.00  0.00     0.001 A 
ATOM     10  C   UNL d   1      58.845  -0.167  30.473  0.00  0.00     0.000 A 
ATOM     11  C   UNL d   1      59.049  -0.268  29.668  0.00  0.00     0.000 A 
ATOM     12  C   UNL d   1      58.606   0.110  29.097  0.00  0.00     0.000 A 
ATOM     13  C   UNL d   1      57.959   0.592  29.295  0.00  0.00     0.000 A 
ATOM     14  C   UNL d   1      57.772   0.682  30.072  0.00  0.00     0.000 A 
ENDBRANCH   8   9
ENDBRANCH   3   8
BRANCH   1  15
ATOM     15  C   UNL d   1      56.155  -0.481  33.494  0.00  0.00     0.299 C 
ATOM     16  O   UNL d   1      56.293  -1.090  34.022  0.00  0.00    -0.264 OA
ATOM     17  N   UNL d   1      55.575   0.116  33.667  0.00  0.00    -0.102 N 
ENDBRANCH   1  15
TORSDOF 3
ENDMDL
MODEL 3
REMARK VINA RESULT:      -2.3      2.111      3.682
REMARK  3 active torsions:
REMARK  status: ('A' for Active; 'I' for Inactive)
REMARK    1  A    between atoms: C_6  and  C_1 
REMARK    2  A    between atoms: C_7  and  C_3 
REMARK    3  A    between atoms: C_11  and  C_7 
ROOT
ATOM      1  C   UNL d   1      57.394  -0.464  31.411  0.00  0.00     0.085 A 
ATOM      2  C   UNL d   1      57.620   0.168  31.885  0.00  0.00     0.137 A 
ATOM      3  C   UNL d   1      56.585  -0.427  32.462  0.00  0.00     0.031 A 
ATOM      4  S   UNL d   1      57.113   0.185  32.536  0.00  0.00    -0.066 SA
ATOM      5  C   UNL d   1      56.750  -0.839  31.764  0.00  0.00     0.013 A 
ATOM      6  N   UNL d   1      58.253   0.682  31.710  0.00  0.00    -0.141 N 
ATOM      7  C   UNL d   1      56.359  -1.476  31.491  0.00  0.00     0.001 C 
ENDROOT
BRANCH   3   8
ATOM      8  C   UNL d   1      55.958  -0.677  32.945  0.00  0.00     0.006 C 
BRANCH   8   9
ATOM      9  C   UNL d   1      55.706  -0.221  33.581  0.00  0.00     0.001 A 
ATOM     10  C   UNL d   1      54.984   0.159  33.548  0.00  0.00     0.000 A 
ATOM     11  C   UNL d   1      54.733   0.622  34.199  0.00  0.00     0.000 A 
ATOM     12  C   UNL d   1      55.218   0.682  34.852  0.00  0.00     0.000 A 
ATOM     13  C   UNL d   1      55.952   0.297  34.888  0.00  0.00     0.000 A 
ATOM     14  C   UNL d   1      56.183  -0.145  34.256  0.00  0.00     0.000 A 
ENDBRANCH   8   9
ENDBRANCH   3   8
BRANCH   1  15
ATOM     15  C   UNL d   1      57.769  -0.674  30.693  0.00  0.00     0.299 C 
ATOM     16  O   UNL d   1      57.822  -0.153  30.065  0.00  0.00    -0.264 OA
ATOM     17  N   UNL d   1      58.098  -1.455  30.633  0.00  0.00    -0.102 N 
ENDBRANCH   1  15
TORSDOF 3
ENDMDL
MODEL 4
REMARK VINA RESULT:      -1.9      3.687      5.138
REMARK  3 active torsions:
REMARK  status: ('A' for Active; 'I' for Inactive)
REMARK    1  A    between atoms: C_6  and  C_1 
REMARK    2  A    between atoms: C_7  and  C_3 
REMARK    3  A    between atoms: C_11  and  C_7 
ROOT
ATOM      1  C   UNL d   1      59.800  -0.739  29.358  0.00  0.00     0.085 A 
ATOM      2  C   UNL d   1      59.040  -1.012  29.211  0.00  0.00     0.137 A 
ATOM      3  C   UNL d   1      58.947   0.049  30.002  0.00  0.00     0.031 A 
ATOM      4  S   UNL d   1      58.515  -0.518  29.613  0.00  0.00    -0.066 SA
ATOM      5  C   UNL d   1      59.750  -0.079  29.851  0.00  0.00     0.013 A 
ATOM      6  N   UNL d   1      58.863  -1.673  28.734  0.00  0.00    -0.141 N 
ATOM      7  C   UNL d   1      60.356   0.356  30.130  0.00  0.00     0.001 C 
ENDROOT
BRANCH   3   8
ATOM      8  C   UNL d   1      58.718   0.682  30.487  0.00  0.00     0.006 C 
BRANCH   8   9
ATOM      9  C   UNL d   1      58.132   0.589  31.056  0.00  0.00     0.001 A 
ATOM     10  C   UNL d   1      57.350   0.531  30.828  0.00  0.00     0.000 A 
ATOM     11  C   UNL d   1      56.757   0.436  31.412  0.00  0.00     0.000 A 
ATOM     12  C   UNL d   1      56.977   0.404  32.197  0.00  0.00     0.000 A 
ATOM     13  C   UNL d   1      57.771   0.463  32.431  0.00  0.00     0.000 A 
ATOM     14  C   UNL d   1      58.332   0.554  31.861  0.00  0.00     0.000 A 
ENDBRANCH   8   9
ENDBRANCH   3   8
BRANCH   1  15
ATOM     15  C   UNL d   1      60.495  -1.088  29.051  0.00  0.00     0.299 C 
ATOM     16  O   UNL d   1      60.947  -0.718  28.479  0.00  0.00    -0.264 OA
ATOM     17  N   UNL d   1      60.723  -1.849  29.354  0.00  0.00    -0.102 N 
ENDBRANCH   1  15
TORSDOF 3
ENDMDL
