MODEL 1
REMARK VINA RESULT:      -4.7      0.000      0.000
REMARK  6 active torsions:
REMARK  status: ('A' for Active; 'I' for Inactive)
REMARK    1  A    between atoms: N_2  and  S_1 
REMARK    2  A    between atoms: C_5  and  S_1 
REMARK    3  A    between atoms: S_8  and  C_3 
REMARK    4  A    between atoms: C_13  and  S_8 
REMARK    5  A    between atoms: C_17  and  C_13 
REMARK    6  A    between atoms: O_21  and  C_15 
ROOT
ATOM      1  N   UNL d   1      58.924   0.123  29.674  0.00  0.00    -0.208 N 
ATOM      2  C   UNL d   1      58.714   0.295  30.460  0.00  0.00     0.189 A 
ATOM      3  N   UNL d   1      59.368   0.641  30.832  0.00  0.00    -0.219 NA
ATOM      4  C   UNL d   1      59.712   0.365  29.562  0.00  0.00     0.114 A 
ATOM      5  C   UNL d   1      59.980   0.682  30.274  0.00  0.00     0.121 A 
ENDROOT
BRANCH   1   6
ATOM      6  S   UNL d   1      58.433  -0.228  29.108  0.00  0.00     0.273 S 
ATOM      7  O   UNL d   1      57.802  -0.373  28.591  0.00  0.00    -0.200 OA
ATOM      8  O   UNL d   1      57.925   0.405  29.207  0.00  0.00    -0.200 OA
BRANCH   6   9
ATOM      9  C   UNL d   1      58.932  -0.876  28.993  0.00  0.00     0.104 A 
ATOM     10  C   UNL d   1      59.628  -0.776  28.567  0.00  0.00     0.015 A 
ATOM     11  C   UNL d   1      60.123  -1.430  28.457  0.00  0.00     0.025 A 
ATOM     12  C   UNL d   1      59.915  -2.168  28.773  0.00  0.00     0.094 A 
ATOM     13  C   UNL d   1      59.220  -2.258  29.197  0.00  0.00     0.025 A 
ATOM     14  C   UNL d   1      58.724  -1.605  29.307  0.00  0.00     0.015 A 
BRANCH  12  15
ATOM     15  O   UNL d   1      60.416  -2.812  28.657  0.00  0.00    -0.328 OA
ATOM     16  C   UNL d   1      60.344  -3.476  29.149  0.00  0.00     0.181 C 
ENDBRANCH  12  15
ENDBRANCH   6   9
ENDBRANCH   1   6
BRANCH   2  17
ATOM     17  S   UNL d   1      57.975   0.144  30.810  0.00  0.00    -0.049 SA
BRANCH  17  18
ATOM     18  C   UNL d   1      57.901   0.161  31.632  0.00  0.00     0.038 C 
BRANCH  18  19
ATOM     19  C   UNL d   1      57.164   0.044  31.978  0.00  0.00     0.009 A 
ATOM     20  C   UNL d   1      56.910  -0.734  32.172  0.00  0.00     0.030 A 
ATOM     21  C   UNL d   1      56.177  -0.855  32.517  0.00  0.00     0.140 A 
ATOM     22  F   UNL d   1      55.932  -1.623  32.706  0.00  0.00    -0.204 F 
ATOM     23  C   UNL d   1      55.680  -0.209  32.677  0.00  0.00     0.030 A 
ATOM     24  C   UNL d   1      55.926   0.555  32.487  0.00  0.00     0.002 A 
ATOM     25  C   UNL d   1      56.669   0.681  32.137  0.00  0.00     0.001 A 
ENDBRANCH  18  19
ENDBRANCH  17  18
ENDBRANCH   2  17
TORSDOF 6
ENDMDL
MODEL 2
REMARK VINA RESULT:      -3.0      1.035      1.469
REMARK  6 active torsions:
REMARK  status: ('A' for Active; 'I' for Inactive)
REMARK    1  A    between atoms: N_2  and  S_1 
REMARK    2  A    between atoms: C_5  and  S_1 
REMARK    3  A    between atoms: S_8  and  C_3 
REMARK    4  A    between atoms: C_13  and  S_8 
REMARK    5  A    between atoms: C_17  and  C_13 
REMARK    6  A    between atoms: O_21  and  C_15 
ROOT
ATOM      1  N   UNL d   1      58.420   0.372  30.734  0.00  0.00    -0.208 N 
ATOM      2  C   UNL d   1      58.157   0.458  31.518  0.00  0.00     0.189 A 
ATOM      3  N   UNL d   1      58.811   0.649  31.989  0.00  0.00    -0.219 NA
ATOM      4  C   UNL d   1      59.241   0.510  30.723  0.00  0.00     0.114 A 
ATOM      5  C   UNL d   1      59.475   0.680  31.495  0.00  0.00     0.121 A 
ENDROOT
BRANCH   1   6
ATOM      6  S   UNL d   1      57.946   0.182  30.083  0.00  0.00     0.273 S 
ATOM      7  O   UNL d   1      57.309   0.141  29.555  0.00  0.00    -0.200 OA
ATOM      8  O   UNL d   1      57.364   0.650  30.414  0.00  0.00    -0.200 OA
BRANCH   6   9
ATOM      9  C   UNL d   1      58.522  -0.296  29.732  0.00  0.00     0.104 A 
ATOM     10  C   UNL d   1      58.587  -1.082  29.964  0.00  0.00     0.015 A 
ATOM     11  C   UNL d   1      59.166  -1.554  29.608  0.00  0.00     0.025 A 
ATOM     12  C   UNL d   1      59.666  -1.234  29.029  0.00  0.00     0.094 A 
ATOM     13  C   UNL d   1      59.594  -0.450  28.804  0.00  0.00     0.025 A 
ATOM     14  C   UNL d   1      59.015   0.023  29.160  0.00  0.00     0.015 A 
BRANCH  12  15
ATOM     15  O   UNL d   1      60.240  -1.713  28.681  0.00  0.00    -0.328 OA
ATOM     16  C   UNL d   1      60.189  -2.536  28.770  0.00  0.00     0.181 C 
ENDBRANCH  12  15
ENDBRANCH   6   9
ENDBRANCH   1   6
BRANCH   2  17
ATOM     17  S   UNL d   1      57.373   0.368  31.781  0.00  0.00    -0.049 SA
BRANCH  17  18
ATOM     18  C   UNL d   1      57.205   0.413  32.587  0.00  0.00     0.038 C 
BRANCH  18  19
ATOM     19  C   UNL d   1      56.543   0.030  32.889  0.00  0.00     0.009 A 
ATOM     20  C   UNL d   1      55.967   0.464  33.320  0.00  0.00     0.030 A 
ATOM     21  C   UNL d   1      55.306   0.086  33.622  0.00  0.00     0.140 A 
ATOM     22  F   UNL d   1      54.741   0.518  34.047  0.00  0.00    -0.204 F 
ATOM     23  C   UNL d   1      55.201  -0.730  33.502  0.00  0.00     0.030 A 
ATOM     24  C   UNL d   1      55.764  -1.158  33.079  0.00  0.00     0.002 A 
ATOM     25  C   UNL d   1      56.436  -0.777  32.772  0.00  0.00     0.001 A 
ENDBRANCH  18  19
ENDBRANCH  17  18
ENDBRANCH   2  17
TORSDOF 6
ENDMDL
MODEL 3
REMARK VINA RESULT:      -2.7      1.764      4.429
REMARK  6 active torsions:
REMARK  status: ('A' for Active; 'I' for Inactive)
REMARK    1  A    between atoms: N_2  and  S_1 
REMARK    2  A    between atoms: C_5  and  S_1 
REMARK    3  A    between atoms: S_8  and  C_3 
REMARK    4  A    between atoms: C_13  and  S_8 
REMARK    5  A    between atoms: C_17  and  C_13 
REMARK    6  A    between atoms: O_21  and  C_15 
ROOT
ATOM      1  N   UNL d   1      58.115   0.237  30.305  0.00  0.00    -0.208 N 
ATOM      2  C   UNL d   1      58.376  -0.178  29.634  0.00  0.00     0.189 A 
ATOM      3  N   UNL d   1      57.872   0.009  29.004  0.00  0.00    -0.219 NA
ATOM      4  C   UNL d   1      57.447   0.682  30.087  0.00  0.00     0.114 A 
ATOM      5  C   UNL d   1      57.302   0.538  29.288  0.00  0.00     0.121 A 
ENDROOT
BRANCH   1   6
ATOM      6  S   UNL d   1      58.463   0.209  31.056  0.00  0.00     0.273 S 
ATOM      7  O   UNL d   1      59.017   0.237  31.671  0.00  0.00    -0.200 OA
ATOM      8  O   UNL d   1      59.174   0.388  30.695  0.00  0.00    -0.200 OA
BRANCH   6   9
ATOM      9  C   UNL d   1      57.753   0.029  31.439  0.00  0.00     0.104 A 
ATOM     10  C   UNL d   1      57.460  -0.738  31.401  0.00  0.00     0.015 A 
ATOM     11  C   UNL d   1      56.749  -0.911  31.788  0.00  0.00     0.025 A 
ATOM     12  C   UNL d   1      56.346  -0.316  32.203  0.00  0.00     0.094 A 
ATOM     13  C   UNL d   1      56.645   0.445  32.235  0.00  0.00     0.025 A 
ATOM     14  C   UNL d   1      57.356   0.618  31.849  0.00  0.00     0.015 A 
BRANCH  12  15
ATOM     15  O   UNL d   1      55.638  -0.500  32.584  0.00  0.00    -0.328 OA
ATOM     16  C   UNL d   1      55.594  -0.436  33.410  0.00  0.00     0.181 C 
ENDBRANCH  12  15
ENDBRANCH   6   9
ENDBRANCH   1   6
BRANCH   2  17
ATOM     17  S   UNL d   1      59.030  -0.691  29.602  0.00  0.00    -0.049 SA
BRANCH  17  18
ATOM     18  C   UNL d   1      59.147  -1.164  28.936  0.00  0.00     0.038 C 
BRANCH  18  19
ATOM     19  C   UNL d   1      59.768  -1.702  28.921  0.00  0.00     0.009 A 
ATOM     20  C   UNL d   1      59.649  -2.488  29.192  0.00  0.00     0.030 A 
ATOM     21  C   UNL d   1      60.265  -3.028  29.179  0.00  0.00     0.140 A 
ATOM     22  F   UNL d   1      60.142  -3.802  29.447  0.00  0.00    -0.204 F 
ATOM     23  C   UNL d   1      61.013  -2.800  28.898  0.00  0.00     0.030 A 
ATOM     24  C   UNL d   1      61.133  -2.029  28.631  0.00  0.00     0.002 A 
ATOM     25  C   UNL d   1      60.509  -1.479  28.643  0.00  0.00     0.001 A 
ENDBRANCH  18  19
ENDBRANCH  17  18
ENDBRANCH   2  17
TORSDOF 6
ENDMDL
