MODEL 1
REMARK VINA RESULT:      18.1      0.000      0.000
REMARK  4 active torsions:
REMARK  status: ('A' for Active; 'I' for Inactive)
REMARK    1  A    between atoms: C_3  and  C_1 
REMARK       I    between atoms: N_6  and  C_3 
REMARK    2  A    between atoms: C_12  and  N_5 
REMARK    3  A    between atoms: C_8  and  N_6 
REMARK    4  A    between atoms: S_11  and  C_10 
ROOT
ATOM      1  C   UNL d   1      14.760  12.366  -2.025  0.00  0.00     0.348 C 
ATOM      2  N   UNL d   1      14.160  12.501  -2.587  0.00  0.00    -0.363 NA
ATOM      3  O   UNL d   1      15.382  11.807  -2.190  0.00  0.00    -0.249 OA
ENDROOT
BRANCH   1   4
ATOM      4  C   UNL d   1      14.743  12.785  -1.301  0.00  0.00     0.173 A 
ATOM      5  N   UNL d   1      15.023  13.559  -1.181  0.00  0.00    -0.159 NA
ATOM      6  N   UNL d   1      14.893  13.746  -0.380  0.00  0.00    -0.227 N 
ATOM      7  C   UNL d   1      14.539  13.098  -0.017  0.00  0.00     0.102 A 
ATOM      8  C   UNL d   1      14.444  12.500  -0.584  0.00  0.00     0.048 A 
BRANCH   6   9
ATOM      9  C   UNL d   1      15.087  14.463  -0.014  0.00  0.00     0.101 C 
ATOM     10  C   UNL d   1      15.743  14.964  -0.028  0.00  0.00     0.022 C 
ENDBRANCH   6   9
ENDBRANCH   1   4
BRANCH   2  11
ATOM     11  C   UNL d   1      13.662  12.458  -3.329  0.00  0.00     0.141 A 
ATOM     12  C   UNL d   1      13.649  13.117  -3.818  0.00  0.00     0.055 A 
ATOM     13  C   UNL d   1      13.207  13.102  -4.492  0.00  0.00     0.009 A 
ATOM     14  C   UNL d   1      12.771  12.427  -4.685  0.00  0.00     0.001 A 
ATOM     15  C   UNL d   1      12.788  11.779  -4.195  0.00  0.00     0.003 A 
ATOM     16  C   UNL d   1      13.239  11.800  -3.512  0.00  0.00     0.033 A 
BRANCH  12  17
ATOM     17  S   UNL d   1      14.085  13.797  -3.630  0.00  0.00    -0.110 SA
ATOM     18  C   UNL d   1      13.824  14.554  -3.861  0.00  0.00     0.074 C 
ENDBRANCH  12  17
ENDBRANCH   2  11
TORSDOF 4
ENDMDL
