MODEL 1
REMARK VINA RESULT:      24.2      0.000      0.000
REMARK  3 active torsions:
REMARK  status: ('A' for Active; 'I' for Inactive)
REMARK    1  A    between atoms: S_11  and  C_7 
REMARK    2  A    between atoms: C_12  and  S_11 
REMARK    3  A    between atoms: C_14  and  C_12 
ROOT
ATOM      1  N   UNL d   1     -57.622 -98.764 -43.818  0.00  0.00    -0.167 N 
ATOM      2  C   UNL d   1     -57.728 -98.768 -44.631  0.00  0.00     0.220 A 
ATOM      3  C   UNL d   1     -58.274 -98.759 -43.305  0.00  0.00     0.301 A 
ATOM      4  S   UNL d   1     -56.978 -98.771 -44.980  0.00  0.00    -0.019 SA
ATOM      5  N   UNL d   1     -56.820 -98.764 -43.656  0.00  0.00    -0.147 NA
ATOM      6  N   UNL d   1     -58.487 -98.768 -44.949  0.00  0.00    -0.121 NA
ATOM      7  C   UNL d   1     -56.421 -98.769 -44.376  0.00  0.00     0.163 A 
ATOM      8  N   UNL d   1     -59.142 -98.764 -44.453  0.00  0.00    -0.141 NA
ATOM      9  C   UNL d   1     -59.036 -98.760 -43.635  0.00  0.00     0.161 A 
ATOM     10  O   UNL d   1     -58.169 -98.755 -42.495  0.00  0.00    -0.263 OA
ATOM     11  C   UNL d   1     -59.689 -98.756 -43.134  0.00  0.00     0.028 C 
ENDROOT
BRANCH   7  12
ATOM     12  S   UNL d   1     -55.602 -98.771 -44.477  0.00  0.00    -0.059 SA
BRANCH  12  13
ATOM     13  C   UNL d   1     -55.127 -99.251 -44.011  0.00  0.00     0.037 C 
BRANCH  13  14
ATOM     14  C   UNL d   1     -54.991-100.035 -44.236  0.00  0.00     0.006 A 
ATOM     15  C   UNL d   1     -54.963-100.628 -43.662  0.00  0.00     0.001 A 
ATOM     16  C   UNL d   1     -54.829-101.408 -43.876  0.00  0.00     0.000 A 
ATOM     17  C   UNL d   1     -54.801-101.994 -43.307  0.00  0.00     0.000 C 
ATOM     18  C   UNL d   1     -54.721-101.605 -44.672  0.00  0.00     0.000 A 
ATOM     19  C   UNL d   1     -54.749-101.015 -45.248  0.00  0.00     0.000 A 
ATOM     20  C   UNL d   1     -54.884-100.232 -45.032  0.00  0.00     0.001 A 
ENDBRANCH  13  14
ENDBRANCH  12  13
ENDBRANCH   7  12
TORSDOF 3
ENDMDL
