MODEL 1
REMARK VINA RESULT:      -6.9      0.000      0.000
REMARK  6 active torsions:
REMARK  status: ('A' for Active; 'I' for Inactive)
REMARK    1  A    between atoms: C_2  and  S_1 
REMARK    2  A    between atoms: N_3  and  S_1 
REMARK    3  A    between atoms: C_11  and  N_3 
REMARK    4  A    between atoms: O_13  and  C_5 
REMARK    5  A    between atoms: C_14  and  C_11 
REMARK    6  A    between atoms: C_15  and  O_13 
ROOT
ATOM      1  S   UNL d   1     -47.943  13.367  22.933  0.00  0.00     0.285 S 
ATOM      2  O   UNL d   1     -47.568  13.935  23.400  0.00  0.00    -0.198 OA
ATOM      3  O   UNL d   1     -48.318  12.799  22.466  0.00  0.00    -0.198 OA
ENDROOT
BRANCH   1   4
ATOM      4  C   UNL d   1     -47.327  12.839  23.080  0.00  0.00     0.107 A 
ATOM      5  C   UNL d   1     -46.564  13.012  22.821  0.00  0.00     0.040 A 
ATOM      6  C   UNL d   1     -45.948  12.483  22.968  0.00  0.00     0.128 A 
ATOM      7  C   UNL d   1     -46.094  11.783  23.375  0.00  0.00     0.163 A 
ATOM      8  C   UNL d   1     -46.855  11.610  23.635  0.00  0.00     0.032 A 
ATOM      9  F   UNL d   1     -45.478  11.255  23.523  0.00  0.00    -0.202 F 
ATOM     10  C   UNL d   1     -47.472  12.138  23.487  0.00  0.00     0.015 A 
BRANCH   6  11
ATOM     11  O   UNL d   1     -45.186  12.656  22.709  0.00  0.00    -0.303 OA
BRANCH  11  12
ATOM     12  C   UNL d   1     -45.069  12.959  21.952  0.00  0.00     0.123 C 
ATOM     13  C   UNL d   1     -44.299  13.064  21.659  0.00  0.00     0.029 C 
ENDBRANCH  11  12
ENDBRANCH   6  11
ENDBRANCH   1   4
BRANCH   1  14
ATOM     14  N   UNL d   1     -48.560  13.895  22.786  0.00  0.00    -0.157 NA
BRANCH  14  15
ATOM     15  C   UNL d   1     -49.245  13.868  23.248  0.00  0.00     0.112 C 
BRANCH  15  16
ATOM     16  C   UNL d   1     -49.847  14.419  23.123  0.00  0.00     0.020 A 
ATOM     17  C   UNL d   1     -49.845  15.122  23.550  0.00  0.00     0.002 A 
ATOM     18  C   UNL d   1     -50.444  15.670  23.426  0.00  0.00     0.000 A 
ATOM     19  C   UNL d   1     -51.042  15.517  22.879  0.00  0.00     0.000 A 
ATOM     20  C   UNL d   1     -51.038  14.807  22.454  0.00  0.00     0.000 A 
ATOM     21  C   UNL d   1     -50.436  14.257  22.578  0.00  0.00     0.002 A 
ENDBRANCH  15  16
ENDBRANCH  14  15
ENDBRANCH   1  14
TORSDOF 6
ENDMDL
MODEL 2
REMARK VINA RESULT:      -6.6      0.826      1.457
REMARK  6 active torsions:
REMARK  status: ('A' for Active; 'I' for Inactive)
REMARK    1  A    between atoms: C_2  and  S_1 
REMARK    2  A    between atoms: N_3  and  S_1 
REMARK    3  A    between atoms: C_11  and  N_3 
REMARK    4  A    between atoms: O_13  and  C_5 
REMARK    5  A    between atoms: C_14  and  C_11 
REMARK    6  A    between atoms: C_15  and  O_13 
ROOT
ATOM      1  S   UNL d   1     -47.559  13.684  22.923  0.00  0.00     0.285 S 
ATOM      2  O   UNL d   1     -47.221  14.396  23.168  0.00  0.00    -0.198 OA
ATOM      3  O   UNL d   1     -47.897  12.973  22.678  0.00  0.00    -0.198 OA
ENDROOT
BRANCH   1   4
ATOM      4  C   UNL d   1     -46.810  13.394  22.734  0.00  0.00     0.107 A 
ATOM      5  C   UNL d   1     -46.494  12.760  23.155  0.00  0.00     0.040 A 
ATOM      6  C   UNL d   1     -45.746  12.469  22.966  0.00  0.00     0.128 A 
ATOM      7  C   UNL d   1     -45.313  12.813  22.355  0.00  0.00     0.163 A 
ATOM      8  C   UNL d   1     -45.628  13.446  21.935  0.00  0.00     0.032 A 
ATOM      9  F   UNL d   1     -44.564  12.523  22.166  0.00  0.00    -0.202 F 
ATOM     10  C   UNL d   1     -46.376  13.736  22.124  0.00  0.00     0.015 A 
BRANCH   6  11
ATOM     11  O   UNL d   1     -45.431  11.836  23.386  0.00  0.00    -0.303 OA
BRANCH  11  12
ATOM     12  C   UNL d   1     -45.892  11.169  23.530  0.00  0.00     0.123 C 
ATOM     13  C   UNL d   1     -45.531  10.440  23.698  0.00  0.00     0.029 C 
ENDBRANCH  11  12
ENDBRANCH   6  11
ENDBRANCH   1   4
BRANCH   1  14
ATOM     14  N   UNL d   1     -48.307  13.974  23.112  0.00  0.00    -0.157 NA
BRANCH  14  15
ATOM     15  C   UNL d   1     -48.693  14.490  22.593  0.00  0.00     0.112 C 
BRANCH  15  16
ATOM     16  C   UNL d   1     -49.452  14.761  22.770  0.00  0.00     0.020 A 
ATOM     17  C   UNL d   1     -49.554  15.305  23.379  0.00  0.00     0.002 A 
ATOM     18  C   UNL d   1     -50.308  15.575  23.556  0.00  0.00     0.000 A 
ATOM     19  C   UNL d   1     -50.959  15.304  23.128  0.00  0.00     0.000 A 
ATOM     20  C   UNL d   1     -50.849  14.757  22.517  0.00  0.00     0.000 A 
ATOM     21  C   UNL d   1     -50.091  14.485  22.339  0.00  0.00     0.002 A 
ENDBRANCH  15  16
ENDBRANCH  14  15
ENDBRANCH   1  14
TORSDOF 6
ENDMDL
MODEL 3
REMARK VINA RESULT:      -6.6      0.617      1.082
REMARK  6 active torsions:
REMARK  status: ('A' for Active; 'I' for Inactive)
REMARK    1  A    between atoms: C_2  and  S_1 
REMARK    2  A    between atoms: N_3  and  S_1 
REMARK    3  A    between atoms: C_11  and  N_3 
REMARK    4  A    between atoms: O_13  and  C_5 
REMARK    5  A    between atoms: C_14  and  C_11 
REMARK    6  A    between atoms: C_15  and  O_13 
ROOT
ATOM      1  S   UNL d   1     -48.027  12.854  23.127  0.00  0.00     0.285 S 
ATOM      2  O   UNL d   1     -48.411  12.182  22.842  0.00  0.00    -0.198 OA
ATOM      3  O   UNL d   1     -47.644  13.527  23.413  0.00  0.00    -0.198 OA
ENDROOT
BRANCH   1   4
ATOM      4  C   UNL d   1     -47.335  12.417  23.227  0.00  0.00     0.107 A 
ATOM      5  C   UNL d   1     -46.616  12.715  22.957  0.00  0.00     0.040 A 
ATOM      6  C   UNL d   1     -45.923  12.277  23.057  0.00  0.00     0.128 A 
ATOM      7  C   UNL d   1     -45.950  11.542  23.427  0.00  0.00     0.163 A 
ATOM      8  C   UNL d   1     -46.668  11.244  23.696  0.00  0.00     0.032 A 
ATOM      9  F   UNL d   1     -45.258  11.105  23.527  0.00  0.00    -0.202 F 
ATOM     10  C   UNL d   1     -47.361  11.682  23.596  0.00  0.00     0.015 A 
BRANCH   6  11
ATOM     11  O   UNL d   1     -45.206  12.575  22.788  0.00  0.00    -0.303 OA
BRANCH  11  12
ATOM     12  C   UNL d   1     -45.131  12.822  22.006  0.00  0.00     0.123 C 
ATOM     13  C   UNL d   1     -44.386  13.027  21.701  0.00  0.00     0.029 C 
ENDBRANCH  11  12
ENDBRANCH   6  11
ENDBRANCH   1   4
BRANCH   1  14
ATOM     14  N   UNL d   1     -48.720  13.292  23.027  0.00  0.00    -0.157 NA
BRANCH  14  15
ATOM     15  C   UNL d   1     -48.905  13.606  22.285  0.00  0.00     0.112 C 
BRANCH  15  16
ATOM     16  C   UNL d   1     -49.625  13.991  22.170  0.00  0.00     0.020 A 
ATOM     17  C   UNL d   1     -50.190  13.654  21.675  0.00  0.00     0.002 A 
ATOM     18  C   UNL d   1     -50.906  14.038  21.561  0.00  0.00     0.000 A 
ATOM     19  C   UNL d   1     -51.060  14.755  21.939  0.00  0.00     0.000 A 
ATOM     20  C   UNL d   1     -50.488  15.088  22.435  0.00  0.00     0.000 A 
ATOM     21  C   UNL d   1     -49.768  14.703  22.550  0.00  0.00     0.002 A 
ENDBRANCH  15  16
ENDBRANCH  14  15
ENDBRANCH   1  14
TORSDOF 6
ENDMDL
MODEL 4
REMARK VINA RESULT:      -6.1      1.850      4.702
REMARK  6 active torsions:
REMARK  status: ('A' for Active; 'I' for Inactive)
REMARK    1  A    between atoms: C_2  and  S_1 
REMARK    2  A    between atoms: N_3  and  S_1 
REMARK    3  A    between atoms: C_11  and  N_3 
REMARK    4  A    between atoms: O_13  and  C_5 
REMARK    5  A    between atoms: C_14  and  C_11 
REMARK    6  A    between atoms: C_15  and  O_13 
ROOT
ATOM      1  S   UNL d   1     -48.039  13.993  22.457  0.00  0.00     0.285 S 
ATOM      2  O   UNL d   1     -47.725  14.355  23.129  0.00  0.00    -0.198 OA
ATOM      3  O   UNL d   1     -48.353  13.632  21.785  0.00  0.00    -0.198 OA
ENDROOT
BRANCH   1   4
ATOM      4  C   UNL d   1     -48.790  14.266  22.662  0.00  0.00     0.107 A 
ATOM      5  C   UNL d   1     -49.327  13.760  23.029  0.00  0.00     0.040 A 
ATOM      6  C   UNL d   1     -50.079  14.033  23.234  0.00  0.00     0.128 A 
ATOM      7  C   UNL d   1     -50.293  14.811  23.071  0.00  0.00     0.163 A 
ATOM      8  C   UNL d   1     -49.758  15.316  22.704  0.00  0.00     0.032 A 
ATOM      9  F   UNL d   1     -51.045  15.083  23.275  0.00  0.00    -0.202 F 
ATOM     10  C   UNL d   1     -49.006  15.043  22.499  0.00  0.00     0.015 A 
BRANCH   6  11
ATOM     11  O   UNL d   1     -50.614  13.527  23.601  0.00  0.00    -0.303 OA
BRANCH  11  12
ATOM     12  C   UNL d   1     -50.829  12.821  23.236  0.00  0.00     0.123 C 
ATOM     13  C   UNL d   1     -51.064  12.169  23.694  0.00  0.00     0.029 C 
ENDBRANCH  11  12
ENDBRANCH   6  11
ENDBRANCH   1   4
BRANCH   1  14
ATOM     14  N   UNL d   1     -47.288  13.721  22.253  0.00  0.00    -0.157 NA
BRANCH  14  15
ATOM     15  C   UNL d   1     -46.763  13.476  22.844  0.00  0.00     0.112 C 
BRANCH  15  16
ATOM     16  C   UNL d   1     -46.039  13.139  22.637  0.00  0.00     0.020 A 
ATOM     17  C   UNL d   1     -45.501  13.578  22.194  0.00  0.00     0.002 A 
ATOM     18  C   UNL d   1     -44.781  13.243  21.989  0.00  0.00     0.000 A 
ATOM     19  C   UNL d   1     -44.597  12.473  22.222  0.00  0.00     0.000 A 
ATOM     20  C   UNL d   1     -45.142  12.038  22.667  0.00  0.00     0.000 A 
ATOM     21  C   UNL d   1     -45.867  12.375  22.874  0.00  0.00     0.002 A 
ENDBRANCH  15  16
ENDBRANCH  14  15
ENDBRANCH   1  14
TORSDOF 6
ENDMDL
MODEL 5
REMARK VINA RESULT:      -6.0      1.997      4.859
REMARK  6 active torsions:
REMARK  status: ('A' for Active; 'I' for Inactive)
REMARK    1  A    between atoms: C_2  and  S_1 
REMARK    2  A    between atoms: N_3  and  S_1 
REMARK    3  A    between atoms: C_11  and  N_3 
REMARK    4  A    between atoms: O_13  and  C_5 
REMARK    5  A    between atoms: C_14  and  C_11 
REMARK    6  A    between atoms: C_15  and  O_13 
ROOT
ATOM      1  S   UNL d   1     -46.557  13.215  22.887  0.00  0.00     0.285 S 
ATOM      2  O   UNL d   1     -46.625  13.035  22.085  0.00  0.00    -0.198 OA
ATOM      3  O   UNL d   1     -46.489  13.395  23.689  0.00  0.00    -0.198 OA
ENDROOT
BRANCH   1   4
ATOM      4  C   UNL d   1     -47.216  13.709  22.832  0.00  0.00     0.107 A 
ATOM      5  C   UNL d   1     -47.967  13.416  23.002  0.00  0.00     0.040 A 
ATOM      6  C   UNL d   1     -48.626  13.910  22.947  0.00  0.00     0.128 A 
ATOM      7  C   UNL d   1     -48.533  14.697  22.723  0.00  0.00     0.163 A 
ATOM      8  C   UNL d   1     -47.783  14.990  22.553  0.00  0.00     0.032 A 
ATOM      9  F   UNL d   1     -49.191  15.191  22.668  0.00  0.00    -0.202 F 
ATOM     10  C   UNL d   1     -47.125  14.496  22.608  0.00  0.00     0.015 A 
BRANCH   6  11
ATOM     11  O   UNL d   1     -49.375  13.617  23.117  0.00  0.00    -0.303 OA
BRANCH  11  12
ATOM     12  C   UNL d   1     -49.595  12.870  22.848  0.00  0.00     0.123 C 
ATOM     13  C   UNL d   1     -50.387  12.625  22.897  0.00  0.00     0.029 C 
ENDBRANCH  11  12
ENDBRANCH   6  11
ENDBRANCH   1   4
BRANCH   1  14
ATOM     14  N   UNL d   1     -45.899  12.721  22.942  0.00  0.00    -0.157 NA
BRANCH  14  15
ATOM     15  C   UNL d   1     -45.965  11.986  23.315  0.00  0.00     0.112 C 
BRANCH  15  16
ATOM     16  C   UNL d   1     -45.316  11.476  23.336  0.00  0.00     0.020 A 
ATOM     17  C   UNL d   1     -44.595  11.727  23.029  0.00  0.00     0.002 A 
ATOM     18  C   UNL d   1     -43.950  11.219  23.050  0.00  0.00     0.000 A 
ATOM     19  C   UNL d   1     -44.023  10.465  23.377  0.00  0.00     0.000 A 
ATOM     20  C   UNL d   1     -44.752  10.220  23.683  0.00  0.00     0.000 A 
ATOM     21  C   UNL d   1     -45.400  10.730  23.662  0.00  0.00     0.002 A 
ENDBRANCH  15  16
ENDBRANCH  14  15
ENDBRANCH   1  14
TORSDOF 6
ENDMDL
MODEL 6
REMARK VINA RESULT:      -5.6      8.876      9.977
REMARK  6 active torsions:
REMARK  status: ('A' for Active; 'I' for Inactive)
REMARK    1  A    between atoms: C_2  and  S_1 
REMARK    2  A    between atoms: N_3  and  S_1 
REMARK    3  A    between atoms: C_11  and  N_3 
REMARK    4  A    between atoms: O_13  and  C_5 
REMARK    5  A    between atoms: C_14  and  C_11 
REMARK    6  A    between atoms: C_15  and  O_13 
ROOT
ATOM      1  S   UNL d   1     -40.000  14.509  19.262  0.00  0.00     0.285 S 
ATOM      2  O   UNL d   1     -40.427  13.825  19.088  0.00  0.00    -0.198 OA
ATOM      3  O   UNL d   1     -39.572  15.192  19.436  0.00  0.00    -0.198 OA
ENDROOT
BRANCH   1   4
ATOM      4  C   UNL d   1     -40.166  14.805  18.510  0.00  0.00     0.107 A 
ATOM      5  C   UNL d   1     -39.759  14.517  17.854  0.00  0.00     0.040 A 
ATOM      6  C   UNL d   1     -39.925  14.813  17.102  0.00  0.00     0.128 A 
ATOM      7  C   UNL d   1     -40.499  15.396  17.006  0.00  0.00     0.163 A 
ATOM      8  C   UNL d   1     -40.905  15.683  17.661  0.00  0.00     0.032 A 
ATOM      9  F   UNL d   1     -40.665  15.692  16.254  0.00  0.00    -0.202 F 
ATOM     10  C   UNL d   1     -40.739  15.388  18.413  0.00  0.00     0.015 A 
BRANCH   6  11
ATOM     11  O   UNL d   1     -39.519  14.525  16.447  0.00  0.00    -0.303 OA
BRANCH  11  12
ATOM     12  C   UNL d   1     -38.701  14.436  16.478  0.00  0.00     0.123 C 
ATOM     13  C   UNL d   1     -38.297  14.062  15.856  0.00  0.00     0.029 C 
ENDBRANCH  11  12
ENDBRANCH   6  11
ENDBRANCH   1   4
BRANCH   1  14
ATOM     14  N   UNL d   1     -39.833  14.213  20.014  0.00  0.00    -0.157 NA
BRANCH  14  15
ATOM     15  C   UNL d   1     -39.111  14.390  20.376  0.00  0.00     0.112 C 
BRANCH  15  16
ATOM     16  C   UNL d   1     -38.893  14.002  21.070  0.00  0.00     0.020 A 
ATOM     17  C   UNL d   1     -38.228  13.517  21.071  0.00  0.00     0.002 A 
ATOM     18  C   UNL d   1     -38.012  13.131  21.763  0.00  0.00     0.000 A 
ATOM     19  C   UNL d   1     -38.456  13.227  22.451  0.00  0.00     0.000 A 
ATOM     20  C   UNL d   1     -39.124  13.716  22.443  0.00  0.00     0.000 A 
ATOM     21  C   UNL d   1     -39.341  14.104  21.748  0.00  0.00     0.002 A 
ENDBRANCH  15  16
ENDBRANCH  14  15
ENDBRANCH   1  14
TORSDOF 6
ENDMDL
MODEL 7
REMARK VINA RESULT:      -5.4      8.244     10.173
REMARK  6 active torsions:
REMARK  status: ('A' for Active; 'I' for Inactive)
REMARK    1  A    between atoms: C_2  and  S_1 
REMARK    2  A    between atoms: N_3  and  S_1 
REMARK    3  A    between atoms: C_11  and  N_3 
REMARK    4  A    between atoms: O_13  and  C_5 
REMARK    5  A    between atoms: C_14  and  C_11 
REMARK    6  A    between atoms: C_15  and  O_13 
ROOT
ATOM      1  S   UNL d   1     -39.910  14.583  18.569  0.00  0.00     0.285 S 
ATOM      2  O   UNL d   1     -39.236  15.053  18.652  0.00  0.00    -0.198 OA
ATOM      3  O   UNL d   1     -40.583  14.113  18.487  0.00  0.00    -0.198 OA
ENDROOT
BRANCH   1   4
ATOM      4  C   UNL d   1     -40.219  14.906  19.263  0.00  0.00     0.107 A 
ATOM      5  C   UNL d   1     -40.033  14.572  19.993  0.00  0.00     0.040 A 
ATOM      6  C   UNL d   1     -40.342  14.895  20.686  0.00  0.00     0.128 A 
ATOM      7  C   UNL d   1     -40.839  15.551  20.649  0.00  0.00     0.163 A 
ATOM      8  C   UNL d   1     -41.025  15.884  19.921  0.00  0.00     0.032 A 
ATOM      9  F   UNL d   1     -41.148  15.874  21.343  0.00  0.00    -0.202 F 
ATOM     10  C   UNL d   1     -40.716  15.561  19.227  0.00  0.00     0.015 A 
BRANCH   6  11
ATOM     11  O   UNL d   1     -40.156  14.562  21.415  0.00  0.00    -0.303 OA
BRANCH  11  12
ATOM     12  C   UNL d   1     -39.573  13.982  21.464  0.00  0.00     0.123 C 
ATOM     13  C   UNL d   1     -39.340  13.685  22.204  0.00  0.00     0.029 C 
ENDBRANCH  11  12
ENDBRANCH   6  11
ENDBRANCH   1   4
BRANCH   1  14
ATOM     14  N   UNL d   1     -39.600  14.260  17.876  0.00  0.00    -0.157 NA
BRANCH  14  15
ATOM     15  C   UNL d   1     -38.854  14.496  17.610  0.00  0.00     0.112 C 
BRANCH  15  16
ATOM     16  C   UNL d   1     -38.548  14.182  16.911  0.00  0.00     0.020 A 
ATOM     17  C   UNL d   1     -38.554  14.638  16.226  0.00  0.00     0.002 A 
ATOM     18  C   UNL d   1     -38.251  14.325  15.530  0.00  0.00     0.000 A 
ATOM     19  C   UNL d   1     -37.942  13.560  15.517  0.00  0.00     0.000 A 
ATOM     20  C   UNL d   1     -37.940  13.107  16.209  0.00  0.00     0.000 A 
ATOM     21  C   UNL d   1     -38.245  13.422  16.908  0.00  0.00     0.002 A 
ENDBRANCH  15  16
ENDBRANCH  14  15
ENDBRANCH   1  14
TORSDOF 6
ENDMDL
