MODEL 1
REMARK VINA RESULT:      78.3      0.000      0.000
REMARK  3 active torsions:
REMARK  status: ('A' for Active; 'I' for Inactive)
REMARK    1  A    between atoms: S_3  and  N_1 
REMARK    2  A    between atoms: C_7  and  C_4 
REMARK    3  A    between atoms: C_12  and  C_5 
ROOT
ATOM      1  N   UNL d   1     -47.991  29.355  35.340  0.00  0.00    -0.155 N 
ATOM      2  N   UNL d   1     -48.358  28.635  35.227  0.00  0.00    -0.156 NA
ATOM      3  C   UNL d   1     -48.237  29.862  34.756  0.00  0.00     0.096 A 
ATOM      4  C   UNL d   1     -48.834  28.702  34.566  0.00  0.00     0.103 A 
ATOM      5  C   UNL d   1     -48.766  29.456  34.270  0.00  0.00     0.041 A 
ENDROOT
BRANCH   3   6
ATOM      6  C   UNL d   1     -48.002  30.650  34.660  0.00  0.00     0.020 A 
ATOM      7  C   UNL d   1     -48.376  31.129  34.100  0.00  0.00     0.022 A 
ATOM      8  C   UNL d   1     -48.142  31.914  34.005  0.00  0.00     0.099 A 
ATOM      9  N   UNL d   1     -48.516  32.392  33.445  0.00  0.00    -0.241 NA
ATOM     10  C   UNL d   1     -47.537  32.221  34.468  0.00  0.00     0.099 A 
ATOM     11  C   UNL d   1     -48.278  33.152  33.363  0.00  0.00     0.120 A 
ATOM     12  C   UNL d   1     -47.673  33.459  33.826  0.00  0.00     0.120 A 
ATOM     13  N   UNL d   1     -47.302  33.007  34.373  0.00  0.00    -0.241 NA
ATOM     14  C   UNL d   1     -47.163  31.743  35.028  0.00  0.00     0.021 A 
ATOM     15  C   UNL d   1     -47.397  30.956  35.123  0.00  0.00     0.003 A 
ENDBRANCH   3   6
BRANCH   1  16
ATOM     16  S   UNL d   1     -47.448  29.551  35.953  0.00  0.00     0.266 S 
ATOM     17  O   UNL d   1     -48.112  29.762  36.436  0.00  0.00    -0.203 OA
ATOM     18  O   UNL d   1     -46.942  29.752  36.571  0.00  0.00    -0.203 OA
ATOM     19  C   UNL d   1     -46.820  29.345  35.475  0.00  0.00     0.165 C 
ENDBRANCH   1  16
BRANCH   4  20
ATOM     20  C   UNL d   1     -49.301  28.111  34.255  0.00  0.00     0.019 A 
ATOM     21  C   UNL d   1     -49.149  27.331  34.418  0.00  0.00     0.002 A 
ATOM     22  C   UNL d   1     -49.621  26.712  34.105  0.00  0.00     0.000 A 
ATOM     23  C   UNL d   1     -50.261  26.910  33.615  0.00  0.00     0.000 A 
ATOM     24  C   UNL d   1     -50.404  27.715  33.459  0.00  0.00     0.000 A 
ATOM     25  C   UNL d   1     -50.727  26.324  33.306  0.00  0.00     0.000 C 
ATOM     26  C   UNL d   1     -49.943  28.305  33.765  0.00  0.00     0.002 A 
ENDBRANCH   4  20
TORSDOF 3
ENDMDL
