MODEL 1
REMARK VINA RESULT:      -1.4      0.000      0.000
REMARK  5 active torsions:
REMARK  status: ('A' for Active; 'I' for Inactive)
REMARK    1  A    between atoms: C_4  and  C_1 
REMARK    2  A    between atoms: C_8  and  C_4 
REMARK    3  A    between atoms: C_9  and  C_4 
REMARK    4  A    between atoms: N_5  and  C_9 
REMARK    5  A    between atoms: O_18  and  C_11 
ROOT
ATOM      1  C   UNL d   1     -41.629-122.314 -50.916  0.00  0.00     0.025 C 
ENDROOT
BRANCH   1   2
ATOM      2  C   UNL d   1     -42.209-122.564 -50.378  0.00  0.00     0.021 A 
ATOM      3  C   UNL d   1     -43.046-122.443 -50.445  0.00  0.00     0.082 A 
ATOM      4  N   UNL d   1     -43.403-122.779 -49.797  0.00  0.00    -0.246 NA
ATOM      5  C   UNL d   1     -43.420-122.052 -51.067  0.00  0.00     0.021 C 
ATOM      6  C   UNL d   1     -42.825-123.113 -49.311  0.00  0.00     0.081 A 
ATOM      7  C   UNL d   1     -42.086-122.980 -49.671  0.00  0.00     0.019 A 
ATOM      8  C   UNL d   1     -42.861-123.515 -48.600  0.00  0.00     0.019 A 
ATOM      9  C   UNL d   1     -41.394-123.251 -49.315  0.00  0.00     0.002 A 
ATOM     10  C   UNL d   1     -41.428-123.656 -48.599  0.00  0.00     0.000 A 
ATOM     11  C   UNL d   1     -42.178-123.791 -48.234  0.00  0.00     0.002 A 
ENDBRANCH   1   2
BRANCH   1  12
ATOM     12  C   UNL d   1     -41.558-122.680 -51.642  0.00  0.00     0.004 A 
ATOM     13  C   UNL d   1     -41.831-122.327 -52.338  0.00  0.00     0.028 A 
ATOM     14  C   UNL d   1     -41.758-122.697 -53.063  0.00  0.00     0.133 A 
ATOM     15  C   UNL d   1     -41.407-123.436 -53.113  0.00  0.00     0.218 A 
ATOM     16  C   UNL d   1     -41.125-123.812 -52.427  0.00  0.00     0.044 A 
ATOM     17  O   UNL d   1     -41.328-123.817 -53.834  0.00  0.00    -0.284 OA
ATOM     18  C   UNL d   1     -41.198-123.441 -51.703  0.00  0.00     0.004 A 
BRANCH  14  19
ATOM     19  O   UNL d   1     -42.040-122.320 -53.745  0.00  0.00    -0.325 OA
ATOM     20  C   UNL d   1     -41.504-122.107 -54.327  0.00  0.00     0.181 C 
ENDBRANCH  14  19
ENDBRANCH   1  12
BRANCH   1  21
ATOM     21  C   UNL d   1     -41.123-121.685 -50.705  0.00  0.00     0.148 C 
BRANCH  21  22
ATOM     22  N   UNL d   1     -41.366-120.910 -50.848  0.00  0.00    -0.112 N 
ATOM     23  O   UNL d   1     -41.800-120.504 -50.289  0.00  0.00    -0.532 OA
ATOM     24  O   UNL d   1     -41.161-120.548 -51.571  0.00  0.00    -0.532 OA
ENDBRANCH  21  22
ENDBRANCH   1  21
TORSDOF 5
ENDMDL
MODEL 2
REMARK VINA RESULT:       1.2      1.409      3.779
REMARK  5 active torsions:
REMARK  status: ('A' for Active; 'I' for Inactive)
REMARK    1  A    between atoms: C_4  and  C_1 
REMARK    2  A    between atoms: C_8  and  C_4 
REMARK    3  A    between atoms: C_9  and  C_4 
REMARK    4  A    between atoms: N_5  and  C_9 
REMARK    5  A    between atoms: O_18  and  C_11 
ROOT
ATOM      1  C   UNL d   1     -41.607-122.071 -51.689  0.00  0.00     0.025 C 
ENDROOT
BRANCH   1   2
ATOM      2  C   UNL d   1     -41.630-122.544 -52.370  0.00  0.00     0.021 A 
ATOM      3  C   UNL d   1     -41.405-123.361 -52.426  0.00  0.00     0.082 A 
ATOM      4  N   UNL d   1     -41.517-123.602 -53.193  0.00  0.00    -0.246 NA
ATOM      5  C   UNL d   1     -41.123-123.817 -51.800  0.00  0.00     0.021 C 
ATOM      6  C   UNL d   1     -41.807-122.969 -53.637  0.00  0.00     0.081 A 
ATOM      7  C   UNL d   1     -41.877-122.315 -53.128  0.00  0.00     0.019 A 
ATOM      8  C   UNL d   1     -42.016-122.893 -54.424  0.00  0.00     0.019 A 
ATOM      9  C   UNL d   1     -42.155-121.593 -53.413  0.00  0.00     0.002 A 
ATOM     10  C   UNL d   1     -42.366-121.514 -54.204  0.00  0.00     0.000 A 
ATOM     11  C   UNL d   1     -42.295-122.178 -54.721  0.00  0.00     0.002 A 
ENDBRANCH   1   2
BRANCH   1  12
ATOM     12  C   UNL d   1     -42.055-122.270 -51.036  0.00  0.00     0.004 A 
ATOM     13  C   UNL d   1     -41.734-122.688 -50.398  0.00  0.00     0.028 A 
ATOM     14  C   UNL d   1     -42.185-122.885 -49.746  0.00  0.00     0.133 A 
ATOM     15  C   UNL d   1     -42.975-122.669 -49.712  0.00  0.00     0.218 A 
ATOM     16  C   UNL d   1     -43.320-122.248 -50.341  0.00  0.00     0.044 A 
ATOM     17  O   UNL d   1     -43.437-122.861 -49.063  0.00  0.00    -0.284 OA
ATOM     18  C   UNL d   1     -42.868-122.051 -50.993  0.00  0.00     0.004 A 
BRANCH  14  19
ATOM     19  O   UNL d   1     -41.838-123.305 -49.121  0.00  0.00    -0.325 OA
ATOM     20  C   UNL d   1     -41.900-123.001 -48.362  0.00  0.00     0.181 C 
ENDBRANCH  14  19
ENDBRANCH   1  12
BRANCH   1  21
ATOM     21  C   UNL d   1     -41.123-121.392 -51.682  0.00  0.00     0.148 C 
BRANCH  21  22
ATOM     22  N   UNL d   1     -41.370-120.728 -51.260  0.00  0.00    -0.112 N 
ATOM     23  O   UNL d   1     -41.150-120.629 -50.480  0.00  0.00    -0.532 OA
ATOM     24  O   UNL d   1     -41.848-120.161 -51.641  0.00  0.00    -0.532 OA
ENDBRANCH  21  22
ENDBRANCH   1  21
TORSDOF 5
ENDMDL
MODEL 3
REMARK VINA RESULT:       1.4      1.768      3.887
REMARK  5 active torsions:
REMARK  status: ('A' for Active; 'I' for Inactive)
REMARK    1  A    between atoms: C_4  and  C_1 
REMARK    2  A    between atoms: C_8  and  C_4 
REMARK    3  A    between atoms: C_9  and  C_4 
REMARK    4  A    between atoms: N_5  and  C_9 
REMARK    5  A    between atoms: O_18  and  C_11 
ROOT
ATOM      1  C   UNL d   1     -42.450-122.394 -50.244  0.00  0.00     0.025 C 
ENDROOT
BRANCH   1   2
ATOM      2  C   UNL d   1     -41.974-122.226 -50.902  0.00  0.00     0.021 A 
ATOM      3  C   UNL d   1     -41.515-121.524 -51.028  0.00  0.00     0.082 A 
ATOM      4  N   UNL d   1     -41.136-121.594 -51.743  0.00  0.00    -0.246 NA
ATOM      5  C   UNL d   1     -41.469-120.889 -50.505  0.00  0.00     0.021 C 
ATOM      6  C   UNL d   1     -41.335-122.318 -52.086  0.00  0.00     0.081 A 
ATOM      7  C   UNL d   1     -41.854-122.710 -51.566  0.00  0.00     0.019 A 
ATOM      8  C   UNL d   1     -41.123-122.677 -52.790  0.00  0.00     0.019 A 
ATOM      9  C   UNL d   1     -42.152-123.454 -51.756  0.00  0.00     0.002 A 
ATOM     10  C   UNL d   1     -41.940-123.817 -52.463  0.00  0.00     0.000 A 
ATOM     11  C   UNL d   1     -41.414-123.420 -52.992  0.00  0.00     0.002 A 
ENDBRANCH   1   2
BRANCH   1  12
ATOM     12  C   UNL d   1     -42.124-122.741 -49.580  0.00  0.00     0.004 A 
ATOM     13  C   UNL d   1     -42.197-122.401 -48.829  0.00  0.00     0.028 A 
ATOM     14  C   UNL d   1     -41.869-122.751 -48.168  0.00  0.00     0.133 A 
ATOM     15  C   UNL d   1     -41.457-123.455 -48.237  0.00  0.00     0.218 A 
ATOM     16  C   UNL d   1     -41.370-123.817 -48.981  0.00  0.00     0.044 A 
ATOM     17  O   UNL d   1     -41.124-123.816 -47.581  0.00  0.00    -0.284 OA
ATOM     18  C   UNL d   1     -41.698-123.466 -49.642  0.00  0.00     0.004 A 
BRANCH  14  19
ATOM     19  O   UNL d   1     -41.957-122.388 -47.428  0.00  0.00    -0.325 OA
ATOM     20  C   UNL d   1     -42.464-122.728 -46.881  0.00  0.00     0.181 C 
ENDBRANCH  14  19
ENDBRANCH   1  12
BRANCH   1  21
ATOM     21  C   UNL d   1     -43.262-122.205 -50.269  0.00  0.00     0.148 C 
BRANCH  21  22
ATOM     22  N   UNL d   1     -43.811-122.760 -50.003  0.00  0.00    -0.112 N 
ATOM     23  O   UNL d   1     -44.336-122.569 -49.408  0.00  0.00    -0.532 OA
ATOM     24  O   UNL d   1     -43.821-123.518 -50.351  0.00  0.00    -0.532 OA
ENDBRANCH  21  22
ENDBRANCH   1  21
TORSDOF 5
ENDMDL
