MODEL 1
REMARK VINA RESULT:     -10.6      0.000      0.000
REMARK  2 active torsions:
REMARK  status: ('A' for Active; 'I' for Inactive)
REMARK    1  A    between atoms: C_3  and  C_1 
REMARK       I    between atoms: N_2  and  C_3 
REMARK    2  A    between atoms: O_16  and  C_15 
ROOT
ATOM      1  C   UNL d   1      53.135  31.990  53.381  0.00  0.00     0.121 A 
ATOM      2  C   UNL d   1      52.527  32.540  53.489  0.00  0.00     0.305 A 
ATOM      3  O   UNL d   1      52.668  33.234  53.931  0.00  0.00    -0.271 OA
ATOM      4  C   UNL d   1      53.890  32.125  53.712  0.00  0.00     0.012 A 
ATOM      5  C   UNL d   1      53.407  33.370  54.257  0.00  0.00     0.125 A 
ATOM      6  C   UNL d   1      54.021  32.815  54.148  0.00  0.00     0.025 A 
ATOM      7  O   UNL d   1      51.785  32.407  53.163  0.00  0.00    -0.259 OA
ATOM      8  C   UNL d   1      53.557  34.057  54.698  0.00  0.00     0.117 A 
ATOM      9  C   UNL d   1      54.768  32.953  54.479  0.00  0.00     0.002 A 
ATOM     10  C   UNL d   1      54.900  33.641  54.914  0.00  0.00     0.002 A 
ATOM     11  C   UNL d   1      54.298  34.189  55.024  0.00  0.00     0.026 A 
ENDROOT
BRANCH   1  12
ATOM     12  C   UNL d   1      52.995  31.308  52.945  0.00  0.00     0.285 C 
ATOM     13  N   UNL d   1      53.030  30.571  53.304  0.00  0.00    -0.193 N 
ATOM     14  N   UNL d   1      53.199  30.433  54.097  0.00  0.00    -0.163 NA
ATOM     15  C   UNL d   1      52.903  29.847  52.939  0.00  0.00     0.105 A 
ATOM     16  C   UNL d   1      53.175  29.619  54.219  0.00  0.00     0.103 A 
ATOM     17  C   UNL d   1      53.313  29.236  54.940  0.00  0.00     0.022 C 
ATOM     18  C   UNL d   1      52.994  29.263  53.507  0.00  0.00     0.042 A 
ATOM     19  O   UNL d   1      52.819  31.360  52.143  0.00  0.00    -0.265 OA
ENDBRANCH   1  12
BRANCH   8  20
ATOM     20  O   UNL d   1      52.948  34.601  54.803  0.00  0.00    -0.326 OA
ATOM     21  C   UNL d   1      53.114  35.389  54.958  0.00  0.00     0.181 C 
ENDBRANCH   8  20
TORSDOF 2
ENDMDL
MODEL 2
REMARK VINA RESULT:     -10.1      1.685      3.902
REMARK  2 active torsions:
REMARK  status: ('A' for Active; 'I' for Inactive)
REMARK    1  A    between atoms: C_3  and  C_1 
REMARK       I    between atoms: N_2  and  C_3 
REMARK    2  A    between atoms: O_16  and  C_15 
ROOT
ATOM      1  C   UNL d   1      53.529  32.418  53.732  0.00  0.00     0.121 A 
ATOM      2  C   UNL d   1      53.684  32.074  54.468  0.00  0.00     0.305 A 
ATOM      3  O   UNL d   1      53.586  31.251  54.571  0.00  0.00    -0.271 OA
ATOM      4  C   UNL d   1      53.275  31.946  53.090  0.00  0.00     0.012 A 
ATOM      5  C   UNL d   1      53.338  30.785  53.945  0.00  0.00     0.125 A 
ATOM      6  C   UNL d   1      53.182  31.132  53.201  0.00  0.00     0.025 A 
ATOM      7  O   UNL d   1      53.933  32.538  55.098  0.00  0.00    -0.259 OA
ATOM      8  C   UNL d   1      53.238  29.967  54.037  0.00  0.00     0.117 A 
ATOM      9  C   UNL d   1      52.931  30.661  52.568  0.00  0.00     0.002 A 
ATOM     10  C   UNL d   1      52.837  29.849  52.677  0.00  0.00     0.002 A 
ATOM     11  C   UNL d   1      52.990  29.504  53.407  0.00  0.00     0.026 A 
ENDROOT
BRANCH   1  12
ATOM     12  C   UNL d   1      53.625  33.227  53.631  0.00  0.00     0.285 C 
ATOM     13  N   UNL d   1      52.979  33.706  53.469  0.00  0.00    -0.193 N 
ATOM     14  N   UNL d   1      52.201  33.450  53.391  0.00  0.00    -0.163 NA
ATOM     15  C   UNL d   1      52.993  34.519  53.356  0.00  0.00     0.105 A 
ATOM     16  C   UNL d   1      51.736  34.109  53.229  0.00  0.00     0.103 A 
ATOM     17  C   UNL d   1      50.917  34.103  53.110  0.00  0.00     0.022 C 
ATOM     18  C   UNL d   1      52.224  34.763  53.209  0.00  0.00     0.042 A 
ATOM     19  O   UNL d   1      54.373  33.564  53.694  0.00  0.00    -0.265 OA
ENDBRANCH   1  12
BRANCH   8  20
ATOM     20  O   UNL d   1      53.394  29.629  54.771  0.00  0.00    -0.326 OA
ATOM     21  C   UNL d   1      53.349  28.817  54.877  0.00  0.00     0.181 C 
ENDBRANCH   8  20
TORSDOF 2
ENDMDL
MODEL 3
REMARK VINA RESULT:      -8.4      1.212      1.785
REMARK  2 active torsions:
REMARK  status: ('A' for Active; 'I' for Inactive)
REMARK    1  A    between atoms: C_3  and  C_1 
REMARK       I    between atoms: N_2  and  C_3 
REMARK    2  A    between atoms: O_16  and  C_15 
ROOT
ATOM      1  C   UNL d   1      53.658  32.399  53.629  0.00  0.00     0.121 A 
ATOM      2  C   UNL d   1      53.861  32.796  54.325  0.00  0.00     0.305 A 
ATOM      3  O   UNL d   1      53.554  33.558  54.473  0.00  0.00    -0.271 OA
ATOM      4  C   UNL d   1      53.146  32.755  53.073  0.00  0.00     0.012 A 
ATOM      5  C   UNL d   1      53.052  33.911  53.931  0.00  0.00     0.125 A 
ATOM      6  C   UNL d   1      52.847  33.510  53.228  0.00  0.00     0.025 A 
ATOM      7  O   UNL d   1      54.364  32.445  54.871  0.00  0.00    -0.259 OA
ATOM      8  C   UNL d   1      52.742  34.668  54.069  0.00  0.00     0.117 A 
ATOM      9  C   UNL d   1      52.339  33.868  52.680  0.00  0.00     0.002 A 
ATOM     10  C   UNL d   1      52.039  34.621  52.833  0.00  0.00     0.002 A 
ATOM     11  C   UNL d   1      52.239  35.019  53.524  0.00  0.00     0.026 A 
ENDROOT
BRANCH   1  12
ATOM     12  C   UNL d   1      53.960  31.649  53.484  0.00  0.00     0.285 C 
ATOM     13  N   UNL d   1      53.465  30.996  53.466  0.00  0.00    -0.193 N 
ATOM     14  N   UNL d   1      52.651  31.010  53.585  0.00  0.00    -0.163 NA
ATOM     15  C   UNL d   1      53.690  30.219  53.329  0.00  0.00     0.105 A 
ATOM     16  C   UNL d   1      52.375  30.238  53.520  0.00  0.00     0.103 A 
ATOM     17  C   UNL d   1      51.587  29.999  53.601  0.00  0.00     0.022 C 
ATOM     18  C   UNL d   1      53.014  29.755  53.363  0.00  0.00     0.042 A 
ATOM     19  O   UNL d   1      54.767  31.548  53.355  0.00  0.00    -0.265 OA
ENDBRANCH   1  12
BRANCH   8  20
ATOM     20  O   UNL d   1      52.948  35.060  54.763  0.00  0.00    -0.326 OA
ATOM     21  C   UNL d   1      52.903  35.878  54.812  0.00  0.00     0.181 C 
ENDBRANCH   8  20
TORSDOF 2
ENDMDL
MODEL 4
REMARK VINA RESULT:      -8.3      1.707      3.766
REMARK  2 active torsions:
REMARK  status: ('A' for Active; 'I' for Inactive)
REMARK    1  A    between atoms: C_3  and  C_1 
REMARK       I    between atoms: N_2  and  C_3 
REMARK    2  A    between atoms: O_16  and  C_15 
ROOT
ATOM      1  C   UNL d   1      52.437  32.933  53.053  0.00  0.00     0.121 A 
ATOM      2  C   UNL d   1      51.776  32.441  53.129  0.00  0.00     0.305 A 
ATOM      3  O   UNL d   1      51.878  31.617  53.211  0.00  0.00    -0.271 OA
ATOM      4  C   UNL d   1      53.207  32.609  53.058  0.00  0.00     0.012 A 
ATOM      5  C   UNL d   1      52.632  31.295  53.216  0.00  0.00     0.125 A 
ATOM      6  C   UNL d   1      53.299  31.791  53.139  0.00  0.00     0.025 A 
ATOM      7  O   UNL d   1      51.019  32.761  53.124  0.00  0.00    -0.259 OA
ATOM      8  C   UNL d   1      52.744  30.477  53.297  0.00  0.00     0.117 A 
ATOM      9  C   UNL d   1      54.060  31.466  53.145  0.00  0.00     0.002 A 
ATOM     10  C   UNL d   1      54.155  30.650  53.226  0.00  0.00     0.002 A 
ATOM     11  C   UNL d   1      53.500  30.159  53.302  0.00  0.00     0.026 A 
ENDROOT
BRANCH   1  12
ATOM     12  C   UNL d   1      52.335  33.744  52.972  0.00  0.00     0.285 C 
ATOM     13  N   UNL d   1      52.600  34.257  53.554  0.00  0.00    -0.193 N 
ATOM     14  N   UNL d   1      52.979  34.035  54.250  0.00  0.00    -0.163 NA
ATOM     15  C   UNL d   1      52.536  35.074  53.547  0.00  0.00     0.105 A 
ATOM     16  C   UNL d   1      53.148  34.721  54.672  0.00  0.00     0.103 A 
ATOM     17  C   UNL d   1      53.529  34.754  55.406  0.00  0.00     0.022 C 
ATOM     18  C   UNL d   1      52.876  35.357  54.239  0.00  0.00     0.042 A 
ATOM     19  O   UNL d   1      51.964  34.047  52.303  0.00  0.00    -0.265 OA
ENDBRANCH   1  12
BRANCH   8  20
ATOM     20  O   UNL d   1      52.084  29.992  53.372  0.00  0.00    -0.326 OA
ATOM     21  C   UNL d   1      52.168  29.183  53.479  0.00  0.00     0.181 C 
ENDBRANCH   8  20
TORSDOF 2
ENDMDL
MODEL 5
REMARK VINA RESULT:      -8.0      2.339      3.744
REMARK  2 active torsions:
REMARK  status: ('A' for Active; 'I' for Inactive)
REMARK    1  A    between atoms: C_3  and  C_1 
REMARK       I    between atoms: N_2  and  C_3 
REMARK    2  A    between atoms: O_16  and  C_15 
ROOT
ATOM      1  C   UNL d   1      52.823  34.788  53.866  0.00  0.00     0.121 A 
ATOM      2  C   UNL d   1      52.209  35.219  54.214  0.00  0.00     0.305 A 
ATOM      3  O   UNL d   1      51.442  35.187  53.887  0.00  0.00    -0.271 OA
ATOM      4  C   UNL d   1      52.680  34.320  53.189  0.00  0.00     0.012 A 
ATOM      5  C   UNL d   1      51.297  34.729  53.223  0.00  0.00     0.125 A 
ATOM      6  C   UNL d   1      51.917  34.294  52.872  0.00  0.00     0.025 A 
ATOM      7  O   UNL d   1      52.351  35.679  54.879  0.00  0.00    -0.259 OA
ATOM      8  C   UNL d   1      50.538  34.690  52.891  0.00  0.00     0.117 A 
ATOM      9  C   UNL d   1      51.770  33.831  52.201  0.00  0.00     0.002 A 
ATOM     10  C   UNL d   1      51.010  33.803  51.883  0.00  0.00     0.002 A 
ATOM     11  C   UNL d   1      50.397  34.231  52.226  0.00  0.00     0.026 A 
ENDROOT
BRANCH   1  12
ATOM     12  C   UNL d   1      53.578  34.821  54.188  0.00  0.00     0.285 C 
ATOM     13  N   UNL d   1      53.909  34.159  54.541  0.00  0.00    -0.193 N 
ATOM     14  N   UNL d   1      53.547  33.423  54.611  0.00  0.00    -0.163 NA
ATOM     15  C   UNL d   1      54.653  34.112  54.884  0.00  0.00     0.105 A 
ATOM     16  C   UNL d   1      54.072  32.922  54.999  0.00  0.00     0.103 A 
ATOM     17  C   UNL d   1      53.933  32.128  55.186  0.00  0.00     0.022 C 
ATOM     18  C   UNL d   1      54.750  33.347  55.165  0.00  0.00     0.042 A 
ATOM     19  O   UNL d   1      54.008  35.522  54.159  0.00  0.00    -0.265 OA
ENDBRANCH   1  12
BRANCH   8  20
ATOM     20  O   UNL d   1      49.930  35.121  53.240  0.00  0.00    -0.326 OA
ATOM     21  C   UNL d   1      49.185  35.146  52.899  0.00  0.00     0.181 C 
ENDBRANCH   8  20
TORSDOF 2
ENDMDL
MODEL 6
REMARK VINA RESULT:      -8.0      2.597      3.774
REMARK  2 active torsions:
REMARK  status: ('A' for Active; 'I' for Inactive)
REMARK    1  A    between atoms: C_3  and  C_1 
REMARK       I    between atoms: N_2  and  C_3 
REMARK    2  A    between atoms: O_16  and  C_15 
ROOT
ATOM      1  C   UNL d   1      51.756  33.998  52.779  0.00  0.00     0.121 A 
ATOM      2  C   UNL d   1      51.955  33.249  53.068  0.00  0.00     0.305 A 
ATOM      3  O   UNL d   1      52.503  33.177  53.693  0.00  0.00    -0.271 OA
ATOM      4  C   UNL d   1      52.101  34.684  53.109  0.00  0.00     0.012 A 
ATOM      5  C   UNL d   1      52.844  33.847  54.020  0.00  0.00     0.125 A 
ATOM      6  C   UNL d   1      52.643  34.603  53.728  0.00  0.00     0.025 A 
ATOM      7  O   UNL d   1      51.615  32.575  52.743  0.00  0.00    -0.259 OA
ATOM      8  C   UNL d   1      53.390  33.787  54.642  0.00  0.00     0.117 A 
ATOM      9  C   UNL d   1      52.987  35.280  54.058  0.00  0.00     0.002 A 
ATOM     10  C   UNL d   1      53.528  35.203  54.676  0.00  0.00     0.002 A 
ATOM     11  C   UNL d   1      53.728  34.460  54.966  0.00  0.00     0.026 A 
ENDROOT
BRANCH   1  12
ATOM     12  C   UNL d   1      51.216  34.067  52.164  0.00  0.00     0.285 C 
ATOM     13  N   UNL d   1      50.475  34.393  52.294  0.00  0.00    -0.193 N 
ATOM     14  N   UNL d   1      50.197  34.674  53.015  0.00  0.00    -0.163 NA
ATOM     15  C   UNL d   1      49.884  34.495  51.735  0.00  0.00     0.105 A 
ATOM     16  C   UNL d   1      49.432  34.951  52.898  0.00  0.00     0.103 A 
ATOM     17  C   UNL d   1      48.944  35.283  53.478  0.00  0.00     0.022 C 
ATOM     18  C   UNL d   1      49.242  34.840  52.112  0.00  0.00     0.042 A 
ATOM     19  O   UNL d   1      51.417  33.808  51.409  0.00  0.00    -0.265 OA
ENDBRANCH   1  12
BRANCH   8  20
ATOM     20  O   UNL d   1      53.585  33.040  54.926  0.00  0.00    -0.326 OA
ATOM     21  C   UNL d   1      54.273  32.922  55.356  0.00  0.00     0.181 C 
ENDBRANCH   8  20
TORSDOF 2
ENDMDL
