MODEL 1
REMARK VINA RESULT:      35.9      0.000      0.000
REMARK  7 active torsions:
REMARK  status: ('A' for Active; 'I' for Inactive)
REMARK    1  A    between atoms: C_3  and  S_1 
REMARK    2  A    between atoms: N_4  and  S_1 
REMARK    3  A    between atoms: C_6  and  C_2 
REMARK       I    between atoms: N_13  and  C_6 
REMARK    4  A    between atoms: C_17  and  N_13 
REMARK    5  A    between atoms: C_18  and  C_17 
REMARK    6  A    between atoms: C_20  and  C_18 
REMARK    7  A    between atoms: C_19  and  C_20 
ROOT
ATOM      1  C   UNL d   1     -54.978-100.753 -43.601  0.00  0.00     0.086 A 
ATOM      2  C   UNL d   1     -54.828-101.664 -42.504  0.00  0.00     0.104 A 
ATOM      3  C   UNL d   1     -54.949-100.898 -42.784  0.00  0.00     0.020 A 
ATOM      4  C   UNL d   1     -54.887-101.374 -44.132  0.00  0.00     0.145 A 
ATOM      5  C   UNL d   1     -54.736-102.292 -43.040  0.00  0.00     0.015 A 
ATOM      6  C   UNL d   1     -54.765-102.148 -43.847  0.00  0.00     0.030 A 
ATOM      7  F   UNL d   1     -54.915-101.241 -44.941  0.00  0.00    -0.204 F 
ENDROOT
BRANCH   2   8
ATOM      8  S   UNL d   1     -54.799-101.810 -41.684  0.00  0.00     0.271 S 
ATOM      9  O   UNL d   1     -54.815-100.991 -41.551  0.00  0.00    -0.200 OA
ATOM     10  O   UNL d   1     -54.783-102.622 -41.829  0.00  0.00    -0.200 OA
BRANCH   8  11
ATOM     11  N   UNL d   1     -54.770-101.944 -40.874  0.00  0.00    -0.229 N 
ATOM     12  C   UNL d   1     -54.741-101.305 -40.356  0.00  0.00     0.092 A 
ATOM     13  C   UNL d   1     -54.712-101.444 -39.544  0.00  0.00     0.020 A 
ATOM     14  C   UNL d   1     -54.712-102.209 -39.251  0.00  0.00     0.003 A 
ATOM     15  C   UNL d   1     -54.741-102.848 -39.774  0.00  0.00     0.020 A 
ATOM     16  C   UNL d   1     -54.770-102.713 -40.590  0.00  0.00     0.092 A 
ENDBRANCH   8  11
ENDBRANCH   2   8
BRANCH   1  17
ATOM     17  C   UNL d   1     -55.100 -99.982 -43.877  0.00  0.00     0.281 C 
ATOM     18  O   UNL d   1     -54.752 -99.349 -43.473  0.00  0.00    -0.265 OA
ATOM     19  N   UNL d   1     -55.559 -99.844 -44.545  0.00  0.00    -0.206 NA
BRANCH  19  20
ATOM     20  C   UNL d   1     -55.681 -99.076 -44.822  0.00  0.00     0.102 C 
BRANCH  20  21
ATOM     21  C   UNL d   1     -56.439 -98.761 -44.857  0.00  0.00     0.021 C 
BRANCH  21  22
ATOM     22  C   UNL d   1     -57.050 -99.126 -44.448  0.00  0.00     0.002 C 
BRANCH  22  23
ATOM     23  C   UNL d   1     -57.829 -98.867 -44.550  0.00  0.00     0.000 C 
ATOM     24  C   UNL d   1     -58.456 -99.323 -44.275  0.00  0.00     0.000 C 
ENDBRANCH  22  23
ENDBRANCH  21  22
ENDBRANCH  20  21
ENDBRANCH  19  20
ENDBRANCH   1  17
TORSDOF 7
ENDMDL
