MODEL 1
REMARK VINA RESULT:      30.6      0.000      0.000
REMARK  6 active torsions:
REMARK  status: ('A' for Active; 'I' for Inactive)
REMARK    1  A    between atoms: C_3  and  S_1 
REMARK    2  A    between atoms: N_5  and  S_1 
REMARK    3  A    between atoms: S_2  and  N_6 
REMARK    4  A    between atoms: C_4  and  S_2 
REMARK    5  A    between atoms: O_25  and  C_15 
REMARK    6  A    between atoms: O_26  and  C_16 
ROOT
ATOM      1  N   UNL d   1      45.779 -15.648  44.044  0.00  0.00    -0.226 N 
ATOM      2  N   UNL d   1      46.053 -17.216  43.626  0.00  0.00    -0.226 N 
ATOM      3  C   UNL d   1      45.280 -16.013  43.497  0.00  0.00     0.111 A 
ATOM      4  C   UNL d   1      46.547 -16.839  44.173  0.00  0.00     0.111 A 
ATOM      5  C   UNL d   1      45.420 -16.804  43.288  0.00  0.00     0.111 A 
ATOM      6  C   UNL d   1      46.412 -16.058  44.382  0.00  0.00     0.111 A 
ENDROOT
BRANCH   1   7
ATOM      7  S   UNL d   1      45.638 -14.851  44.255  0.00  0.00     0.273 S 
ATOM      8  O   UNL d   1      45.996 -14.542  44.934  0.00  0.00    -0.200 OA
ATOM      9  O   UNL d   1      45.149 -14.381  43.794  0.00  0.00    -0.200 OA
BRANCH   7  10
ATOM     10  C   UNL d   1      45.496 -14.063  44.460  0.00  0.00     0.126 A 
ATOM     11  C   UNL d   1      44.726 -13.789  44.525  0.00  0.00     0.106 A 
ATOM     12  C   UNL d   1      44.591 -12.999  44.731  0.00  0.00     0.025 A 
ATOM     13  C   UNL d   1      45.229 -12.492  44.870  0.00  0.00     0.002 A 
ATOM     14  C   UNL d   1      46.005 -12.777  44.802  0.00  0.00     0.001 A 
ATOM     15  C   UNL d   1      46.142 -13.558  44.598  0.00  0.00     0.015 A 
ATOM     16  C   UNL d   1      46.646 -12.265  44.942  0.00  0.00     0.000 C 
BRANCH  11  17
ATOM     17  O   UNL d   1      44.091 -14.292  44.388  0.00  0.00    -0.327 OA
ATOM     18  C   UNL d   1      43.492 -14.360  44.952  0.00  0.00     0.181 C 
ENDBRANCH  11  17
ENDBRANCH   7  10
ENDBRANCH   1   7
BRANCH   2  19
ATOM     19  S   UNL d   1      46.190 -18.003  43.415  0.00  0.00     0.273 S 
ATOM     20  O   UNL d   1      46.611 -18.176  42.724  0.00  0.00    -0.200 OA
ATOM     21  O   UNL d   1      45.909 -18.617  43.888  0.00  0.00    -0.200 OA
BRANCH  19  22
ATOM     22  C   UNL d   1      46.343 -18.781  43.177  0.00  0.00     0.126 A 
ATOM     23  C   UNL d   1      46.427 -19.372  43.742  0.00  0.00     0.106 A 
ATOM     24  C   UNL d   1      46.578 -20.142  43.507  0.00  0.00     0.025 A 
ATOM     25  C   UNL d   1      46.646 -20.323  42.705  0.00  0.00     0.002 A 
ATOM     26  C   UNL d   1      46.561 -19.727  42.140  0.00  0.00     0.001 A 
ATOM     27  C   UNL d   1      46.408 -18.952  42.386  0.00  0.00     0.015 A 
ATOM     28  C   UNL d   1      46.626 -19.897  41.342  0.00  0.00     0.000 C 
BRANCH  23  29
ATOM     29  O   UNL d   1      46.359 -19.192  44.544  0.00  0.00    -0.327 OA
ATOM     30  C   UNL d   1      45.669 -19.386  44.953  0.00  0.00     0.181 C 
ENDBRANCH  23  29
ENDBRANCH  19  22
ENDBRANCH   2  19
TORSDOF 6
ENDMDL
