MODEL 1
REMARK VINA RESULT:       5.8      0.000      0.000
REMARK  5 active torsions:
REMARK  status: ('A' for Active; 'I' for Inactive)
REMARK    1  A    between atoms: N_8  and  C_1 
REMARK    2  A    between atoms: S_2  and  C_7 
REMARK    3  A    between atoms: N_9  and  S_2 
REMARK    4  A    between atoms: C_17  and  N_5 
REMARK       I    between atoms: C_10  and  N_8 
REMARK    5  A    between atoms: C_12  and  C_10 
ROOT
ATOM      1  N   UNL d   1     -42.336-122.050 -50.861  0.00  0.00    -0.202 NA
ATOM      2  C   UNL d   1     -41.856-122.383 -51.456  0.00  0.00     0.279 C 
ATOM      3  O   UNL d   1     -41.523-123.131 -51.345  0.00  0.00    -0.265 OA
ENDROOT
BRANCH   2   4
ATOM      4  C   UNL d   1     -41.718-121.966 -52.146  0.00  0.00     0.059 A 
ATOM      5  C   UNL d   1     -42.021-122.237 -52.867  0.00  0.00     0.019 A 
ATOM      6  C   UNL d   1     -41.879-121.815 -53.561  0.00  0.00     0.115 A 
ATOM      7  C   UNL d   1     -41.434-121.120 -53.534  0.00  0.00     0.070 A 
ATOM      8  C   UNL d   1     -41.135-120.852 -52.821  0.00  0.00     0.012 A 
ATOM      9 CL   UNL d   1     -41.292-120.697 -54.227  0.00  0.00    -0.082 Cl
ATOM     10  C   UNL d   1     -41.273-121.272 -52.118  0.00  0.00     0.006 A 
BRANCH   6  11
ATOM     11  S   UNL d   1     -42.184-122.090 -54.280  0.00  0.00     0.272 S 
ATOM     12  O   UNL d   1     -42.649-121.407 -54.338  0.00  0.00    -0.200 OA
ATOM     13  O   UNL d   1     -41.722-122.768 -54.222  0.00  0.00    -0.200 OA
BRANCH  11  14
ATOM     14  N   UNL d   1     -42.490-122.359 -54.995  0.00  0.00    -0.229 N 
ATOM     15  C   UNL d   1     -42.518-121.851 -55.635  0.00  0.00     0.092 A 
ATOM     16  C   UNL d   1     -42.825-122.121 -56.353  0.00  0.00     0.020 A 
ATOM     17  C   UNL d   1     -43.100-122.896 -56.420  0.00  0.00     0.003 A 
ATOM     18  C   UNL d   1     -43.067-123.400 -55.768  0.00  0.00     0.020 A 
ATOM     19  C   UNL d   1     -42.762-123.131 -55.054  0.00  0.00     0.092 A 
ENDBRANCH  11  14
ENDBRANCH   6  11
ENDBRANCH   2   4
BRANCH   1  20
ATOM     20  C   UNL d   1     -42.472-122.470 -50.172  0.00  0.00     0.160 A 
ATOM     21  C   UNL d   1     -42.006-122.463 -49.488  0.00  0.00     0.298 A 
ATOM     22  N   UNL d   1     -42.350-122.962 -48.941  0.00  0.00    -0.209 N 
ATOM     23  O   UNL d   1     -41.319-122.028 -49.385  0.00  0.00    -0.263 OA
ATOM     24  N   UNL d   1     -43.030-123.282 -49.280  0.00  0.00    -0.238 N 
ATOM     25  C   UNL d   1     -43.108-122.981 -50.038  0.00  0.00     0.104 A 
ATOM     26  C   UNL d   1     -43.541-123.810 -48.922  0.00  0.00     0.120 C 
ATOM     27  C   UNL d   1     -43.705-123.152 -50.569  0.00  0.00     0.022 C 
BRANCH  22  28
ATOM     28  C   UNL d   1     -42.067-123.116 -48.191  0.00  0.00     0.085 A 
ATOM     29  C   UNL d   1     -42.387-122.722 -47.549  0.00  0.00     0.019 A 
ATOM     30  C   UNL d   1     -42.102-122.878 -46.796  0.00  0.00     0.002 A 
ATOM     31  C   UNL d   1     -41.506-123.420 -46.681  0.00  0.00     0.000 A 
ATOM     32  C   UNL d   1     -41.185-123.817 -47.333  0.00  0.00     0.002 A 
ATOM     33  C   UNL d   1     -41.470-123.661 -48.086  0.00  0.00     0.019 A 
ENDBRANCH  22  28
ENDBRANCH   1  20
TORSDOF 5
ENDMDL
