MODEL 1
REMARK VINA RESULT:      20.4      0.000      0.000
REMARK  3 active torsions:
REMARK  status: ('A' for Active; 'I' for Inactive)
REMARK    1  A    between atoms: C_6  and  C_1 
REMARK    2  A    between atoms: C_5  and  N_2 
REMARK    3  A    between atoms: N_4  and  C_6 
ROOT
ATOM      1  N   UNL d   1      46.261 -17.747  43.723  0.00  0.00    -0.299 N 
ATOM      2  N   UNL d   1      46.094 -16.361  44.522  0.00  0.00    -0.300 N 
ATOM      3  C   UNL d   1      46.084 -17.067  43.318  0.00  0.00     0.100 A 
ATOM      4  C   UNL d   1      46.357 -17.741  44.542  0.00  0.00     0.100 A 
ATOM      5  C   UNL d   1      46.000 -16.375  43.717  0.00  0.00     0.100 A 
ATOM      6  C   UNL d   1      46.274 -17.048  44.942  0.00  0.00     0.100 A 
ENDROOT
BRANCH   2   7
ATOM      7  C   UNL d   1      46.010 -15.643  44.955  0.00  0.00     0.084 C 
BRANCH   7   8
ATOM      8  C   UNL d   1      45.402 -15.086  44.770  0.00  0.00     0.057 A 
ATOM      9  C   UNL d   1      45.628 -14.338  44.595  0.00  0.00     0.004 A 
ATOM     10  C   UNL d   1      45.014 -13.761  44.405  0.00  0.00     0.000 A 
ATOM     11  C   UNL d   1      46.420 -14.107  44.592  0.00  0.00     0.000 A 
ATOM     12  C   UNL d   1      45.233 -12.988  44.224  0.00  0.00     0.000 A 
ATOM     13  C   UNL d   1      44.242 -13.986  44.408  0.00  0.00     0.003 A 
ATOM     14  C   UNL d   1      46.037 -12.800  44.233  0.00  0.00     0.000 A 
ATOM     15  C   UNL d   1      46.602 -13.298  44.400  0.00  0.00     0.000 A 
ATOM     16  C   UNL d   1      44.044 -14.800  44.601  0.00  0.00     0.042 A 
ATOM     17  C   UNL d   1      44.608 -15.297  44.767  0.00  0.00     0.197 A 
ATOM     18  O   UNL d   1      44.382 -16.093  44.954  0.00  0.00    -0.286 OA
ENDBRANCH   7   8
ENDBRANCH   2   7
BRANCH   1  19
ATOM     19  C   UNL d   1      46.348 -18.472  43.305  0.00  0.00     0.092 A 
ATOM     20  C   UNL d   1      46.268 -19.186  43.718  0.00  0.00     0.156 A 
ATOM     21  F   UNL d   1      46.105 -19.206  44.526  0.00  0.00    -0.203 F 
ATOM     22  C   UNL d   1      46.356 -19.919  43.296  0.00  0.00     0.031 A 
ATOM     23  C   UNL d   1      46.519 -19.897  42.483  0.00  0.00     0.002 A 
ATOM     24  C   UNL d   1      46.596 -19.194  42.089  0.00  0.00     0.002 A 
ATOM     25  C   UNL d   1      46.508 -18.462  42.511  0.00  0.00     0.020 A 
ENDBRANCH   1  19
TORSDOF 3
ENDMDL
