MODEL 1
REMARK VINA RESULT:      -4.7      0.000      0.000
REMARK  4 active torsions:
REMARK  status: ('A' for Active; 'I' for Inactive)
REMARK    1  A    between atoms: C_6  and  C_1 
REMARK    2  A    between atoms: C_8  and  N_3 
REMARK    3  A    between atoms: C_7  and  C_4 
REMARK    4  A    between atoms: O_16  and  C_13 
ROOT
ATOM      1  C   UNL d   1     -41.786-122.432 -51.387  0.00  0.00     0.103 A 
ATOM      2  N   UNL d   1     -41.518-123.816 -51.620  0.00  0.00    -0.165 NA
ATOM      3  N   UNL d   1     -41.539-122.908 -52.712  0.00  0.00    -0.228 N 
ATOM      4  C   UNL d   1     -41.688-123.201 -51.105  0.00  0.00     0.109 A 
ATOM      5  C   UNL d   1     -41.709-122.293 -52.198  0.00  0.00     0.108 A 
ENDROOT
BRANCH   4   6
ATOM      6  C   UNL d   1     -41.763-123.348 -50.301  0.00  0.00     0.020 A 
ATOM      7  C   UNL d   1     -42.476-123.636 -49.998  0.00  0.00     0.004 A 
ATOM      8  C   UNL d   1     -42.550-123.785 -49.183  0.00  0.00     0.024 A 
ATOM      9  C   UNL d   1     -41.914-123.644 -48.681  0.00  0.00     0.094 A 
ATOM     10  C   UNL d   1     -41.201-123.356 -48.984  0.00  0.00     0.024 A 
ATOM     11  C   UNL d   1     -41.126-123.208 -49.799  0.00  0.00     0.004 A 
BRANCH   9  12
ATOM     12  O   UNL d   1     -41.989-123.796 -47.843  0.00  0.00    -0.328 OA
ATOM     13  C   UNL d   1     -42.184-123.163 -47.318  0.00  0.00     0.181 C 
ENDBRANCH   9  12
ENDBRANCH   4   6
BRANCH   1  14
ATOM     14  C   UNL d   1     -41.956-121.816 -50.872  0.00  0.00     0.214 C 
ATOM     15  O   UNL d   1     -41.349-121.378 -50.526  0.00  0.00    -0.644 OA
ATOM     16  O   UNL d   1     -42.773-121.622 -50.688  0.00  0.00    -0.644 OA
ENDBRANCH   1  14
BRANCH   3  17
ATOM     17  C   UNL d   1     -41.426-122.974 -53.527  0.00  0.00     0.083 A 
ATOM     18  C   UNL d   1     -41.252-123.705 -53.862  0.00  0.00     0.019 A 
ATOM     19  C   UNL d   1     -41.140-123.769 -54.678  0.00  0.00     0.002 A 
ATOM     20  C   UNL d   1     -41.201-123.102 -55.156  0.00  0.00     0.000 A 
ATOM     21  C   UNL d   1     -41.375-122.371 -54.821  0.00  0.00     0.002 A 
ATOM     22  C   UNL d   1     -41.487-122.307 -54.007  0.00  0.00     0.019 A 
ENDBRANCH   3  17
TORSDOF 4
ENDMDL
MODEL 2
REMARK VINA RESULT:      -1.8      1.385      4.561
REMARK  4 active torsions:
REMARK  status: ('A' for Active; 'I' for Inactive)
REMARK    1  A    between atoms: C_6  and  C_1 
REMARK    2  A    between atoms: C_8  and  N_3 
REMARK    3  A    between atoms: C_7  and  C_4 
REMARK    4  A    between atoms: O_16  and  C_13 
ROOT
ATOM      1  C   UNL d   1     -41.830-122.136 -51.546  0.00  0.00     0.103 A 
ATOM      2  N   UNL d   1     -41.846-123.561 -51.650  0.00  0.00    -0.165 NA
ATOM      3  N   UNL d   1     -41.838-122.947 -50.368  0.00  0.00    -0.228 N 
ATOM      4  C   UNL d   1     -41.838-122.822 -52.004  0.00  0.00     0.109 A 
ATOM      5  C   UNL d   1     -41.831-122.207 -50.723  0.00  0.00     0.108 A 
ENDROOT
BRANCH   4   6
ATOM      6  C   UNL d   1     -41.838-122.759 -52.823  0.00  0.00     0.020 A 
ATOM      7  C   UNL d   1     -42.554-122.714 -53.234  0.00  0.00     0.004 A 
ATOM      8  C   UNL d   1     -42.553-122.651 -54.063  0.00  0.00     0.024 A 
ATOM      9  C   UNL d   1     -41.839-122.634 -54.472  0.00  0.00     0.094 A 
ATOM     10  C   UNL d   1     -41.123-122.679 -54.061  0.00  0.00     0.024 A 
ATOM     11  C   UNL d   1     -41.124-122.742 -53.232  0.00  0.00     0.004 A 
BRANCH   9  12
ATOM     12  O   UNL d   1     -41.835-122.569 -55.324  0.00  0.00    -0.328 OA
ATOM     13  C   UNL d   1     -41.628-121.834 -55.688  0.00  0.00     0.181 C 
ENDBRANCH   9  12
ENDBRANCH   4   6
BRANCH   1  14
ATOM     14  C   UNL d   1     -41.823-121.396 -51.901  0.00  0.00     0.214 C 
ATOM     15  O   UNL d   1     -41.123-121.083 -52.206  0.00  0.00    -0.644 OA
ATOM     16  O   UNL d   1     -42.547-120.938 -51.958  0.00  0.00    -0.644 OA
ENDBRANCH   1  14
BRANCH   3  17
ATOM     17  C   UNL d   1     -41.841-123.221 -49.590  0.00  0.00     0.083 A 
ATOM     18  C   UNL d   1     -41.155-123.537 -49.262  0.00  0.00     0.019 A 
ATOM     19  C   UNL d   1     -41.159-123.811 -48.483  0.00  0.00     0.002 A 
ATOM     20  C   UNL d   1     -41.847-123.769 -48.034  0.00  0.00     0.000 A 
ATOM     21  C   UNL d   1     -42.533-123.454 -48.363  0.00  0.00     0.002 A 
ATOM     22  C   UNL d   1     -42.530-123.180 -49.141  0.00  0.00     0.019 A 
ENDBRANCH   3  17
TORSDOF 4
ENDMDL
