MODEL 1
REMARK VINA RESULT:      -4.7      0.000      0.000
REMARK  5 active torsions:
REMARK  status: ('A' for Active; 'I' for Inactive)
REMARK    1  A    between atoms: C_4  and  C_1 
REMARK    2  A    between atoms: N_8  and  C_4 
REMARK    3  A    between atoms: C_11  and  N_8 
REMARK    4  A    between atoms: O_17  and  C_12 
REMARK    5  A    between atoms: C_20  and  O_17 
ROOT
ATOM      1  C   UNL d   1      57.618   0.494  30.848  0.00  0.00     0.105 C 
ENDROOT
BRANCH   1   2
ATOM      2  C   UNL d   1      58.298   0.457  30.361  0.00  0.00     0.096 A 
ATOM      3  C   UNL d   1      59.046   0.550  30.687  0.00  0.00     0.196 A 
ATOM      4  C   UNL d   1      59.712   0.511  30.196  0.00  0.00     0.019 A 
ATOM      5  O   UNL d   1      59.139   0.682  31.507  0.00  0.00    -0.287 OA
ATOM      6  C   UNL d   1      59.627   0.381  29.383  0.00  0.00     0.043 A 
ATOM      7  C   UNL d   1      58.868   0.288  29.063  0.00  0.00     0.019 A 
ATOM      8  C   UNL d   1      60.419   0.450  29.542  0.00  0.00     0.009 C 
ATOM      9  C   UNL d   1      59.964   0.284  28.636  0.00  0.00     0.009 C 
ATOM     10  C   UNL d   1      58.204   0.325  29.545  0.00  0.00     0.196 A 
ATOM     11  O   UNL d   1      57.448   0.230  29.203  0.00  0.00    -0.287 OA
ENDBRANCH   1   2
BRANCH   1  12
ATOM     12  N   UNL d   1      57.323  -0.176  31.214  0.00  0.00    -0.244 NA
BRANCH  12  13
ATOM     13  C   UNL d   1      56.781  -0.098  31.826  0.00  0.00     0.082 A 
ATOM     14  C   UNL d   1      56.654  -0.737  32.332  0.00  0.00     0.021 A 
ATOM     15  C   UNL d   1      56.106  -0.655  32.949  0.00  0.00     0.026 A 
ATOM     16  C   UNL d   1      55.691   0.049  33.061  0.00  0.00     0.100 A 
ATOM     17  C   UNL d   1      55.828   0.682  32.546  0.00  0.00     0.026 A 
ATOM     18  C   UNL d   1      56.371   0.607  31.931  0.00  0.00     0.021 A 
BRANCH  16  19
ATOM     19  O   UNL d   1      55.133   0.130  33.691  0.00  0.00    -0.305 OA
BRANCH  19  20
ATOM     20  C   UNL d   1      55.314   0.588  34.377  0.00  0.00     0.123 C 
ATOM     21  C   UNL d   1      54.734   0.679  34.956  0.00  0.00     0.029 C 
ENDBRANCH  19  20
ENDBRANCH  16  19
ENDBRANCH  12  13
ENDBRANCH   1  12
TORSDOF 5
ENDMDL
MODEL 2
REMARK VINA RESULT:      -4.5      1.174      1.548
REMARK  5 active torsions:
REMARK  status: ('A' for Active; 'I' for Inactive)
REMARK    1  A    between atoms: C_4  and  C_1 
REMARK    2  A    between atoms: N_8  and  C_4 
REMARK    3  A    between atoms: C_11  and  N_8 
REMARK    4  A    between atoms: O_17  and  C_12 
REMARK    5  A    between atoms: C_20  and  O_17 
ROOT
ATOM      1  C   UNL d   1      57.703  -0.408  30.480  0.00  0.00     0.105 C 
ENDROOT
BRANCH   1   2
ATOM      2  C   UNL d   1      58.323  -0.661  29.978  0.00  0.00     0.096 A 
ATOM      3  C   UNL d   1      58.354  -1.440  29.719  0.00  0.00     0.196 A 
ATOM      4  C   UNL d   1      58.972  -1.679  29.222  0.00  0.00     0.019 A 
ATOM      5  O   UNL d   1      57.768  -1.989  29.953  0.00  0.00    -0.287 OA
ATOM      6  C   UNL d   1      59.554  -1.140  28.988  0.00  0.00     0.043 A 
ATOM      7  C   UNL d   1      59.514  -0.356  29.254  0.00  0.00     0.019 A 
ATOM      8  C   UNL d   1      59.728  -1.856  28.649  0.00  0.00     0.009 C 
ATOM      9  C   UNL d   1      60.243  -0.971  28.567  0.00  0.00     0.009 C 
ATOM     10  C   UNL d   1      58.904  -0.113  29.747  0.00  0.00     0.196 A 
ATOM     11  O   UNL d   1      58.882   0.681  30.005  0.00  0.00    -0.287 OA
ENDBRANCH   1   2
BRANCH   1  12
ATOM     12  N   UNL d   1      57.794  -0.399  31.294  0.00  0.00    -0.244 NA
BRANCH  12  13
ATOM     13  C   UNL d   1      57.141  -0.265  31.774  0.00  0.00     0.082 A 
ATOM     14  C   UNL d   1      56.904   0.511  31.921  0.00  0.00     0.021 A 
ATOM     15  C   UNL d   1      56.245   0.641  32.406  0.00  0.00     0.026 A 
ATOM     16  C   UNL d   1      55.829   0.013  32.740  0.00  0.00     0.100 A 
ATOM     17  C   UNL d   1      56.077  -0.761  32.585  0.00  0.00     0.026 A 
ATOM     18  C   UNL d   1      56.731  -0.898  32.104  0.00  0.00     0.021 A 
BRANCH  16  19
ATOM     19  O   UNL d   1      55.156   0.150  33.235  0.00  0.00    -0.305 OA
BRANCH  19  20
ATOM     20  C   UNL d   1      55.199   0.682  33.889  0.00  0.00     0.123 C 
ATOM     21  C   UNL d   1      54.619   0.638  34.474  0.00  0.00     0.029 C 
ENDBRANCH  19  20
ENDBRANCH  16  19
ENDBRANCH  12  13
ENDBRANCH   1  12
TORSDOF 5
ENDMDL
MODEL 3
REMARK VINA RESULT:      -3.7      1.050      5.015
REMARK  5 active torsions:
REMARK  status: ('A' for Active; 'I' for Inactive)
REMARK    1  A    between atoms: C_4  and  C_1 
REMARK    2  A    between atoms: N_8  and  C_4 
REMARK    3  A    between atoms: C_11  and  N_8 
REMARK    4  A    between atoms: O_17  and  C_12 
REMARK    5  A    between atoms: C_20  and  O_17 
ROOT
ATOM      1  C   UNL d   1      56.676   0.578  32.583  0.00  0.00     0.105 C 
ENDROOT
BRANCH   1   2
ATOM      2  C   UNL d   1      56.280   0.599  33.320  0.00  0.00     0.096 A 
ATOM      3  C   UNL d   1      55.459   0.573  33.349  0.00  0.00     0.196 A 
ATOM      4  C   UNL d   1      55.077   0.595  34.084  0.00  0.00     0.019 A 
ATOM      5  O   UNL d   1      55.010   0.526  32.646  0.00  0.00    -0.287 OA
ATOM      6  C   UNL d   1      55.517   0.642  34.784  0.00  0.00     0.043 A 
ATOM      7  C   UNL d   1      56.344   0.668  34.744  0.00  0.00     0.019 A 
ATOM      8  C   UNL d   1      54.731   0.626  34.985  0.00  0.00     0.009 C 
ATOM      9  C   UNL d   1      55.546   0.682  35.607  0.00  0.00     0.009 C 
ATOM     10  C   UNL d   1      56.729   0.646  34.018  0.00  0.00     0.196 A 
ATOM     11  O   UNL d   1      57.563   0.673  34.000  0.00  0.00    -0.287 OA
ENDBRANCH   1   2
BRANCH   1  12
ATOM     12  N   UNL d   1      56.830  -0.132  32.205  0.00  0.00    -0.244 NA
BRANCH  12  13
ATOM     13  C   UNL d   1      57.203  -0.131  31.474  0.00  0.00     0.082 A 
ATOM     14  C   UNL d   1      57.420  -0.850  31.133  0.00  0.00     0.021 A 
ATOM     15  C   UNL d   1      57.796  -0.843  30.395  0.00  0.00     0.026 A 
ATOM     16  C   UNL d   1      57.954  -0.136  30.001  0.00  0.00     0.100 A 
ATOM     17  C   UNL d   1      57.731   0.578  30.354  0.00  0.00     0.026 A 
ATOM     18  C   UNL d   1      57.357   0.580  31.088  0.00  0.00     0.021 A 
BRANCH  16  19
ATOM     19  O   UNL d   1      58.339  -0.134  29.247  0.00  0.00    -0.305 OA
BRANCH  19  20
ATOM     20  C   UNL d   1      59.174  -0.238  29.185  0.00  0.00     0.123 C 
ATOM     21  C   UNL d   1      59.548  -0.025  28.482  0.00  0.00     0.029 C 
ENDBRANCH  19  20
ENDBRANCH  16  19
ENDBRANCH  12  13
ENDBRANCH   1  12
TORSDOF 5
ENDMDL
