MODEL 1
REMARK VINA RESULT:      22.7      0.000      0.000
REMARK  4 active torsions:
REMARK  status: ('A' for Active; 'I' for Inactive)
REMARK    1  A    between atoms: C_7  and  C_1 
REMARK    2  A    between atoms: C_6  and  C_3 
REMARK    3  A    between atoms: O_15  and  C_8 
REMARK    4  A    between atoms: O_16  and  C_12 
ROOT
ATOM      1  C   UNL d   1      59.872  49.705  51.174  0.00  0.00     0.042 A 
ATOM      2  C   UNL d   1      60.580  49.706  50.755  0.00  0.00     0.098 A 
ATOM      3  C   UNL d   1      61.295  49.706  51.157  0.00  0.00     0.048 A 
ATOM      4  C   UNL d   1      59.876  49.703  51.995  0.00  0.00     0.005 A 
ATOM      5  C   UNL d   1      61.305  49.704  51.985  0.00  0.00     0.096 A 
ATOM      6  C   UNL d   1      60.591  49.703  52.404  0.00  0.00     0.024 A 
ENDROOT
BRANCH   1   7
ATOM      7  C   UNL d   1      59.155  49.705  50.763  0.00  0.00     0.107 A 
ATOM      8  C   UNL d   1      57.782  49.702  51.147  0.00  0.00     0.048 A 
ATOM      9  C   UNL d   1      57.565  49.704  50.351  0.00  0.00     0.169 A 
ATOM     10  N   UNL d   1      58.134  49.706  49.755  0.00  0.00    -0.142 NA
ATOM     11  N   UNL d   1      58.933  49.707  49.969  0.00  0.00    -0.148 NA
BRANCH   9  12
ATOM     12  C   UNL d   1      56.764  49.704  50.147  0.00  0.00     0.231 C 
ATOM     13  O   UNL d   1      56.189  49.701  50.739  0.00  0.00    -0.643 OA
ATOM     14  O   UNL d   1      56.539  49.706  49.355  0.00  0.00    -0.643 OA
ENDBRANCH   9  12
ENDBRANCH   1   7
BRANCH   2  15
ATOM     15  O   UNL d   1      60.570  49.708  49.927  0.00  0.00    -0.328 OA
ATOM     16  C   UNL d   1      61.202  49.376  49.508  0.00  0.00     0.181 C 
ENDBRANCH   2  15
BRANCH   5  17
ATOM     17  O   UNL d   1      62.023  49.704  52.390  0.00  0.00    -0.328 OA
ATOM     18  C   UNL d   1      62.034  49.673  53.217  0.00  0.00     0.181 C 
ENDBRANCH   5  17
TORSDOF 4
ENDMDL
