MODEL 1
REMARK VINA RESULT:      74.0      0.000      0.000
REMARK  10 active torsions:
REMARK  status: ('A' for Active; 'I' for Inactive)
REMARK       I    between atoms: C_6  and  N_1 
REMARK    1  A    between atoms: C_7  and  C_3 
REMARK    2  A    between atoms: C_9  and  C_4 
REMARK    3  A    between atoms: C_19  and  C_6 
REMARK    4  A    between atoms: C_10  and  C_25 
REMARK    5  A    between atoms: O_23  and  C_10 
REMARK    6  A    between atoms: S_18  and  C_19 
REMARK    7  A    between atoms: C_25  and  S_18 
REMARK    8  A    between atoms: C_26  and  O_23 
REMARK    9  A    between atoms: C_27  and  C_26 
REMARK   10  A    between atoms: C_28  and  C_27 
ROOT
ATOM      1  N   UNL d   1      59.945  48.984  50.633  0.00  0.00    -0.195 N 
ATOM      2  N   UNL d   1      59.305  49.021  50.116  0.00  0.00    -0.162 NA
ATOM      3  C   UNL d   1      58.693  49.372  50.493  0.00  0.00     0.109 A 
ATOM      4  C   UNL d   1      59.704  49.326  51.342  0.00  0.00     0.088 A 
ATOM      5  C   UNL d   1      58.931  49.566  51.259  0.00  0.00     0.041 A 
ATOM      6  C   UNL d   1      60.694  48.663  50.470  0.00  0.00     0.275 C 
ATOM      7  O   UNL d   1      61.282  48.665  51.043  0.00  0.00    -0.266 OA
ENDROOT
BRANCH   4   8
ATOM      8  C   UNL d   1      60.142  49.421  52.028  0.00  0.00     0.018 A 
ATOM      9  C   UNL d   1      60.960  49.342  52.004  0.00  0.00     0.004 A 
ATOM     10  C   UNL d   1      61.397  49.438  52.690  0.00  0.00     0.030 A 
ATOM     11  C   UNL d   1      61.029  49.613  53.405  0.00  0.00     0.140 A 
ATOM     12  C   UNL d   1      60.199  49.692  53.421  0.00  0.00     0.030 A 
ATOM     13  F   UNL d   1      61.476  49.707  54.090  0.00  0.00    -0.204 F 
ATOM     14  C   UNL d   1      59.760  49.597  52.739  0.00  0.00     0.004 A 
ENDBRANCH   4   8
BRANCH   6  15
ATOM     15  C   UNL d   1      60.847  48.340  49.726  0.00  0.00     0.127 C 
BRANCH  15  16
ATOM     16  S   UNL d   1      61.436  47.775  49.631  0.00  0.00    -0.089 SA
BRANCH  16  17
ATOM     17  C   UNL d   1      61.234  47.004  49.438  0.00  0.00     0.103 C 
BRANCH  17  18
ATOM     18  C   UNL d   1      61.802  46.408  49.440  0.00  0.00     0.307 C 
ATOM     19  O   UNL d   1      62.595  46.602  49.310  0.00  0.00    -0.258 OA
BRANCH  18  20
ATOM     20  O   UNL d   1      61.586  45.617  49.569  0.00  0.00    -0.271 OA
BRANCH  20  21
ATOM     21  C   UNL d   1      61.190  45.405  50.254  0.00  0.00     0.126 C 
BRANCH  21  22
ATOM     22  C   UNL d   1      61.599  45.013  50.865  0.00  0.00     0.027 C 
BRANCH  22  23
ATOM     23  C   UNL d   1      61.229  44.408  51.288  0.00  0.00     0.002 C 
ATOM     24  C   UNL d   1      60.790  43.844  50.878  0.00  0.00     0.000 C 
ENDBRANCH  22  23
ENDBRANCH  21  22
ENDBRANCH  20  21
ENDBRANCH  18  20
ENDBRANCH  17  18
ENDBRANCH  16  17
ENDBRANCH  15  16
ENDBRANCH   6  15
BRANCH   3  25
ATOM     25  C   UNL d   1      57.961  49.499  50.135  0.00  0.00     0.049 A 
ATOM     26  S   UNL d   1      57.697  49.588  49.366  0.00  0.00    -0.085 SA
ATOM     27  C   UNL d   1      56.882  49.701  49.383  0.00  0.00     0.035 A 
ATOM     28  C   UNL d   1      56.634  49.681  50.170  0.00  0.00     0.007 A 
ATOM     29  C   UNL d   1      57.302  49.556  50.640  0.00  0.00     0.009 A 
ENDBRANCH   3  25
TORSDOF 10
ENDMDL
