MODEL 1
REMARK VINA RESULT:      66.6      0.000      0.000
REMARK  9 active torsions:
REMARK  status: ('A' for Active; 'I' for Inactive)
REMARK    1  A    between atoms: C_17  and  N_1 
REMARK    2  A    between atoms: S_10  and  C_2 
REMARK    3  A    between atoms: N_8  and  C_9 
REMARK    4  A    between atoms: C_19  and  S_10 
REMARK    5  A    between atoms: C_11  and  C_19 
REMARK       I    between atoms: N_13  and  C_11 
REMARK    6  A    between atoms: C_20  and  N_13 
REMARK    7  A    between atoms: C_28  and  C_17 
REMARK    8  A    between atoms: C_23  and  C_20 
REMARK    9  A    between atoms: C_29  and  C_28 
ROOT
ATOM      1  N   UNL d   1      46.442 -18.071  43.427  0.00  0.00    -0.253 N 
ATOM      2  C   UNL d   1      46.448 -18.027  42.603  0.00  0.00     0.182 A 
ATOM      3  C   UNL d   1      46.293 -17.388  43.876  0.00  0.00     0.268 A 
ATOM      4  C   UNL d   1      46.153 -16.668  43.500  0.00  0.00     0.076 A 
ATOM      5  N   UNL d   1      46.306 -17.299  42.228  0.00  0.00    -0.222 NA
ATOM      6  C   UNL d   1      46.159 -16.624  42.676  0.00  0.00     0.088 A 
ATOM      7  C   UNL d   1      46.006 -15.994  43.948  0.00  0.00     0.024 A 
ATOM      8  C   UNL d   1      45.865 -15.274  43.572  0.00  0.00     0.065 A 
ATOM      9  O   UNL d   1      46.287 -17.432  44.699  0.00  0.00    -0.267 OA
ATOM     10  C   UNL d   1      46.018 -15.906  42.301  0.00  0.00     0.021 A 
ATOM     11  C   UNL d   1      45.871 -15.230  42.748  0.00  0.00     0.019 A 
ENDROOT
BRANCH   2  12
ATOM     12  S   UNL d   1      46.596 -18.705  42.151  0.00  0.00    -0.044 SA
BRANCH  12  13
ATOM     13  C   UNL d   1      46.641 -18.654  41.320  0.00  0.00     0.101 C 
BRANCH  13  14
ATOM     14  C   UNL d   1      45.947 -18.658  40.868  0.00  0.00     0.286 C 
ATOM     15  N   UNL d   1      45.946 -18.310  40.115  0.00  0.00    -0.206 NA
ATOM     16  O   UNL d   1      45.265 -19.010  41.172  0.00  0.00    -0.265 OA
BRANCH  15  17
ATOM     17  C   UNL d   1      45.246 -18.315  39.662  0.00  0.00     0.102 C 
BRANCH  17  18
ATOM     18  C   UNL d   1      45.116 -17.715  39.102  0.00  0.00     0.019 A 
ATOM     19  C   UNL d   1      45.037 -16.932  39.348  0.00  0.00     0.002 A 
ATOM     20  C   UNL d   1      44.907 -16.333  38.797  0.00  0.00     0.000 A 
ATOM     21  C   UNL d   1      44.855 -16.526  37.981  0.00  0.00     0.000 A 
ATOM     22  C   UNL d   1      44.934 -17.310  37.736  0.00  0.00     0.000 A 
ATOM     23  C   UNL d   1      45.064 -17.910  38.294  0.00  0.00     0.002 A 
ENDBRANCH  17  18
ENDBRANCH  15  17
ENDBRANCH  13  14
ENDBRANCH  12  13
ENDBRANCH   2  12
BRANCH   1  24
ATOM     24  C   UNL d   1      46.584 -18.793  43.802  0.00  0.00     0.085 C 
BRANCH  24  25
ATOM     25  C   UNL d   1      46.042 -19.085  44.352  0.00  0.00     0.019 C 
BRANCH  25  26
ATOM     26  C   UNL d   1      46.299 -19.600  44.950  0.00  0.00     0.002 C 
ATOM     27  C   UNL d   1      46.645 -20.323  44.752  0.00  0.00     0.000 C 
ENDBRANCH  25  26
ENDBRANCH  24  25
ENDBRANCH   1  24
BRANCH   8  28
ATOM     28  N   UNL d   1      45.718 -14.600  44.021  0.00  0.00    -0.300 N 
ATOM     29  C   UNL d   1      46.317 -14.280  44.487  0.00  0.00     0.107 A 
ATOM     30  C   UNL d   1      46.174 -13.597  44.944  0.00  0.00     0.142 A 
ATOM     31  O   UNL d   1      45.422 -13.239  44.927  0.00  0.00    -0.300 OA
ATOM     32  C   UNL d   1      44.819 -13.567  44.453  0.00  0.00     0.142 A 
ATOM     33  C   UNL d   1      44.966 -14.242  44.004  0.00  0.00     0.107 A 
ENDBRANCH   8  28
TORSDOF 9
ENDMDL
