MODEL 1
REMARK VINA RESULT:     121.5      0.000      0.000
REMARK  8 active torsions:
REMARK  status: ('A' for Active; 'I' for Inactive)
REMARK    1  A    between atoms: C_21  and  N_5 
REMARK    2  A    between atoms: S_10  and  C_6 
REMARK    3  A    between atoms: C_17  and  C_7 
REMARK    4  A    between atoms: C_23  and  S_10 
REMARK    5  A    between atoms: C_13  and  C_23 
REMARK       I    between atoms: N_19  and  C_13 
REMARK    6  A    between atoms: C_28  and  N_19 
REMARK    7  A    between atoms: C_24  and  C_21 
REMARK    8  A    between atoms: C_27  and  C_28 
ROOT
ATOM      1  C   UNL d   1      61.312  45.652  51.140  0.00  0.00     0.081 A 
ATOM      2  C   UNL d   1      60.912  46.030  51.719  0.00  0.00     0.117 A 
ATOM      3  N   UNL d   1      60.755  46.868  51.704  0.00  0.00    -0.215 NA
ATOM      4  C   UNL d   1      61.588  46.120  50.483  0.00  0.00     0.268 A 
ATOM      5  N   UNL d   1      61.449  46.927  50.446  0.00  0.00    -0.253 N 
ATOM      6  C   UNL d   1      61.010  47.312  51.093  0.00  0.00     0.182 A 
ATOM      7  C   UNL d   1      61.370  44.860  51.316  0.00  0.00     0.013 A 
ATOM      8  S   UNL d   1      60.695  45.467  52.306  0.00  0.00    -0.067 SA
ATOM      9  C   UNL d   1      60.989  44.735  52.040  0.00  0.00     0.037 A 
ATOM     10  O   UNL d   1      62.013  45.768  49.849  0.00  0.00    -0.267 OA
ENDROOT
BRANCH   6  11
ATOM     11  S   UNL d   1      60.855  48.135  51.078  0.00  0.00    -0.044 SA
BRANCH  11  12
ATOM     12  C   UNL d   1      60.474  48.505  51.674  0.00  0.00     0.101 C 
BRANCH  12  13
ATOM     13  C   UNL d   1      60.374  49.284  51.695  0.00  0.00     0.286 C 
ATOM     14  N   UNL d   1      59.892  49.707  51.203  0.00  0.00    -0.206 NA
ATOM     15  O   UNL d   1      60.779  49.708  52.251  0.00  0.00    -0.265 OA
BRANCH  14  16
ATOM     16  C   UNL d   1      59.495  49.223  50.647  0.00  0.00     0.102 C 
BRANCH  16  17
ATOM     17  C   UNL d   1      58.650  49.355  50.567  0.00  0.00     0.021 A 
ATOM     18  C   UNL d   1      58.123  49.297  51.229  0.00  0.00     0.028 A 
ATOM     19  C   UNL d   1      57.344  49.423  51.137  0.00  0.00     0.119 A 
ATOM     20  O   UNL d   1      56.732  49.398  51.692  0.00  0.00    -0.300 OA
ATOM     21  C   UNL d   1      57.027  49.612  50.404  0.00  0.00     0.119 A 
ATOM     22  C   UNL d   1      56.053  49.577  51.264  0.00  0.00     0.304 A 
ATOM     23  O   UNL d   1      56.232  49.708  50.476  0.00  0.00    -0.300 OA
ATOM     24  C   UNL d   1      57.537  49.676  49.727  0.00  0.00     0.026 A 
ATOM     25  C   UNL d   1      58.327  49.546  49.831  0.00  0.00     0.004 A 
ENDBRANCH  16  17
ENDBRANCH  14  16
ENDBRANCH  12  13
ENDBRANCH  11  12
ENDBRANCH   6  11
BRANCH   5  26
ATOM     26  C   UNL d   1      61.759  47.314  49.757  0.00  0.00     0.085 C 
BRANCH  26  27
ATOM     27  C   UNL d   1      62.371  47.912  49.817  0.00  0.00     0.019 C 
ATOM     28  C   UNL d   1      62.543  48.361  49.144  0.00  0.00     0.002 C 
ENDBRANCH  26  27
ENDBRANCH   5  26
BRANCH   7  29
ATOM     29  C   UNL d   1      61.607  44.118  51.156  0.00  0.00     0.001 A 
ATOM     30  C   UNL d   1      61.982  43.867  50.467  0.00  0.00     0.000 A 
ATOM     31  C   UNL d   1      62.219  43.125  50.308  0.00  0.00     0.000 A 
ATOM     32  C   UNL d   1      62.079  42.545  50.882  0.00  0.00     0.000 A 
ATOM     33  C   UNL d   1      61.705  42.761  51.583  0.00  0.00     0.000 A 
ATOM     34  C   UNL d   1      61.471  43.540  51.722  0.00  0.00     0.000 A 
ENDBRANCH   7  29
TORSDOF 8
ENDMDL
MODEL 2
REMARK VINA RESULT:     122.2      1.844      5.238
REMARK  8 active torsions:
REMARK  status: ('A' for Active; 'I' for Inactive)
REMARK    1  A    between atoms: C_21  and  N_5 
REMARK    2  A    between atoms: S_10  and  C_6 
REMARK    3  A    between atoms: C_17  and  C_7 
REMARK    4  A    between atoms: C_23  and  S_10 
REMARK    5  A    between atoms: C_13  and  C_23 
REMARK       I    between atoms: N_19  and  C_13 
REMARK    6  A    between atoms: C_28  and  N_19 
REMARK    7  A    between atoms: C_24  and  C_21 
REMARK    8  A    between atoms: C_27  and  C_28 
ROOT
ATOM      1  C   UNL d   1      58.924  49.577  50.685  0.00  0.00     0.081 A 
ATOM      2  C   UNL d   1      59.103  49.530  51.463  0.00  0.00     0.117 A 
ATOM      3  N   UNL d   1      59.903  49.533  51.757  0.00  0.00    -0.215 NA
ATOM      4  C   UNL d   1      59.574  49.631  50.135  0.00  0.00     0.268 A 
ATOM      5  N   UNL d   1      60.352  49.636  50.394  0.00  0.00    -0.253 N 
ATOM      6  C   UNL d   1      60.516  49.584  51.248  0.00  0.00     0.182 A 
ATOM      7  C   UNL d   1      58.117  49.561  50.585  0.00  0.00     0.013 A 
ATOM      8  S   UNL d   1      58.385  49.482  51.900  0.00  0.00    -0.067 SA
ATOM      9  C   UNL d   1      57.773  49.502  51.335  0.00  0.00     0.037 A 
ATOM     10  O   UNL d   1      59.438  49.682  49.308  0.00  0.00    -0.267 OA
ENDROOT
BRANCH   6  11
ATOM     11  S   UNL d   1      61.301  49.586  51.537  0.00  0.00    -0.044 SA
BRANCH  11  12
ATOM     12  C   UNL d   1      61.750  48.926  51.551  0.00  0.00     0.101 C 
BRANCH  12  13
ATOM     13  C   UNL d   1      62.147  48.668  50.923  0.00  0.00     0.286 C 
ATOM     14  N   UNL d   1      62.143  47.907  50.649  0.00  0.00    -0.206 NA
ATOM     15  O   UNL d   1      62.597  49.196  50.510  0.00  0.00    -0.265 OA
BRANCH  14  16
ATOM     16  C   UNL d   1      61.663  47.401  51.111  0.00  0.00     0.102 C 
BRANCH  16  17
ATOM     17  C   UNL d   1      61.357  46.704  50.711  0.00  0.00     0.021 A 
ATOM     18  C   UNL d   1      61.711  46.402  50.003  0.00  0.00     0.028 A 
ATOM     19  C   UNL d   1      61.416  45.756  49.647  0.00  0.00     0.119 A 
ATOM     20  O   UNL d   1      61.664  45.366  48.962  0.00  0.00    -0.300 OA
ATOM     21  C   UNL d   1      60.762  45.364  49.951  0.00  0.00     0.119 A 
ATOM     22  C   UNL d   1      61.140  44.739  48.876  0.00  0.00     0.304 A 
ATOM     23  O   UNL d   1      60.588  44.736  49.480  0.00  0.00    -0.300 OA
ATOM     24  C   UNL d   1      60.390  45.650  50.661  0.00  0.00     0.026 A 
ATOM     25  C   UNL d   1      60.699  46.306  51.015  0.00  0.00     0.004 A 
ENDBRANCH  16  17
ENDBRANCH  14  16
ENDBRANCH  12  13
ENDBRANCH  11  12
ENDBRANCH   6  11
BRANCH   5  26
ATOM     26  C   UNL d   1      60.935  49.692  49.779  0.00  0.00     0.085 C 
BRANCH  26  27
ATOM     27  C   UNL d   1      61.430  49.024  49.570  0.00  0.00     0.019 C 
ATOM     28  C   UNL d   1      61.273  48.631  48.860  0.00  0.00     0.002 C 
ENDBRANCH  26  27
ENDBRANCH   5  26
BRANCH   7  29
ATOM     29  C   UNL d   1      57.463  49.573  50.135  0.00  0.00     0.001 A 
ATOM     30  C   UNL d   1      56.688  49.477  50.401  0.00  0.00     0.000 A 
ATOM     31  C   UNL d   1      56.034  49.488  49.950  0.00  0.00     0.000 A 
ATOM     32  C   UNL d   1      56.130  49.608  49.136  0.00  0.00     0.000 A 
ATOM     33  C   UNL d   1      56.890  49.707  48.835  0.00  0.00     0.000 A 
ATOM     34  C   UNL d   1      57.552  49.691  49.328  0.00  0.00     0.000 A 
ENDBRANCH   7  29
TORSDOF 8
ENDMDL
