MODEL 1
REMARK VINA RESULT:      -3.2      0.000      0.000
REMARK  8 active torsions:
REMARK  status: ('A' for Active; 'I' for Inactive)
REMARK    1  A    between atoms: C_6  and  C_1 
REMARK    2  A    between atoms: C_7  and  C_2 
REMARK    3  A    between atoms: C_14  and  N_4 
REMARK    4  A    between atoms: C_8  and  C_6 
REMARK    5  A    between atoms: C_9  and  C_8 
REMARK    6  A    between atoms: C_12  and  C_9 
REMARK    7  A    between atoms: C_10  and  C_11 
REMARK    8  A    between atoms: C_11  and  C_14 
ROOT
ATOM      1  C   UNL d   1      58.792  -1.216  29.506  0.00  0.00     0.039 A 
ATOM      2  C   UNL d   1      59.537  -1.231  29.192  0.00  0.00     0.103 A 
ATOM      3  N   UNL d   1      59.792  -1.884  28.789  0.00  0.00    -0.165 NA
ATOM      4  N   UNL d   1      58.552  -2.510  29.017  0.00  0.00    -0.227 N 
ATOM      5  C   UNL d   1      58.296  -1.857  29.420  0.00  0.00     0.102 A 
ENDROOT
BRANCH   1   6
ATOM      6  C   UNL d   1      58.525  -0.553  29.918  0.00  0.00     0.006 C 
BRANCH   6   7
ATOM      7  C   UNL d   1      57.896  -0.616  30.453  0.00  0.00     0.042 C 
BRANCH   7   8
ATOM      8  C   UNL d   1      57.407   0.041  30.609  0.00  0.00     0.196 C 
ATOM      9  O   UNL d   1      57.257   0.585  30.007  0.00  0.00    -0.287 OA
BRANCH   8  10
ATOM     10  C   UNL d   1      57.182  -0.034  31.402  0.00  0.00     0.039 A 
ATOM     11  C   UNL d   1      57.485   0.479  31.975  0.00  0.00     0.004 A 
ATOM     12  C   UNL d   1      57.260   0.405  32.769  0.00  0.00     0.011 A 
ATOM     13  C   UNL d   1      56.727  -0.188  32.992  0.00  0.00     0.058 A 
ATOM     14  C   UNL d   1      56.424  -0.704  32.406  0.00  0.00     0.011 A 
ATOM     15 CL   UNL d   1      56.500  -0.265  33.783  0.00  0.00    -0.082 Cl
ATOM     16  C   UNL d   1      56.647  -0.632  31.615  0.00  0.00     0.004 A 
ENDBRANCH   8  10
ENDBRANCH   7   8
ENDBRANCH   6   7
ENDBRANCH   1   6
BRANCH   2  17
ATOM     17  C   UNL d   1      60.039  -0.591  29.275  0.00  0.00     0.020 A 
ATOM     18  C   UNL d   1      60.309  -0.375  30.009  0.00  0.00     0.008 A 
ATOM     19  C   UNL d   1      60.813   0.269  30.084  0.00  0.00     0.035 A 
ATOM     20 BR   UNL d   1      61.082   0.481  30.830  0.00  0.00    -0.049 Br
ATOM     21  C   UNL d   1      61.036   0.682  29.432  0.00  0.00     0.007 A 
ATOM     22  C   UNL d   1      60.761   0.460  28.695  0.00  0.00     0.001 A 
ATOM     23  C   UNL d   1      60.264  -0.174  28.616  0.00  0.00     0.002 A 
ENDBRANCH   2  17
BRANCH   4  24
ATOM     24  C   UNL d   1      58.226  -3.230  28.823  0.00  0.00     0.107 C 
BRANCH  24  25
ATOM     25  C   UNL d   1      58.876  -3.746  28.773  0.00  0.00     0.091 C 
BRANCH  25  26
ATOM     26  C   UNL d   1      58.548  -4.480  28.579  0.00  0.00     0.213 C 
ATOM     27  O   UNL d   1      59.041  -5.149  28.455  0.00  0.00    -0.644 OA
ATOM     28  O   UNL d   1      57.735  -4.557  28.507  0.00  0.00    -0.644 OA
ENDBRANCH  25  26
ENDBRANCH  24  25
ENDBRANCH   4  24
TORSDOF 8
ENDMDL
