MODEL 1
REMARK VINA RESULT:      -5.8      0.000      0.000
REMARK  4 active torsions:
REMARK  status: ('A' for Active; 'I' for Inactive)
REMARK    1  A    between atoms: N_3  and  C_1 
REMARK       I    between atoms: C_5  and  N_3 
REMARK    2  A    between atoms: C_15  and  C_5 
REMARK    3  A    between atoms: C_8  and  C_9 
REMARK    4  A    between atoms: O_16  and  C_8 
ROOT
ATOM      1  C   UNL d   1      57.306   0.081  31.085  0.00  0.00     0.197 A 
ATOM      2  N   UNL d   1      57.085  -0.649  31.422  0.00  0.00    -0.221 NA
ATOM      3  S   UNL d   1      56.956   0.680  31.529  0.00  0.00    -0.047 SA
ATOM      4  C   UNL d   1      56.519   0.336  32.140  0.00  0.00     0.050 A 
ATOM      5  C   UNL d   1      56.599  -0.492  32.074  0.00  0.00     0.090 A 
ATOM      6  C   UNL d   1      55.688   0.165  33.278  0.00  0.00     0.064 A 
ATOM      7  C   UNL d   1      56.061   0.660  32.746  0.00  0.00     0.013 A 
ATOM      8  C   UNL d   1      56.219  -0.980  32.614  0.00  0.00     0.020 A 
ATOM      9  C   UNL d   1      55.768  -0.664  33.211  0.00  0.00     0.007 A 
ENDROOT
BRANCH   1  10
ATOM     10  N   UNL d   1      57.790   0.181  30.422  0.00  0.00    -0.183 NA
ATOM     11  C   UNL d   1      58.587   0.370  30.518  0.00  0.00     0.281 C 
ATOM     12  O   UNL d   1      58.900   0.460  31.275  0.00  0.00    -0.265 OA
BRANCH  11  13
ATOM     13  C   UNL d   1      59.063   0.469  29.866  0.00  0.00     0.058 A 
ATOM     14  C   UNL d   1      59.884   0.563  29.964  0.00  0.00     0.005 A 
ATOM     15  C   UNL d   1      60.368   0.663  29.302  0.00  0.00     0.000 A 
ATOM     16  C   UNL d   1      60.031   0.669  28.541  0.00  0.00     0.000 A 
ATOM     17  C   UNL d   1      59.227   0.576  28.455  0.00  0.00     0.000 A 
ATOM     18  C   UNL d   1      58.744   0.476  29.117  0.00  0.00     0.005 A 
ENDBRANCH  11  13
ENDBRANCH   1  10
BRANCH   6  19
ATOM     19  C   UNL d   1      55.227   0.474  33.888  0.00  0.00     0.296 C 
ATOM     20  O   UNL d   1      54.422   0.576  33.792  0.00  0.00    -0.259 OA
BRANCH  19  21
ATOM     21  O   UNL d   1      55.594   0.682  34.604  0.00  0.00    -0.296 OA
ATOM     22  C   UNL d   1      55.159   0.667  35.300  0.00  0.00     0.185 C 
ENDBRANCH  19  21
ENDBRANCH   6  19
TORSDOF 4
ENDMDL
MODEL 2
REMARK VINA RESULT:      -4.8      1.373      5.188
REMARK  4 active torsions:
REMARK  status: ('A' for Active; 'I' for Inactive)
REMARK    1  A    between atoms: N_3  and  C_1 
REMARK       I    between atoms: C_5  and  N_3 
REMARK    2  A    between atoms: C_15  and  C_5 
REMARK    3  A    between atoms: C_8  and  C_9 
REMARK    4  A    between atoms: O_16  and  C_8 
ROOT
ATOM      1  C   UNL d   1      57.425   0.558  31.104  0.00  0.00     0.197 A 
ATOM      2  N   UNL d   1      57.194   0.682  30.312  0.00  0.00    -0.221 NA
ATOM      3  S   UNL d   1      58.205   0.297  31.100  0.00  0.00    -0.047 SA
ATOM      4  C   UNL d   1      58.468   0.255  30.318  0.00  0.00     0.050 A 
ATOM      5  C   UNL d   1      57.837   0.495  29.826  0.00  0.00     0.090 A 
ATOM      6  C   UNL d   1      59.282   0.049  29.173  0.00  0.00     0.064 A 
ATOM      7  C   UNL d   1      59.190   0.032  29.985  0.00  0.00     0.013 A 
ATOM      8  C   UNL d   1      57.941   0.508  29.012  0.00  0.00     0.020 A 
ATOM      9  C   UNL d   1      58.651   0.289  28.682  0.00  0.00     0.007 A 
ENDROOT
BRANCH   1  10
ATOM     10  N   UNL d   1      56.951   0.678  31.771  0.00  0.00    -0.183 NA
ATOM     11  C   UNL d   1      56.685   0.032  32.210  0.00  0.00     0.281 C 
ATOM     12  O   UNL d   1      56.893  -0.733  31.983  0.00  0.00    -0.265 OA
BRANCH  11  13
ATOM     13  C   UNL d   1      56.219   0.150  32.865  0.00  0.00     0.058 A 
ATOM     14  C   UNL d   1      56.542   0.508  33.544  0.00  0.00     0.005 A 
ATOM     15  C   UNL d   1      56.068   0.628  34.210  0.00  0.00     0.000 A 
ATOM     16  C   UNL d   1      55.271   0.389  34.199  0.00  0.00     0.000 A 
ATOM     17  C   UNL d   1      54.964   0.040  33.531  0.00  0.00     0.000 A 
ATOM     18  C   UNL d   1      55.438  -0.080  32.865  0.00  0.00     0.005 A 
ENDBRANCH  11  13
ENDBRANCH   1  10
BRANCH   6  19
ATOM     19  C   UNL d   1      59.998  -0.171  28.826  0.00  0.00     0.296 C 
ATOM     20  O   UNL d   1      60.542   0.395  28.599  0.00  0.00    -0.259 OA
BRANCH  19  21
ATOM     21  O   UNL d   1      60.159  -0.978  28.711  0.00  0.00    -0.296 OA
ATOM     22  C   UNL d   1      60.933  -1.223  28.598  0.00  0.00     0.185 C 
ENDBRANCH  19  21
ENDBRANCH   6  19
TORSDOF 4
ENDMDL
MODEL 3
REMARK VINA RESULT:      -4.7      1.287      5.143
REMARK  4 active torsions:
REMARK  status: ('A' for Active; 'I' for Inactive)
REMARK    1  A    between atoms: N_3  and  C_1 
REMARK       I    between atoms: C_5  and  N_3 
REMARK    2  A    between atoms: C_15  and  C_5 
REMARK    3  A    between atoms: C_8  and  C_9 
REMARK    4  A    between atoms: O_16  and  C_8 
ROOT
ATOM      1  C   UNL d   1      57.088   0.220  31.482  0.00  0.00     0.197 A 
ATOM      2  N   UNL d   1      57.114  -0.511  31.082  0.00  0.00    -0.221 NA
ATOM      3  S   UNL d   1      57.710   0.682  31.204  0.00  0.00    -0.047 SA
ATOM      4  C   UNL d   1      58.126   0.251  30.634  0.00  0.00     0.050 A 
ATOM      5  C   UNL d   1      57.755  -0.493  30.558  0.00  0.00     0.090 A 
ATOM      6  C   UNL d   1      59.077  -0.124  29.650  0.00  0.00     0.064 A 
ATOM      7  C   UNL d   1      58.789   0.430  30.176  0.00  0.00     0.013 A 
ATOM      8  C   UNL d   1      58.053  -1.042  30.026  0.00  0.00     0.020 A 
ATOM      9  C   UNL d   1      58.705  -0.868  29.574  0.00  0.00     0.007 A 
ENDROOT
BRANCH   1  10
ATOM     10  N   UNL d   1      56.534   0.439  32.056  0.00  0.00    -0.183 NA
ATOM     11  C   UNL d   1      56.496   0.029  32.771  0.00  0.00     0.281 C 
ATOM     12  O   UNL d   1      57.011  -0.599  32.912  0.00  0.00    -0.265 OA
BRANCH  11  13
ATOM     13  C   UNL d   1      55.951   0.244  33.335  0.00  0.00     0.058 A 
ATOM     14  C   UNL d   1      55.140   0.239  33.150  0.00  0.00     0.005 A 
ATOM     15  C   UNL d   1      54.587   0.458  33.723  0.00  0.00     0.000 A 
ATOM     16  C   UNL d   1      54.844   0.681  34.482  0.00  0.00     0.000 A 
ATOM     17  C   UNL d   1      55.639   0.682  34.654  0.00  0.00     0.000 A 
ATOM     18  C   UNL d   1      56.193   0.464  34.081  0.00  0.00     0.005 A 
ENDBRANCH  11  13
ENDBRANCH   1  10
BRANCH   6  19
ATOM     19  C   UNL d   1      59.739   0.042  29.185  0.00  0.00     0.296 C 
ATOM     20  O   UNL d   1      59.690   0.570  28.564  0.00  0.00    -0.259 OA
BRANCH  19  21
ATOM     21  O   UNL d   1      60.458  -0.338  29.358  0.00  0.00    -0.296 OA
ATOM     22  C   UNL d   1      61.033  -0.397  28.777  0.00  0.00     0.185 C 
ENDBRANCH  19  21
ENDBRANCH   6  19
TORSDOF 4
ENDMDL
MODEL 4
REMARK VINA RESULT:      -3.8      1.090      1.439
REMARK  4 active torsions:
REMARK  status: ('A' for Active; 'I' for Inactive)
REMARK    1  A    between atoms: N_3  and  C_1 
REMARK       I    between atoms: C_5  and  N_3 
REMARK    2  A    between atoms: C_15  and  C_5 
REMARK    3  A    between atoms: C_8  and  C_9 
REMARK    4  A    between atoms: O_16  and  C_8 
ROOT
ATOM      1  C   UNL d   1      57.099  -0.371  31.715  0.00  0.00     0.197 A 
ATOM      2  N   UNL d   1      57.497   0.016  32.337  0.00  0.00    -0.221 NA
ATOM      3  S   UNL d   1      56.303  -0.422  31.918  0.00  0.00    -0.047 SA
ATOM      4  C   UNL d   1      56.195  -0.073  32.660  0.00  0.00     0.050 A 
ATOM      5  C   UNL d   1      56.940   0.200  32.921  0.00  0.00     0.090 A 
ATOM      6  C   UNL d   1      55.600   0.409  33.854  0.00  0.00     0.064 A 
ATOM      7  C   UNL d   1      55.527   0.034  33.131  0.00  0.00     0.013 A 
ATOM      8  C   UNL d   1      57.001   0.575  33.649  0.00  0.00     0.020 A 
ATOM      9  C   UNL d   1      56.344   0.682  34.115  0.00  0.00     0.007 A 
ENDROOT
BRANCH   1  10
ATOM     10  N   UNL d   1      57.447  -0.652  31.019  0.00  0.00    -0.183 NA
ATOM     11  C   UNL d   1      57.921  -0.154  30.564  0.00  0.00     0.281 C 
ATOM     12  O   UNL d   1      58.049   0.625  30.804  0.00  0.00    -0.265 OA
BRANCH  11  13
ATOM     13  C   UNL d   1      58.262  -0.430  29.880  0.00  0.00     0.058 A 
ATOM     14  C   UNL d   1      58.410   0.094  29.250  0.00  0.00     0.005 A 
ATOM     15  C   UNL d   1      58.757  -0.187  28.555  0.00  0.00     0.000 A 
ATOM     16  C   UNL d   1      58.956  -0.991  28.488  0.00  0.00     0.000 A 
ATOM     17  C   UNL d   1      58.808  -1.496  29.109  0.00  0.00     0.000 A 
ATOM     18  C   UNL d   1      58.461  -1.216  29.804  0.00  0.00     0.005 A 
ENDBRANCH  11  13
ENDBRANCH   1  10
BRANCH   6  19
ATOM     19  C   UNL d   1      54.940   0.523  34.336  0.00  0.00     0.296 C 
ATOM     20  O   UNL d   1      55.017   0.547  35.149  0.00  0.00    -0.259 OA
BRANCH  19  21
ATOM     21  O   UNL d   1      54.193   0.615  33.983  0.00  0.00    -0.296 OA
ATOM     22  C   UNL d   1      53.526   0.670  34.457  0.00  0.00     0.185 C 
ENDBRANCH  19  21
ENDBRANCH   6  19
TORSDOF 4
ENDMDL
