MODEL 1
REMARK VINA RESULT:     102.7      0.000      0.000
REMARK  5 active torsions:
REMARK  status: ('A' for Active; 'I' for Inactive)
REMARK    1  A    between atoms: O_5  and  C_1 
REMARK    2  A    between atoms: C_10  and  C_2 
REMARK    3  A    between atoms: C_3  and  O_5 
REMARK    4  A    between atoms: C_6  and  C_3 
REMARK    5  A    between atoms: N_11  and  C_10 
ROOT
ATOM      1  C   UNL d   1      59.345  49.362  51.344  0.00  0.00     0.122 A 
ATOM      2  C   UNL d   1      59.346  49.560  52.145  0.00  0.00     0.043 A 
ATOM      3  C   UNL d   1      60.059  49.264  50.944  0.00  0.00     0.105 A 
ATOM      4  C   UNL d   1      60.773  49.364  51.343  0.00  0.00     0.030 A 
ATOM      5  C   UNL d   1      60.766  49.562  52.138  0.00  0.00     0.059 A 
ATOM      6  C   UNL d   1      60.060  49.661  52.544  0.00  0.00     0.015 A 
ATOM      7  N   UNL d   1      60.054  49.067  50.150  0.00  0.00    -0.242 NA
ATOM      8 CL   UNL d   1      61.502  49.658  52.521  0.00  0.00    -0.082 Cl
ATOM      9  C   UNL d   1      61.475  49.266  50.944  0.00  0.00     0.004 A 
ATOM     10  C   UNL d   1      60.768  48.968  49.749  0.00  0.00     0.099 A 
ATOM     11  C   UNL d   1      61.482  49.069  50.148  0.00  0.00     0.021 A 
ENDROOT
BRANCH   1  12
ATOM     12  O   UNL d   1      58.703  49.268  50.974  0.00  0.00    -0.271 OA
BRANCH  12  13
ATOM     13  C   UNL d   1      58.155  48.575  50.589  0.00  0.00     0.301 C 
ATOM     14  O   UNL d   1      58.465  47.643  50.800  0.00  0.00    -0.259 OA
BRANCH  13  15
ATOM     15  C   UNL d   1      57.495  48.754  50.131  0.00  0.00     0.074 A 
ATOM     16  C   UNL d   1      56.747  48.818  50.489  0.00  0.00     0.063 A 
ATOM     17 CL   UNL d   1      56.600  48.706  51.344  0.00  0.00    -0.082 Cl
ATOM     18  C   UNL d   1      56.081  49.001  50.022  0.00  0.00     0.012 A 
ATOM     19  C   UNL d   1      56.160  49.119  49.198  0.00  0.00     0.001 A 
ATOM     20  C   UNL d   1      56.908  49.054  48.845  0.00  0.00     0.000 A 
ATOM     21  C   UNL d   1      57.574  48.872  49.313  0.00  0.00     0.006 A 
ENDBRANCH  13  15
ENDBRANCH  12  13
ENDBRANCH   1  12
BRANCH   2  22
ATOM     22  C   UNL d   1      58.676  49.708  52.742  0.00  0.00     0.082 C 
BRANCH  22  23
ATOM     23  N   UNL d   1      58.757  49.441  53.514  0.00  0.00    -0.299 N 
ATOM     24  C   UNL d   1      58.126  49.493  54.030  0.00  0.00     0.107 A 
ATOM     25  C   UNL d   1      58.193  49.228  54.810  0.00  0.00     0.142 A 
ATOM     26  O   UNL d   1      58.902  48.912  55.061  0.00  0.00    -0.300 OA
ATOM     27  C   UNL d   1      59.545  48.857  54.540  0.00  0.00     0.142 A 
ATOM     28  C   UNL d   1      59.461  49.124  53.770  0.00  0.00     0.107 A 
ENDBRANCH  22  23
ENDBRANCH   2  22
TORSDOF 5
ENDMDL
