MODEL 1
REMARK VINA RESULT:      18.7      0.000      0.000
REMARK  3 active torsions:
REMARK  status: ('A' for Active; 'I' for Inactive)
REMARK       I    between atoms: N_2  and  C_1 
REMARK    1  A    between atoms: C_8  and  C_1 
REMARK    2  A    between atoms: C_6  and  N_2 
REMARK    3  A    between atoms: N_4  and  C_8 
ROOT
ATOM      1  N   UNL d   1      12.780  14.609  -3.719  0.00  0.00    -0.191 NA
ATOM      2  C   UNL d   1      12.896  13.962  -4.169  0.00  0.00     0.102 C 
ATOM      3  C   UNL d   1      12.952  12.542  -4.293  0.00  0.00     0.094 A 
ATOM      4  C   UNL d   1      13.017  13.299  -4.634  0.00  0.00     0.086 A 
ATOM      5  C   UNL d   1      13.202  13.367  -5.441  0.00  0.00     0.012 A 
ATOM      6  C   UNL d   1      13.071  11.877  -4.753  0.00  0.00     0.020 A 
ATOM      7  C   UNL d   1      13.322  12.689  -5.902  0.00  0.00     0.001 A 
ATOM      8  C   UNL d   1      13.256  11.949  -5.558  0.00  0.00     0.002 A 
ENDROOT
BRANCH   3   9
ATOM      9  N   UNL d   1      12.769  12.470  -3.493  0.00  0.00    -0.206 NA
ATOM     10  C   UNL d   1      13.303  12.087  -3.014  0.00  0.00     0.297 C 
ATOM     11  O   UNL d   1      14.006  11.781  -3.329  0.00  0.00    -0.264 OA
BRANCH  10  12
ATOM     12  C   UNL d   1      13.162  11.989  -2.197  0.00  0.00     0.144 C 
BRANCH  12  13
ATOM     13  N   UNL d   1      13.766  11.982  -1.654  0.00  0.00    -0.299 N 
ATOM     14  C   UNL d   1      13.626  11.789  -0.877  0.00  0.00     0.080 A 
ATOM     15  C   UNL d   1      14.242  11.783  -0.330  0.00  0.00     0.019 A 
ATOM     16  C   UNL d   1      14.997  11.973  -0.571  0.00  0.00     0.003 A 
ATOM     17  C   UNL d   1      15.131  12.167  -1.353  0.00  0.00     0.019 A 
ATOM     18  C   UNL d   1      15.663  11.975  -0.017  0.00  0.00     0.000 C 
ATOM     19  C   UNL d   1      14.510  12.172  -1.900  0.00  0.00     0.080 A 
ENDBRANCH  12  13
ENDBRANCH  10  12
ENDBRANCH   3   9
TORSDOF 3
ENDMDL
MODEL 2
REMARK VINA RESULT:      21.0      1.186      4.008
REMARK  3 active torsions:
REMARK  status: ('A' for Active; 'I' for Inactive)
REMARK       I    between atoms: N_2  and  C_1 
REMARK    1  A    between atoms: C_8  and  C_1 
REMARK    2  A    between atoms: C_6  and  N_2 
REMARK    3  A    between atoms: N_4  and  C_8 
ROOT
ATOM      1  N   UNL d   1      14.628  14.990  -0.883  0.00  0.00    -0.191 NA
ATOM      2  C   UNL d   1      14.745  14.208  -0.785  0.00  0.00     0.102 C 
ATOM      3  C   UNL d   1      14.451  12.863  -1.158  0.00  0.00     0.094 A 
ATOM      4  C   UNL d   1      14.868  13.406  -0.682  0.00  0.00     0.086 A 
ATOM      5  C   UNL d   1      15.400  13.122  -0.111  0.00  0.00     0.012 A 
ATOM      6  C   UNL d   1      14.571  12.061  -1.059  0.00  0.00     0.020 A 
ATOM      7  C   UNL d   1      15.516  12.306  -0.016  0.00  0.00     0.001 A 
ATOM      8  C   UNL d   1      15.103  11.781  -0.488  0.00  0.00     0.002 A 
ENDROOT
BRANCH   3   9
ATOM      9  N   UNL d   1      13.923  13.141  -1.725  0.00  0.00    -0.206 NA
ATOM     10  C   UNL d   1      13.560  12.595  -2.206  0.00  0.00     0.297 C 
ATOM     11  O   UNL d   1      13.723  11.786  -2.121  0.00  0.00    -0.264 OA
BRANCH  10  12
ATOM     12  C   UNL d   1      13.017  12.827  -2.795  0.00  0.00     0.144 C 
BRANCH  12  13
ATOM     13  N   UNL d   1      13.132  12.653  -3.580  0.00  0.00    -0.299 N 
ATOM     14  C   UNL d   1      12.826  11.974  -3.906  0.00  0.00     0.080 A 
ATOM     15  C   UNL d   1      12.946  11.802  -4.703  0.00  0.00     0.019 A 
ATOM     16  C   UNL d   1      13.375  12.316  -5.167  0.00  0.00     0.003 A 
ATOM     17  C   UNL d   1      13.680  12.997  -4.833  0.00  0.00     0.019 A 
ATOM     18  C   UNL d   1      13.517  12.160  -6.007  0.00  0.00     0.000 C 
ATOM     19  C   UNL d   1      13.558  13.167  -4.033  0.00  0.00     0.080 A 
ENDBRANCH  12  13
ENDBRANCH  10  12
ENDBRANCH   3   9
TORSDOF 3
ENDMDL
