MODEL 1
REMARK VINA RESULT:      -7.2      0.000      0.000
REMARK  8 active torsions:
REMARK  status: ('A' for Active; 'I' for Inactive)
REMARK    1  A    between atoms: C_8  and  N_1 
REMARK    2  A    between atoms: C_6  and  C_2 
REMARK    3  A    between atoms: S_7  and  C_4 
REMARK    4  A    between atoms: C_12  and  S_7 
REMARK    5  A    between atoms: C_9  and  C_12 
REMARK    6  A    between atoms: O_14  and  C_9 
REMARK    7  A    between atoms: O_16  and  C_13 
REMARK    8  A    between atoms: C_21  and  O_14 
ROOT
ATOM      1  N   UNL d   1     -47.559  13.609  22.730  0.00  0.00    -0.269 N 
ATOM      2  C   UNL d   1     -47.979  14.312  22.786  0.00  0.00     0.171 A 
ATOM      3  N   UNL d   1     -47.416  14.926  22.754  0.00  0.00    -0.128 NA
ATOM      4  C   UNL d   1     -46.755  13.789  22.665  0.00  0.00     0.201 A 
ATOM      5  N   UNL d   1     -46.678  14.625  22.682  0.00  0.00    -0.121 NA
ENDROOT
BRANCH   2   6
ATOM      6  C   UNL d   1     -48.778  14.326  22.856  0.00  0.00     0.038 A 
ATOM      7  C   UNL d   1     -49.251  14.481  22.198  0.00  0.00     0.027 A 
ATOM      8  C   UNL d   1     -50.049  14.501  22.239  0.00  0.00     0.094 A 
ATOM      9  C   UNL d   1     -50.429  14.359  22.980  0.00  0.00     0.024 A 
ATOM     10  C   UNL d   1     -49.956  14.204  23.638  0.00  0.00     0.002 A 
ATOM     11  C   UNL d   1     -49.135  14.190  23.566  0.00  0.00     0.003 A 
BRANCH   8  12
ATOM     12  O   UNL d   1     -50.506  14.663  21.546  0.00  0.00    -0.328 OA
ATOM     13  C   UNL d   1     -51.062  14.107  21.291  0.00  0.00     0.181 C 
ENDBRANCH   8  12
ENDBRANCH   2   6
BRANCH   1  14
ATOM     14  C   UNL d   1     -48.004  12.909  22.749  0.00  0.00     0.067 A 
ATOM     15  C   UNL d   1     -48.233  12.567  22.038  0.00  0.00     0.018 A 
ATOM     16  C   UNL d   1     -48.678  11.866  22.063  0.00  0.00     0.002 A 
ATOM     17  C   UNL d   1     -48.892  11.511  22.776  0.00  0.00     0.000 A 
ATOM     18  C   UNL d   1     -48.658  11.862  23.490  0.00  0.00     0.002 A 
ATOM     19  C   UNL d   1     -48.212  12.563  23.466  0.00  0.00     0.018 A 
ENDBRANCH   1  14
BRANCH   4  20
ATOM     20  S   UNL d   1     -46.124  13.219  22.594  0.00  0.00    -0.042 SA
BRANCH  20  21
ATOM     21  C   UNL d   1     -45.364  13.424  22.334  0.00  0.00     0.107 C 
BRANCH  21  22
ATOM     22  C   UNL d   1     -44.780  12.856  22.240  0.00  0.00     0.307 C 
ATOM     23  O   UNL d   1     -44.735  12.181  22.732  0.00  0.00    -0.258 OA
BRANCH  22  24
ATOM     24  O   UNL d   1     -44.219  12.957  21.638  0.00  0.00    -0.271 OA
BRANCH  24  25
ATOM     25  C   UNL d   1     -43.456  12.629  21.698  0.00  0.00     0.126 C 
ATOM     26  C   UNL d   1     -42.841  12.874  21.198  0.00  0.00     0.029 C 
ENDBRANCH  24  25
ENDBRANCH  22  24
ENDBRANCH  21  22
ENDBRANCH  20  21
ENDBRANCH   4  20
TORSDOF 8
ENDMDL
MODEL 2
REMARK VINA RESULT:      -7.2      1.766      2.458
REMARK  8 active torsions:
REMARK  status: ('A' for Active; 'I' for Inactive)
REMARK    1  A    between atoms: C_8  and  N_1 
REMARK    2  A    between atoms: C_6  and  C_2 
REMARK    3  A    between atoms: S_7  and  C_4 
REMARK    4  A    between atoms: C_12  and  S_7 
REMARK    5  A    between atoms: C_9  and  C_12 
REMARK    6  A    between atoms: O_14  and  C_9 
REMARK    7  A    between atoms: O_16  and  C_13 
REMARK    8  A    between atoms: C_21  and  O_14 
ROOT
ATOM      1  N   UNL d   1     -48.010  12.195  23.155  0.00  0.00    -0.269 N 
ATOM      2  C   UNL d   1     -48.784  11.944  23.269  0.00  0.00     0.171 A 
ATOM      3  N   UNL d   1     -48.738  11.156  23.539  0.00  0.00    -0.128 NA
ATOM      4  C   UNL d   1     -47.502  11.574  23.351  0.00  0.00     0.201 A 
ATOM      5  N   UNL d   1     -47.974  10.923  23.592  0.00  0.00    -0.121 NA
ENDROOT
BRANCH   2   6
ATOM      6  C   UNL d   1     -49.412  12.421  23.126  0.00  0.00     0.038 A 
ATOM      7  C   UNL d   1     -49.817  12.375  22.409  0.00  0.00     0.027 A 
ATOM      8  C   UNL d   1     -50.446  12.838  22.240  0.00  0.00     0.094 A 
ATOM      9  C   UNL d   1     -50.711  13.400  22.813  0.00  0.00     0.024 A 
ATOM     10  C   UNL d   1     -50.306  13.446  23.530  0.00  0.00     0.002 A 
ATOM     11  C   UNL d   1     -49.660  12.955  23.677  0.00  0.00     0.003 A 
BRANCH   8  12
ATOM     12  O   UNL d   1     -50.839  12.765  21.495  0.00  0.00    -0.328 OA
ATOM     13  C   UNL d   1     -51.062  13.450  21.089  0.00  0.00     0.181 C 
ENDBRANCH   8  12
ENDBRANCH   2   6
BRANCH   1  14
ATOM     14  C   UNL d   1     -47.909  12.972  22.884  0.00  0.00     0.067 A 
ATOM     15  C   UNL d   1     -47.939  13.588  23.426  0.00  0.00     0.018 A 
ATOM     16  C   UNL d   1     -47.837  14.364  23.149  0.00  0.00     0.002 A 
ATOM     17  C   UNL d   1     -47.709  14.528  22.351  0.00  0.00     0.000 A 
ATOM     18  C   UNL d   1     -47.681  13.902  21.808  0.00  0.00     0.002 A 
ATOM     19  C   UNL d   1     -47.783  13.125  22.085  0.00  0.00     0.018 A 
ENDBRANCH   1  14
BRANCH   4  20
ATOM     20  S   UNL d   1     -46.650  11.601  23.313  0.00  0.00    -0.042 SA
BRANCH  20  21
ATOM     21  C   UNL d   1     -46.167  11.045  23.695  0.00  0.00     0.107 C 
BRANCH  21  22
ATOM     22  C   UNL d   1     -45.363  11.004  23.542  0.00  0.00     0.307 C 
ATOM     23  O   UNL d   1     -44.910  11.686  23.370  0.00  0.00    -0.258 OA
BRANCH  22  24
ATOM     24  O   UNL d   1     -44.991  10.263  23.559  0.00  0.00    -0.271 OA
BRANCH  24  25
ATOM     25  C   UNL d   1     -44.161  10.197  23.595  0.00  0.00     0.126 C 
ATOM     26  C   UNL d   1     -43.790   9.456  23.618  0.00  0.00     0.029 C 
ENDBRANCH  24  25
ENDBRANCH  22  24
ENDBRANCH  21  22
ENDBRANCH  20  21
ENDBRANCH   4  20
TORSDOF 8
ENDMDL
MODEL 3
REMARK VINA RESULT:      -5.6      1.174      1.995
REMARK  8 active torsions:
REMARK  status: ('A' for Active; 'I' for Inactive)
REMARK    1  A    between atoms: C_8  and  N_1 
REMARK    2  A    between atoms: C_6  and  C_2 
REMARK    3  A    between atoms: S_7  and  C_4 
REMARK    4  A    between atoms: C_12  and  S_7 
REMARK    5  A    between atoms: C_9  and  C_12 
REMARK    6  A    between atoms: O_14  and  C_9 
REMARK    7  A    between atoms: O_16  and  C_13 
REMARK    8  A    between atoms: C_21  and  O_14 
ROOT
ATOM      1  N   UNL d   1     -47.625  12.839  22.819  0.00  0.00    -0.269 N 
ATOM      2  C   UNL d   1     -48.143  12.221  22.975  0.00  0.00     0.171 A 
ATOM      3  N   UNL d   1     -47.672  11.543  23.094  0.00  0.00    -0.128 NA
ATOM      4  C   UNL d   1     -46.854  12.545  22.841  0.00  0.00     0.201 A 
ATOM      5  N   UNL d   1     -46.896  11.725  23.016  0.00  0.00    -0.121 NA
ENDROOT
BRANCH   2   6
ATOM      6  C   UNL d   1     -48.938  12.326  22.993  0.00  0.00     0.038 A 
ATOM      7  C   UNL d   1     -49.391  12.198  22.316  0.00  0.00     0.027 A 
ATOM      8  C   UNL d   1     -50.185  12.295  22.306  0.00  0.00     0.094 A 
ATOM      9  C   UNL d   1     -50.581  12.538  23.012  0.00  0.00     0.024 A 
ATOM     10  C   UNL d   1     -50.127  12.666  23.689  0.00  0.00     0.002 A 
ATOM     11  C   UNL d   1     -49.310  12.558  23.670  0.00  0.00     0.003 A 
BRANCH   8  12
ATOM     12  O   UNL d   1     -50.620  12.155  21.595  0.00  0.00    -0.328 OA
ATOM     13  C   UNL d   1     -51.059  12.772  21.264  0.00  0.00     0.181 C 
ENDBRANCH   8  12
ENDBRANCH   2   6
BRANCH   1  14
ATOM     14  C   UNL d   1     -47.967  13.582  22.679  0.00  0.00     0.067 A 
ATOM     15  C   UNL d   1     -48.146  14.061  23.321  0.00  0.00     0.018 A 
ATOM     16  C   UNL d   1     -48.488  14.804  23.176  0.00  0.00     0.002 A 
ATOM     17  C   UNL d   1     -48.648  15.067  22.411  0.00  0.00     0.000 A 
ATOM     18  C   UNL d   1     -48.464  14.578  21.767  0.00  0.00     0.002 A 
ATOM     19  C   UNL d   1     -48.123  13.835  21.912  0.00  0.00     0.018 A 
ENDBRANCH   1  14
BRANCH   4  20
ATOM     20  S   UNL d   1     -46.145  13.003  22.709  0.00  0.00    -0.042 SA
BRANCH  20  21
ATOM     21  C   UNL d   1     -45.407  12.653  22.567  0.00  0.00     0.107 C 
BRANCH  21  22
ATOM     22  C   UNL d   1     -44.802  13.071  22.205  0.00  0.00     0.307 C 
ATOM     23  O   UNL d   1     -44.779  13.907  22.207  0.00  0.00    -0.258 OA
BRANCH  22  24
ATOM     24  O   UNL d   1     -44.197  12.649  21.826  0.00  0.00    -0.271 OA
BRANCH  24  25
ATOM     25  C   UNL d   1     -43.500  13.027  21.571  0.00  0.00     0.126 C 
ATOM     26  C   UNL d   1     -42.911  12.612  21.160  0.00  0.00     0.029 C 
ENDBRANCH  24  25
ENDBRANCH  22  24
ENDBRANCH  21  22
ENDBRANCH  20  21
ENDBRANCH   4  20
TORSDOF 8
ENDMDL
MODEL 4
REMARK VINA RESULT:      -4.8      7.513      9.367
REMARK  8 active torsions:
REMARK  status: ('A' for Active; 'I' for Inactive)
REMARK    1  A    between atoms: C_8  and  N_1 
REMARK    2  A    between atoms: C_6  and  C_2 
REMARK    3  A    between atoms: S_7  and  C_4 
REMARK    4  A    between atoms: C_12  and  S_7 
REMARK    5  A    between atoms: C_9  and  C_12 
REMARK    6  A    between atoms: O_14  and  C_9 
REMARK    7  A    between atoms: O_16  and  C_13 
REMARK    8  A    between atoms: C_21  and  O_14 
ROOT
ATOM      1  N   UNL d   1     -39.232  15.327  20.227  0.00  0.00    -0.269 N 
ATOM      2  C   UNL d   1     -38.663  15.385  20.817  0.00  0.00     0.171 A 
ATOM      3  N   UNL d   1     -37.940  15.540  20.431  0.00  0.00    -0.128 NA
ATOM      4  C   UNL d   1     -38.864  15.443  19.496  0.00  0.00     0.201 A 
ATOM      5  N   UNL d   1     -38.047  15.577  19.639  0.00  0.00    -0.121 NA
ENDROOT
BRANCH   2   6
ATOM      6  C   UNL d   1     -38.845  15.298  21.593  0.00  0.00     0.038 A 
ATOM      7  C   UNL d   1     -38.750  14.568  21.964  0.00  0.00     0.027 A 
ATOM      8  C   UNL d   1     -38.923  14.453  22.736  0.00  0.00     0.094 A 
ATOM      9  C   UNL d   1     -39.214  15.100  23.195  0.00  0.00     0.024 A 
ATOM     10  C   UNL d   1     -39.309  15.830  22.824  0.00  0.00     0.002 A 
ATOM     11  C   UNL d   1     -39.122  15.920  22.026  0.00  0.00     0.003 A 
BRANCH   8  12
ATOM     12  O   UNL d   1     -38.815  13.691  23.086  0.00  0.00    -0.328 OA
ATOM     13  C   UNL d   1     -38.050  13.435  23.263  0.00  0.00     0.181 C 
ENDBRANCH   8  12
ENDBRANCH   2   6
BRANCH   1  14
ATOM     14  C   UNL d   1     -40.008  15.173  20.475  0.00  0.00     0.067 A 
ATOM     15  C   UNL d   1     -40.262  14.393  20.519  0.00  0.00     0.018 A 
ATOM     16  C   UNL d   1     -41.040  14.245  20.768  0.00  0.00     0.002 A 
ATOM     17  C   UNL d   1     -41.557  14.856  20.969  0.00  0.00     0.000 A 
ATOM     18  C   UNL d   1     -41.294  15.641  20.922  0.00  0.00     0.002 A 
ATOM     19  C   UNL d   1     -40.516  15.790  20.673  0.00  0.00     0.018 A 
ENDBRANCH   1  14
BRANCH   4  20
ATOM     20  S   UNL d   1     -39.254  15.429  18.737  0.00  0.00    -0.042 SA
BRANCH  20  21
ATOM     21  C   UNL d   1     -38.840  15.482  18.021  0.00  0.00     0.107 C 
BRANCH  21  22
ATOM     22  C   UNL d   1     -39.204  15.311  17.306  0.00  0.00     0.307 C 
ATOM     23  O   UNL d   1     -39.854  15.755  17.024  0.00  0.00    -0.258 OA
BRANCH  22  24
ATOM     24  O   UNL d   1     -38.915  14.680  16.853  0.00  0.00    -0.271 OA
BRANCH  24  25
ATOM     25  C   UNL d   1     -38.827  14.745  16.028  0.00  0.00     0.126 C 
ATOM     26  C   UNL d   1     -38.421  14.168  15.592  0.00  0.00     0.029 C 
ENDBRANCH  24  25
ENDBRANCH  22  24
ENDBRANCH  21  22
ENDBRANCH  20  21
ENDBRANCH   4  20
TORSDOF 8
ENDMDL
MODEL 5
REMARK VINA RESULT:      -4.6      0.973      4.381
REMARK  8 active torsions:
REMARK  status: ('A' for Active; 'I' for Inactive)
REMARK    1  A    between atoms: C_8  and  N_1 
REMARK    2  A    between atoms: C_6  and  C_2 
REMARK    3  A    between atoms: S_7  and  C_4 
REMARK    4  A    between atoms: C_12  and  S_7 
REMARK    5  A    between atoms: C_9  and  C_12 
REMARK    6  A    between atoms: O_14  and  C_9 
REMARK    7  A    between atoms: O_16  and  C_13 
REMARK    8  A    between atoms: C_21  and  O_14 
ROOT
ATOM      1  N   UNL d   1     -47.613  13.707  22.885  0.00  0.00    -0.269 N 
ATOM      2  C   UNL d   1     -46.806  13.861  22.885  0.00  0.00     0.171 A 
ATOM      3  N   UNL d   1     -46.725  14.690  22.930  0.00  0.00    -0.128 NA
ATOM      4  C   UNL d   1     -48.017  14.427  22.929  0.00  0.00     0.201 A 
ATOM      5  N   UNL d   1     -47.445  15.040  22.956  0.00  0.00    -0.121 NA
ENDROOT
BRANCH   2   6
ATOM      6  C   UNL d   1     -46.261  13.274  22.847  0.00  0.00     0.038 A 
ATOM      7  C   UNL d   1     -45.785  13.190  22.179  0.00  0.00     0.027 A 
ATOM      8  C   UNL d   1     -45.234  12.615  22.115  0.00  0.00     0.094 A 
ATOM      9  C   UNL d   1     -45.130  12.068  22.751  0.00  0.00     0.024 A 
ATOM     10  C   UNL d   1     -45.606  12.153  23.419  0.00  0.00     0.002 A 
ATOM     11  C   UNL d   1     -46.167  12.756  23.458  0.00  0.00     0.003 A 
BRANCH   8  12
ATOM     12  O   UNL d   1     -44.762  12.556  21.416  0.00  0.00    -0.328 OA
ATOM     13  C   UNL d   1     -44.000  12.876  21.417  0.00  0.00     0.181 C 
ENDBRANCH   8  12
ENDBRANCH   2   6
BRANCH   1  14
ATOM     14  C   UNL d   1     -47.838  12.910  22.844  0.00  0.00     0.067 A 
ATOM     15  C   UNL d   1     -47.947  12.493  23.543  0.00  0.00     0.018 A 
ATOM     16  C   UNL d   1     -48.172  11.695  23.496  0.00  0.00     0.002 A 
ATOM     17  C   UNL d   1     -48.288  11.317  22.772  0.00  0.00     0.000 A 
ATOM     18  C   UNL d   1     -48.177  11.744  22.069  0.00  0.00     0.002 A 
ATOM     19  C   UNL d   1     -47.951  12.543  22.116  0.00  0.00     0.018 A 
ENDBRANCH   1  14
BRANCH   4  20
ATOM     20  S   UNL d   1     -48.865  14.519  22.943  0.00  0.00    -0.042 SA
BRANCH  20  21
ATOM     21  C   UNL d   1     -49.247  15.191  22.642  0.00  0.00     0.107 C 
BRANCH  21  22
ATOM     22  C   UNL d   1     -50.064  15.257  22.656  0.00  0.00     0.307 C 
ATOM     23  O   UNL d   1     -50.486  15.381  23.367  0.00  0.00    -0.258 OA
BRANCH  22  24
ATOM     24  O   UNL d   1     -50.481  15.198  21.942  0.00  0.00    -0.271 OA
BRANCH  24  25
ATOM     25  C   UNL d   1     -51.064  14.614  21.828  0.00  0.00     0.126 C 
ATOM     26  C   UNL d   1     -51.055  14.122  21.161  0.00  0.00     0.029 C 
ENDBRANCH  24  25
ENDBRANCH  22  24
ENDBRANCH  21  22
ENDBRANCH  20  21
ENDBRANCH   4  20
TORSDOF 8
ENDMDL
MODEL 6
REMARK VINA RESULT:      -4.3      8.824      9.536
REMARK  8 active torsions:
REMARK  status: ('A' for Active; 'I' for Inactive)
REMARK    1  A    between atoms: C_8  and  N_1 
REMARK    2  A    between atoms: C_6  and  C_2 
REMARK    3  A    between atoms: S_7  and  C_4 
REMARK    4  A    between atoms: C_12  and  S_7 
REMARK    5  A    between atoms: C_9  and  C_12 
REMARK    6  A    between atoms: O_14  and  C_9 
REMARK    7  A    between atoms: O_16  and  C_13 
REMARK    8  A    between atoms: C_21  and  O_14 
ROOT
ATOM      1  N   UNL d   1     -39.106  14.705  19.195  0.00  0.00    -0.269 N 
ATOM      2  C   UNL d   1     -39.414  15.398  18.880  0.00  0.00     0.171 A 
ATOM      3  N   UNL d   1     -39.524  15.920  19.521  0.00  0.00    -0.128 NA
ATOM      4  C   UNL d   1     -39.029  14.802  20.012  0.00  0.00     0.201 A 
ATOM      5  N   UNL d   1     -39.297  15.573  20.206  0.00  0.00    -0.121 NA
ENDROOT
BRANCH   2   6
ATOM      6  C   UNL d   1     -39.555  15.483  18.095  0.00  0.00     0.038 A 
ATOM      7  C   UNL d   1     -40.292  15.288  17.780  0.00  0.00     0.027 A 
ATOM      8  C   UNL d   1     -40.460  15.361  17.002  0.00  0.00     0.094 A 
ATOM      9  C   UNL d   1     -39.865  15.650  16.477  0.00  0.00     0.024 A 
ATOM     10  C   UNL d   1     -39.128  15.845  16.791  0.00  0.00     0.002 A 
ATOM     11  C   UNL d   1     -38.983  15.758  17.598  0.00  0.00     0.003 A 
BRANCH   8  12
ATOM     12  O   UNL d   1     -41.226  15.153  16.712  0.00  0.00    -0.328 OA
ATOM     13  C   UNL d   1     -41.674  15.722  16.314  0.00  0.00     0.181 C 
ENDBRANCH   8  12
ENDBRANCH   2   6
BRANCH   1  14
ATOM     14  C   UNL d   1     -38.946  14.093  18.659  0.00  0.00     0.067 A 
ATOM     15  C   UNL d   1     -38.210  14.067  18.296  0.00  0.00     0.018 A 
ATOM     16  C   UNL d   1     -38.056  13.452  17.760  0.00  0.00     0.002 A 
ATOM     17  C   UNL d   1     -38.618  12.874  17.587  0.00  0.00     0.000 A 
ATOM     18  C   UNL d   1     -39.360  12.906  17.957  0.00  0.00     0.002 A 
ATOM     19  C   UNL d   1     -39.515  13.522  18.493  0.00  0.00     0.018 A 
ENDBRANCH   1  14
BRANCH   4  20
ATOM     20  S   UNL d   1     -38.730  14.214  20.554  0.00  0.00    -0.042 SA
BRANCH  20  21
ATOM     21  C   UNL d   1     -38.686  14.342  21.372  0.00  0.00     0.107 C 
BRANCH  21  22
ATOM     22  C   UNL d   1     -38.898  13.756  21.905  0.00  0.00     0.307 C 
ATOM     23  O   UNL d   1     -39.689  13.496  21.986  0.00  0.00    -0.258 OA
BRANCH  22  24
ATOM     24  O   UNL d   1     -38.308  13.413  22.376  0.00  0.00    -0.271 OA
BRANCH  24  25
ATOM     25  C   UNL d   1     -38.388  13.367  23.204  0.00  0.00     0.126 C 
ATOM     26  C   UNL d   1     -37.948  12.822  23.649  0.00  0.00     0.029 C 
ENDBRANCH  24  25
ENDBRANCH  22  24
ENDBRANCH  21  22
ENDBRANCH  20  21
ENDBRANCH   4  20
TORSDOF 8
ENDMDL
