MODEL 1
REMARK VINA RESULT:      -1.5      0.000      0.000
REMARK  5 active torsions:
REMARK  status: ('A' for Active; 'I' for Inactive)
REMARK    1  A    between atoms: C_2  and  C_1 
REMARK    2  A    between atoms: C_5  and  C_2 
REMARK    3  A    between atoms: C_9  and  C_5 
REMARK    4  A    between atoms: O_18  and  C_12 
REMARK    5  A    between atoms: O_19  and  C_14 
ROOT
ATOM      1  C   UNL d   1      32.754  17.605 -23.693  0.00  0.00     0.141 C 
ATOM      2  C   UNL d   1      32.994  17.070 -23.108  0.00  0.00     0.107 C 
ATOM      3  N   UNL d   1      33.241  16.530 -22.508  0.00  0.00    -0.191 NA
ENDROOT
BRANCH   1   4
ATOM      4  C   UNL d   1      32.867  18.406 -23.589  0.00  0.00     0.161 A 
ATOM      5  N   UNL d   1      32.933  18.789 -22.841  0.00  0.00    -0.287 N 
ATOM      6  C   UNL d   1      33.043  19.605 -22.990  0.00  0.00     0.083 A 
ATOM      7  C   UNL d   1      32.896  18.423 -22.110  0.00  0.00     0.101 C 
ATOM      8  C   UNL d   1      33.142  20.252 -22.506  0.00  0.00     0.019 A 
ATOM      9  C   UNL d   1      33.043  19.712 -23.820  0.00  0.00     0.099 A 
ATOM     10  C   UNL d   1      33.240  21.005 -22.809  0.00  0.00     0.002 A 
ATOM     11  C   UNL d   1      33.240  21.113 -23.639  0.00  0.00     0.002 A 
ATOM     12  C   UNL d   1      33.142  20.465 -24.145  0.00  0.00     0.021 A 
ATOM     13  N   UNL d   1      32.933  18.961 -24.169  0.00  0.00    -0.226 NA
ENDBRANCH   1   4
BRANCH   1  14
ATOM     14  C   UNL d   1      32.400  17.318 -24.380  0.00  0.00     0.208 C 
ATOM     15  O   UNL d   1      32.826  17.333 -25.083  0.00  0.00    -0.286 OA
BRANCH  14  16
ATOM     16  C   UNL d   1      31.635  17.023 -24.362  0.00  0.00     0.042 A 
ATOM     17  C   UNL d   1      31.020  17.430 -24.724  0.00  0.00     0.029 A 
ATOM     18  C   UNL d   1      30.260  17.137 -24.706  0.00  0.00     0.116 A 
ATOM     19  C   UNL d   1      30.094  16.427 -24.326  0.00  0.00     0.116 A 
ATOM     20  C   UNL d   1      30.710  16.017 -23.962  0.00  0.00     0.026 A 
ATOM     21  C   UNL d   1      31.470  16.310 -23.980  0.00  0.00     0.005 A 
BRANCH  18  22
ATOM     22  O   UNL d   1      29.667  17.560 -25.073  0.00  0.00    -0.326 OA
ATOM     23  C   UNL d   1      29.624  18.394 -25.000  0.00  0.00     0.181 C 
ENDBRANCH  18  22
BRANCH  19  24
ATOM     24  O   UNL d   1      29.337  16.135 -24.308  0.00  0.00    -0.326 OA
ATOM     25  C   UNL d   1      29.154  15.475 -23.834  0.00  0.00     0.181 C 
ENDBRANCH  19  24
ENDBRANCH  14  16
ENDBRANCH   1  14
TORSDOF 5
ENDMDL
MODEL 2
REMARK VINA RESULT:       0.4      1.408      2.539
REMARK  5 active torsions:
REMARK  status: ('A' for Active; 'I' for Inactive)
REMARK    1  A    between atoms: C_2  and  C_1 
REMARK    2  A    between atoms: C_5  and  C_2 
REMARK    3  A    between atoms: C_9  and  C_5 
REMARK    4  A    between atoms: O_18  and  C_12 
REMARK    5  A    between atoms: O_19  and  C_14 
ROOT
ATOM      1  C   UNL d   1      33.019  19.553 -23.191  0.00  0.00     0.141 C 
ATOM      2  C   UNL d   1      33.129  19.730 -23.992  0.00  0.00     0.107 C 
ATOM      3  N   UNL d   1      33.241  19.919 -24.807  0.00  0.00    -0.191 NA
ENDROOT
BRANCH   1   4
ATOM      4  C   UNL d   1      32.939  20.152 -22.643  0.00  0.00     0.161 A 
ATOM      5  N   UNL d   1      32.872  20.971 -22.834  0.00  0.00    -0.287 N 
ATOM      6  C   UNL d   1      32.800  21.387 -22.111  0.00  0.00     0.083 A 
ATOM      7  C   UNL d   1      32.878  21.290 -23.587  0.00  0.00     0.101 C 
ATOM      8  C   UNL d   1      32.719  22.176 -21.928  0.00  0.00     0.019 A 
ATOM      9  C   UNL d   1      32.823  20.825 -21.492  0.00  0.00     0.099 A 
ATOM     10  C   UNL d   1      32.659  22.435 -21.155  0.00  0.00     0.002 A 
ATOM     11  C   UNL d   1      32.682  21.873 -20.535  0.00  0.00     0.002 A 
ATOM     12  C   UNL d   1      32.765  21.066 -20.705  0.00  0.00     0.021 A 
ATOM     13  N   UNL d   1      32.909  20.071 -21.843  0.00  0.00    -0.226 NA
ENDBRANCH   1   4
BRANCH   1  14
ATOM     14  C   UNL d   1      32.993  18.763 -22.953  0.00  0.00     0.208 C 
ATOM     15  O   UNL d   1      33.241  18.568 -22.195  0.00  0.00    -0.286 OA
BRANCH  14  16
ATOM     16  C   UNL d   1      32.723  18.184 -23.466  0.00  0.00     0.042 A 
ATOM     17  C   UNL d   1      31.934  17.953 -23.460  0.00  0.00     0.029 A 
ATOM     18  C   UNL d   1      31.665  17.377 -23.970  0.00  0.00     0.116 A 
ATOM     19  C   UNL d   1      32.178  17.015 -24.501  0.00  0.00     0.116 A 
ATOM     20  C   UNL d   1      32.970  17.246 -24.509  0.00  0.00     0.026 A 
ATOM     21  C   UNL d   1      33.239  17.822 -23.999  0.00  0.00     0.005 A 
BRANCH  18  22
ATOM     22  O   UNL d   1      30.878  17.165 -23.944  0.00  0.00    -0.326 OA
ATOM     23  C   UNL d   1      30.274  17.735 -24.062  0.00  0.00     0.181 C 
ENDBRANCH  18  22
BRANCH  19  24
ATOM     24  O   UNL d   1      31.911  16.442 -25.009  0.00  0.00    -0.326 OA
ATOM     25  C   UNL d   1      32.334  15.730 -25.097  0.00  0.00     0.181 C 
ENDBRANCH  19  24
ENDBRANCH  14  16
ENDBRANCH   1  14
TORSDOF 5
ENDMDL
