MODEL 1
REMARK VINA RESULT:      57.9      0.000      0.000
REMARK  8 active torsions:
REMARK  status: ('A' for Active; 'I' for Inactive)
REMARK    1  A    between atoms: C_4  and  C_1 
REMARK    2  A    between atoms: N_6  and  C_3 
REMARK    3  A    between atoms: O_18  and  C_4 
REMARK       I    between atoms: C_7  and  N_6 
REMARK    4  A    between atoms: C_16  and  C_7 
REMARK    5  A    between atoms: C_10  and  C_8 
REMARK    6  A    between atoms: C_9  and  S_11 
REMARK    7  A    between atoms: S_11  and  C_16 
REMARK    8  A    between atoms: C_24  and  O_18 
ROOT
ATOM      1  N   UNL d   1     -48.810  29.037  34.670  0.00  0.00    -0.207 NA
ATOM      2  C   UNL d   1     -49.021  28.272  34.443  0.00  0.00     0.286 C 
ATOM      3  O   UNL d   1     -48.772  27.627  34.893  0.00  0.00    -0.265 OA
ENDROOT
BRANCH   2   4
ATOM      4  C   UNL d   1     -49.479  28.153  33.771  0.00  0.00     0.099 C 
BRANCH   4   5
ATOM      5  S   UNL d   1     -49.360  27.481  33.314  0.00  0.00    -0.061 SA
BRANCH   5   6
ATOM      6  C   UNL d   1     -49.917  26.873  33.314  0.00  0.00     0.133 A 
ATOM      7  N   UNL d   1     -50.719  27.040  33.323  0.00  0.00    -0.141 NA
ATOM      8  N   UNL d   1     -51.275  26.432  33.324  0.00  0.00    -0.148 NA
ATOM      9  C   UNL d   1     -51.026  25.641  33.316  0.00  0.00     0.104 A 
ATOM     10  C   UNL d   1     -50.217  25.468  33.307  0.00  0.00     0.023 A 
ATOM     11  C   UNL d   1     -49.665  26.078  33.306  0.00  0.00     0.029 A 
BRANCH   9  12
ATOM     12  C   UNL d   1     -51.583  25.032  33.316  0.00  0.00     0.039 A 
ATOM     13  C   UNL d   1     -51.333  24.257  33.310  0.00  0.00     0.101 A 
ATOM     14  N   UNL d   1     -51.881  23.650  33.310  0.00  0.00    -0.242 NA
ATOM     15  C   UNL d   1     -52.695  23.828  33.318  0.00  0.00     0.099 A 
ATOM     16  C   UNL d   1     -52.941  24.608  33.324  0.00  0.00     0.021 A 
ATOM     17  C   UNL d   1     -52.391  25.224  33.324  0.00  0.00     0.005 A 
ENDBRANCH   9  12
ENDBRANCH   5   6
ENDBRANCH   4   5
ENDBRANCH   2   4
BRANCH   1  18
ATOM     18  C   UNL d   1     -48.355  29.155  35.340  0.00  0.00     0.090 A 
ATOM     19  C   UNL d   1     -47.833  29.793  35.378  0.00  0.00     0.081 A 
ATOM     20  C   UNL d   1     -47.375  29.912  36.050  0.00  0.00     0.007 A 
ATOM     21  C   UNL d   1     -47.436  29.397  36.687  0.00  0.00     0.000 A 
ATOM     22  C   UNL d   1     -47.961  28.749  36.659  0.00  0.00     0.002 A 
ATOM     23  C   UNL d   1     -48.417  28.637  35.979  0.00  0.00     0.019 A 
BRANCH  19  24
ATOM     24  C   UNL d   1     -47.777  30.303  34.739  0.00  0.00     0.302 C 
ATOM     25  O   UNL d   1     -47.230  30.155  34.145  0.00  0.00    -0.259 OA
BRANCH  24  26
ATOM     26  O   UNL d   1     -48.266  30.962  34.689  0.00  0.00    -0.271 OA
BRANCH  26  27
ATOM     27  C   UNL d   1     -48.205  31.471  34.042  0.00  0.00     0.126 C 
ATOM     28  C   UNL d   1     -48.804  32.022  33.899  0.00  0.00     0.029 C 
ENDBRANCH  26  27
ENDBRANCH  24  26
ENDBRANCH  19  24
ENDBRANCH   1  18
TORSDOF 8
ENDMDL
MODEL 2
REMARK VINA RESULT:      60.6      1.631      6.178
REMARK  8 active torsions:
REMARK  status: ('A' for Active; 'I' for Inactive)
REMARK    1  A    between atoms: C_4  and  C_1 
REMARK    2  A    between atoms: N_6  and  C_3 
REMARK    3  A    between atoms: O_18  and  C_4 
REMARK       I    between atoms: C_7  and  N_6 
REMARK    4  A    between atoms: C_16  and  C_7 
REMARK    5  A    between atoms: C_10  and  C_8 
REMARK    6  A    between atoms: C_9  and  S_11 
REMARK    7  A    between atoms: S_11  and  C_16 
REMARK    8  A    between atoms: C_24  and  O_18 
ROOT
ATOM      1  N   UNL d   1     -49.786  26.756  33.668  0.00  0.00    -0.207 NA
ATOM      2  C   UNL d   1     -49.634  27.417  34.139  0.00  0.00     0.286 C 
ATOM      3  O   UNL d   1     -50.260  27.819  34.497  0.00  0.00    -0.265 OA
ENDROOT
BRANCH   2   4
ATOM      4  C   UNL d   1     -48.861  27.675  34.250  0.00  0.00     0.099 C 
BRANCH   4   5
ATOM      5  S   UNL d   1     -48.661  28.070  34.941  0.00  0.00    -0.061 SA
BRANCH   5   6
ATOM      6  C   UNL d   1     -48.409  28.854  34.916  0.00  0.00     0.133 A 
ATOM      7  N   UNL d   1     -48.945  29.461  34.792  0.00  0.00    -0.141 NA
ATOM      8  N   UNL d   1     -48.692  30.246  34.767  0.00  0.00    -0.148 NA
ATOM      9  C   UNL d   1     -47.890  30.428  34.867  0.00  0.00     0.104 A 
ATOM     10  C   UNL d   1     -47.346  29.817  34.992  0.00  0.00     0.023 A 
ATOM     11  C   UNL d   1     -47.601  29.035  35.017  0.00  0.00     0.029 A 
BRANCH   9  12
ATOM     12  C   UNL d   1     -47.637  31.212  34.842  0.00  0.00     0.039 A 
ATOM     13  C   UNL d   1     -47.189  31.512  35.452  0.00  0.00     0.101 A 
ATOM     14  N   UNL d   1     -46.937  32.290  35.431  0.00  0.00    -0.242 NA
ATOM     15  C   UNL d   1     -47.139  32.773  34.784  0.00  0.00     0.099 A 
ATOM     16  C   UNL d   1     -47.589  32.468  34.173  0.00  0.00     0.021 A 
ATOM     17  C   UNL d   1     -47.846  31.683  34.190  0.00  0.00     0.005 A 
ENDBRANCH   9  12
ENDBRANCH   5   6
ENDBRANCH   4   5
ENDBRANCH   2   4
BRANCH   1  18
ATOM     18  C   UNL d   1     -50.555  26.500  33.558  0.00  0.00     0.090 A 
ATOM     19  C   UNL d   1     -50.709  25.701  33.417  0.00  0.00     0.081 A 
ATOM     20  C   UNL d   1     -51.482  25.444  33.306  0.00  0.00     0.007 A 
ATOM     21  C   UNL d   1     -52.104  25.979  33.335  0.00  0.00     0.000 A 
ATOM     22  C   UNL d   1     -51.959  26.788  33.477  0.00  0.00     0.002 A 
ATOM     23  C   UNL d   1     -51.180  27.039  33.588  0.00  0.00     0.019 A 
BRANCH  19  24
ATOM     24  C   UNL d   1     -50.084  25.172  33.388  0.00  0.00     0.302 C 
ATOM     25  O   UNL d   1     -49.313  25.449  33.442  0.00  0.00    -0.259 OA
BRANCH  24  26
ATOM     26  O   UNL d   1     -50.224  24.366  33.307  0.00  0.00    -0.271 OA
BRANCH  26  27
ATOM     27  C   UNL d   1     -49.624  23.826  33.475  0.00  0.00     0.126 C 
ATOM     28  C   UNL d   1     -49.763  23.217  34.017  0.00  0.00     0.029 C 
ENDBRANCH  26  27
ENDBRANCH  24  26
ENDBRANCH  19  24
ENDBRANCH   1  18
TORSDOF 8
ENDMDL
