MODEL 1
REMARK VINA RESULT:       0.2      0.000      0.000
REMARK  6 active torsions:
REMARK  status: ('A' for Active; 'I' for Inactive)
REMARK    1  A    between atoms: C_8  and  C_1 
REMARK    2  A    between atoms: N_7  and  C_2 
REMARK    3  A    between atoms: C_10  and  C_4 
REMARK       I    between atoms: C_6  and  N_7 
REMARK       I    between atoms: N_9  and  C_6 
REMARK    4  A    between atoms: O_13  and  C_8 
REMARK    5  A    between atoms: C_14  and  N_9 
REMARK    6  A    between atoms: C_17  and  O_13 
ROOT
ATOM      1  C   UNL d   1      31.924  17.020 -23.882  0.00  0.00     0.111 A 
ATOM      2  C   UNL d   1      31.915  17.832 -23.955  0.00  0.00     0.098 A 
ATOM      3  S   UNL d   1      31.157  16.757 -24.018  0.00  0.00    -0.080 SA
ATOM      4  C   UNL d   1      30.686  17.413 -24.173  0.00  0.00     0.031 A 
ATOM      5  C   UNL d   1      31.167  18.087 -24.132  0.00  0.00     0.026 A 
ENDROOT
BRANCH   2   6
ATOM      6  N   UNL d   1      32.594  18.288 -23.854  0.00  0.00    -0.190 NA
ATOM      7  C   UNL d   1      32.571  19.074 -24.016  0.00  0.00     0.369 C 
ATOM      8  N   UNL d   1      33.241  19.549 -23.921  0.00  0.00    -0.191 NA
ATOM      9  O   UNL d   1      31.872  19.407 -24.279  0.00  0.00    -0.242 OA
BRANCH   8  10
ATOM     10  C   UNL d   1      33.211  20.369 -24.092  0.00  0.00     0.086 A 
ATOM     11  C   UNL d   1      33.154  20.902 -23.454  0.00  0.00     0.019 A 
ATOM     12  C   UNL d   1      33.125  21.702 -23.616  0.00  0.00     0.002 A 
ATOM     13  C   UNL d   1      33.153  21.971 -24.397  0.00  0.00     0.000 A 
ATOM     14  C   UNL d   1      33.209  21.442 -25.020  0.00  0.00     0.002 A 
ATOM     15  C   UNL d   1      33.238  20.646 -24.869  0.00  0.00     0.019 A 
ENDBRANCH   8  10
ENDBRANCH   2   6
BRANCH   1  16
ATOM     16  C   UNL d   1      32.593  16.543 -23.702  0.00  0.00     0.308 C 
ATOM     17  O   UNL d   1      33.034  16.180 -24.302  0.00  0.00    -0.258 OA
BRANCH  16  18
ATOM     18  O   UNL d   1      32.814  16.435 -22.928  0.00  0.00    -0.271 OA
BRANCH  18  19
ATOM     19  C   UNL d   1      33.006  15.647 -22.652  0.00  0.00     0.126 C 
ATOM     20  C   UNL d   1      33.235  15.563 -21.834  0.00  0.00     0.029 C 
ENDBRANCH  18  19
ENDBRANCH  16  18
ENDBRANCH   1  16
BRANCH   4  21
ATOM     21  C   UNL d   1      29.896  17.314 -24.328  0.00  0.00     0.006 A 
ATOM     22  C   UNL d   1      29.481  17.852 -24.822  0.00  0.00     0.001 A 
ATOM     23  C   UNL d   1      28.678  17.745 -24.975  0.00  0.00     0.000 A 
ATOM     24  C   UNL d   1      28.285  17.133 -24.659  0.00  0.00     0.000 A 
ATOM     25  C   UNL d   1      28.692  16.566 -24.147  0.00  0.00     0.000 A 
ATOM     26  C   UNL d   1      29.486  16.677 -23.999  0.00  0.00     0.001 A 
ENDBRANCH   4  21
TORSDOF 6
ENDMDL
