MODEL 1
REMARK VINA RESULT:      72.9      0.000      0.000
REMARK  2 active torsions:
REMARK  status: ('A' for Active; 'I' for Inactive)
REMARK    1  A    between atoms: C_3  and  N_1 
REMARK    2  A    between atoms: C_12  and  C_9 
ROOT
ATOM      1  C   UNL d   1     -50.355  26.105  33.750  0.00  0.00     0.187 A 
ATOM      2  N   UNL d   1     -50.285  25.281  33.835  0.00  0.00    -0.129 NA
ATOM      3  N   UNL d   1     -50.956  24.805  33.771  0.00  0.00    -0.147 NA
ATOM      4  C   UNL d   1     -51.088  26.445  33.603  0.00  0.00     0.039 A 
ATOM      5  C   UNL d   1     -51.697  25.154  33.622  0.00  0.00     0.103 A 
ATOM      6  C   UNL d   1     -51.759  25.969  33.539  0.00  0.00     0.022 A 
ATOM      7  C   UNL d   1     -51.154  27.264  33.519  0.00  0.00     0.003 A 
ATOM      8  C   UNL d   1     -52.496  26.313  33.391  0.00  0.00     0.002 A 
ATOM      9  C   UNL d   1     -52.558  27.128  33.308  0.00  0.00     0.000 A 
ATOM     10  C   UNL d   1     -51.887  27.603  33.372  0.00  0.00     0.000 A 
ENDROOT
BRANCH   1  11
ATOM     11  N   UNL d   1     -49.684  26.580  33.815  0.00  0.00    -0.191 N 
ATOM     12  N   UNL d   1     -49.043  26.750  33.306  0.00  0.00    -0.058 NA
ATOM     13  N   UNL d   1     -48.529  27.269  33.665  0.00  0.00    -0.129 NA
ATOM     14  C   UNL d   1     -48.832  27.444  34.417  0.00  0.00     0.122 A 
ATOM     15  C   UNL d   1     -49.551  27.016  34.511  0.00  0.00     0.105 A 
ATOM     16  C   UNL d   1     -48.557  27.929  35.024  0.00  0.00     0.022 A 
ATOM     17  C   UNL d   1     -49.973  27.088  35.214  0.00  0.00     0.021 A 
ATOM     18  C   UNL d   1     -49.671  27.593  35.828  0.00  0.00     0.002 A 
ATOM     19  C   UNL d   1     -48.971  27.993  35.700  0.00  0.00     0.002 A 
ENDBRANCH   1  11
BRANCH   5  20
ATOM     20  C   UNL d   1     -52.368  24.678  33.558  0.00  0.00     0.020 A 
ATOM     21  C   UNL d   1     -53.122  25.013  33.661  0.00  0.00     0.004 A 
ATOM     22  C   UNL d   1     -53.793  24.537  33.597  0.00  0.00     0.030 A 
ATOM     23  C   UNL d   1     -53.710  23.727  33.429  0.00  0.00     0.140 A 
ATOM     24  C   UNL d   1     -52.962  23.401  33.328  0.00  0.00     0.030 A 
ATOM     25  F   UNL d   1     -54.381  23.251  33.365  0.00  0.00    -0.204 F 
ATOM     26  C   UNL d   1     -52.291  23.877  33.392  0.00  0.00     0.004 A 
ENDBRANCH   5  20
TORSDOF 2
ENDMDL
