MODEL 1
REMARK VINA RESULT:      34.4      0.000      0.000
REMARK  2 active torsions:
REMARK  status: ('A' for Active; 'I' for Inactive)
REMARK       I    between atoms: C_6  and  N_8 
REMARK    1  A    between atoms: C_7  and  C_6 
REMARK    2  A    between atoms: N_8  and  C_11 
ROOT
ATOM      1  N   UNL d   1      58.198  49.707  49.047  0.00  0.00    -0.246 NA
ATOM      2  C   UNL d   1      57.567  49.702  50.227  0.00  0.00     0.019 A 
ATOM      3  C   UNL d   1      57.457  49.705  49.407  0.00  0.00     0.081 A 
ATOM      4  C   UNL d   1      58.373  49.702  50.364  0.00  0.00     0.021 A 
ATOM      5  C   UNL d   1      58.753  49.705  49.632  0.00  0.00     0.082 A 
ATOM      6  C   UNL d   1      58.806  49.700  51.058  0.00  0.00     0.021 A 
ATOM      7  C   UNL d   1      59.634  49.700  51.032  0.00  0.00     0.085 A 
ATOM      8  C   UNL d   1      59.587  49.706  49.600  0.00  0.00     0.021 A 
ATOM      9  C   UNL d   1      60.017  49.703  50.301  0.00  0.00     0.021 A 
ATOM     10  C   UNL d   1      56.908  49.700  50.741  0.00  0.00     0.002 A 
ATOM     11  C   UNL d   1      56.688  49.706  49.098  0.00  0.00     0.019 A 
ATOM     12  C   UNL d   1      56.144  49.700  50.431  0.00  0.00     0.000 A 
ATOM     13  C   UNL d   1      56.034  49.704  49.610  0.00  0.00     0.002 A 
ENDROOT
BRANCH   7  14
ATOM     14  N   UNL d   1      60.079  49.698  51.751  0.00  0.00    -0.206 NA
ATOM     15  C   UNL d   1      60.691  49.149  51.860  0.00  0.00     0.302 C 
ATOM     16  O   UNL d   1      61.109  49.161  52.558  0.00  0.00    -0.263 OA
BRANCH  15  17
ATOM     17  C   UNL d   1      60.870  48.596  51.254  0.00  0.00     0.158 A 
ATOM     18  O   UNL d   1      60.980  48.671  50.438  0.00  0.00    -0.300 OA
ATOM     19  C   UNL d   1      61.143  47.928  50.139  0.00  0.00     0.123 A 
ATOM     20  C   UNL d   1      61.137  47.399  50.752  0.00  0.00     0.029 A 
ATOM     21  C   UNL d   1      60.968  47.816  51.437  0.00  0.00     0.032 A 
ENDBRANCH  15  17
ENDBRANCH   7  14
TORSDOF 2
ENDMDL
