MODEL 1
REMARK VINA RESULT:       1.3      0.000      0.000
REMARK  1 active torsions:
REMARK  status: ('A' for Active; 'I' for Inactive)
REMARK    1  A    between atoms: C_2  and  CA_3 
ROOT
ATOM      1  N   UNL d   1     -56.139-102.879 -37.989  0.00  0.00    -0.237 NA
ATOM      2  CA  UNL d   1     -55.435-102.871 -38.401  0.00  0.00     0.145 A 
ATOM      3  C   UNL d   1     -54.711-102.862 -37.988  0.00  0.00     0.026 A 
ATOM      4  C   UNL d   1     -56.137-102.878 -37.170  0.00  0.00     0.106 A 
ATOM      5  C   UNL d   1     -55.413-102.869 -36.757  0.00  0.00     0.054 A 
ATOM      6  C   UNL d   1     -54.712-102.861 -37.176  0.00  0.00     0.010 A 
ATOM      7 BR   UNL d   1     -55.419-102.867 -35.935  0.00  0.00    -0.048 Br
ENDROOT
BRANCH   2   8
ATOM      8  C   UNL d   1     -55.435-102.873 -39.226  0.00  0.00     0.229 C 
ATOM      9  O   UNL d   1     -54.725-102.868 -39.647  0.00  0.00    -0.643 OA
ATOM     10  OXT UNL d   1     -56.143-102.879 -39.642  0.00  0.00    -0.643 OA
ENDBRANCH   2   8
TORSDOF 1
ENDMDL
MODEL 2
REMARK VINA RESULT:       2.0      2.000      2.472
REMARK  1 active torsions:
REMARK  status: ('A' for Active; 'I' for Inactive)
REMARK    1  A    between atoms: C_2  and  CA_3 
ROOT
ATOM      1  N   UNL d   1     -56.142-102.868 -38.108  0.00  0.00    -0.237 NA
ATOM      2  CA  UNL d   1     -55.439-102.866 -37.694  0.00  0.00     0.145 A 
ATOM      3  C   UNL d   1     -54.714-102.861 -38.103  0.00  0.00     0.026 A 
ATOM      4  C   UNL d   1     -56.136-102.866 -38.927  0.00  0.00     0.106 A 
ATOM      5  C   UNL d   1     -55.411-102.860 -39.337  0.00  0.00     0.054 A 
ATOM      6  C   UNL d   1     -54.711-102.858 -38.916  0.00  0.00     0.010 A 
ATOM      7 BR   UNL d   1     -55.414-102.857 -40.159  0.00  0.00    -0.048 Br
ENDROOT
BRANCH   2   8
ATOM      8  C   UNL d   1     -55.442-102.869 -36.869  0.00  0.00     0.229 C 
ATOM      9  O   UNL d   1     -56.153-102.876 -36.450  0.00  0.00    -0.643 OA
ATOM     10  OXT UNL d   1     -54.734-102.864 -36.450  0.00  0.00    -0.643 OA
ENDBRANCH   2   8
TORSDOF 1
ENDMDL
