MODEL 1
REMARK VINA RESULT:     -14.4      0.000      0.000
REMARK  4 active torsions:
REMARK  status: ('A' for Active; 'I' for Inactive)
REMARK    1  A    between atoms: C_15  and  O_20 
REMARK    2  A    between atoms: C_16  and  O_21 
REMARK    3  A    between atoms: O_20  and  C_18 
REMARK    4  A    between atoms: O_21  and  C_19 
ROOT
ATOM      1  C   UNL d   1      53.173  32.854  53.816  0.00  0.00     0.161 A 
ATOM      2  O   UNL d   1      53.783  32.719  54.248  0.00  0.00    -0.291 OA
ATOM      3  C   UNL d   1      53.224  32.038  53.687  0.00  0.00     0.033 A 
ATOM      4  C   UNL d   1      52.573  33.289  53.454  0.00  0.00     0.033 A 
ATOM      5  C   UNL d   1      53.018  33.691  53.872  0.00  0.00     0.016 A 
ATOM      6  C   UNL d   1      53.973  33.269  54.505  0.00  0.00     0.296 A 
ATOM      7  C   UNL d   1      52.673  31.659  53.193  0.00  0.00     0.101 A 
ATOM      8  C   UNL d   1      52.022  32.911  52.960  0.00  0.00     0.101 A 
ATOM      9  O   UNL d   1      52.072  32.098  52.830  0.00  0.00    -0.307 OA
ATOM     10  C   UNL d   1      53.591  33.806  54.327  0.00  0.00     0.062 A 
ATOM     11  C   UNL d   1      51.421  33.348  52.597  0.00  0.00     0.049 A 
ATOM     12  C   UNL d   1      52.721  30.850  53.062  0.00  0.00     0.049 A 
ATOM     13  C   UNL d   1      53.822  31.606  54.049  0.00  0.00     0.003 A 
ATOM     14  C   UNL d   1      52.522  34.105  53.583  0.00  0.00     0.003 A 
ATOM     15  O   UNL d   1      54.519  33.242  54.911  0.00  0.00    -0.259 OA
ATOM     16  C   UNL d   1      51.369  34.165  52.727  0.00  0.00     0.105 A 
ATOM     17  C   UNL d   1      53.323  30.411  53.425  0.00  0.00     0.105 A 
ATOM     18  C   UNL d   1      53.874  30.790  53.919  0.00  0.00     0.025 A 
ATOM     19  C   UNL d   1      51.920  34.544  53.220  0.00  0.00     0.025 A 
ATOM     20  C   UNL d   1      52.542  34.295  53.638  0.00  0.00    -0.001 A 
ATOM     21  C   UNL d   1      53.783  34.530  54.621  0.00  0.00     0.005 A 
ATOM     22  C   UNL d   1      52.694  35.040  53.905  0.00  0.00    -0.000 A 
ATOM     23  C   UNL d   1      53.316  35.153  54.398  0.00  0.00     0.000 A 
ENDROOT
BRANCH  17  24
ATOM     24  O   UNL d   1      53.344  29.862  53.328  0.00  0.00    -0.273 OA
BRANCH  24  25
ATOM     25  C   UNL d   1      53.118  29.393  53.691  0.00  0.00     0.300 C 
ATOM     26  O   UNL d   1      52.671  29.177  53.407  0.00  0.00    -0.259 OA
ATOM     27  C   UNL d   1      53.362  29.181  54.311  0.00  0.00     0.074 C 
ENDBRANCH  24  25
ENDBRANCH  17  24
BRANCH  16  28
ATOM     28  O   UNL d   1      50.954  34.456  52.473  0.00  0.00    -0.273 OA
BRANCH  28  29
ATOM     29  C   UNL d   1      50.440  34.448  52.291  0.00  0.00     0.300 C 
ATOM     30  O   UNL d   1      50.507  34.448  51.666  0.00  0.00    -0.259 OA
ATOM     31  C   UNL d   1      49.901  34.442  52.632  0.00  0.00     0.074 C 
ENDBRANCH  28  29
ENDBRANCH  16  28
TORSDOF 4
ENDMDL
MODEL 2
REMARK VINA RESULT:     -13.9      0.797      3.717
REMARK  4 active torsions:
REMARK  status: ('A' for Active; 'I' for Inactive)
REMARK    1  A    between atoms: C_15  and  O_20 
REMARK    2  A    between atoms: C_16  and  O_21 
REMARK    3  A    between atoms: O_20  and  C_18 
REMARK    4  A    between atoms: O_21  and  C_19 
ROOT
ATOM      1  C   UNL d   1      52.807  33.639  53.806  0.00  0.00     0.161 A 
ATOM      2  O   UNL d   1      52.794  34.366  54.024  0.00  0.00    -0.291 OA
ATOM      3  C   UNL d   1      52.153  33.880  53.359  0.00  0.00     0.033 A 
ATOM      4  C   UNL d   1      53.064  32.856  53.766  0.00  0.00     0.033 A 
ATOM      5  C   UNL d   1      53.461  33.275  54.215  0.00  0.00     0.016 A 
ATOM      6  C   UNL d   1      53.271  34.460  54.435  0.00  0.00     0.296 A 
ATOM      7  C   UNL d   1      51.757  33.335  52.872  0.00  0.00     0.101 A 
ATOM      8  C   UNL d   1      52.669  32.311  53.279  0.00  0.00     0.101 A 
ATOM      9  O   UNL d   1      52.017  32.549  52.832  0.00  0.00    -0.307 OA
ATOM     10  C   UNL d   1      53.645  33.904  54.559  0.00  0.00     0.062 A 
ATOM     11  C   UNL d   1      52.927  31.526  53.239  0.00  0.00     0.049 A 
ATOM     12  C   UNL d   1      51.108  33.570  52.427  0.00  0.00     0.049 A 
ATOM     13  C   UNL d   1      51.898  34.660  53.400  0.00  0.00     0.003 A 
ATOM     14  C   UNL d   1      53.717  32.615  54.213  0.00  0.00     0.003 A 
ATOM     15  O   UNL d   1      53.336  35.090  54.685  0.00  0.00    -0.259 OA
ATOM     16  C   UNL d   1      53.582  31.284  53.687  0.00  0.00     0.105 A 
ATOM     17  C   UNL d   1      50.849  34.356  52.466  0.00  0.00     0.105 A 
ATOM     18  C   UNL d   1      51.244  34.901  52.953  0.00  0.00     0.025 A 
ATOM     19  C   UNL d   1      53.977  31.829  54.174  0.00  0.00     0.025 A 
ATOM     20  C   UNL d   1      53.874  32.596  54.332  0.00  0.00    -0.001 A 
ATOM     21  C   UNL d   1      54.264  33.961  55.072  0.00  0.00     0.005 A 
ATOM     22  C   UNL d   1      54.503  32.602  54.837  0.00  0.00    -0.000 A 
ATOM     23  C   UNL d   1      54.694  33.289  55.205  0.00  0.00     0.000 A 
ENDROOT
BRANCH  17  24
ATOM     24  O   UNL d   1      50.407  34.503  52.158  0.00  0.00    -0.273 OA
BRANCH  24  25
ATOM     25  C   UNL d   1      49.802  34.553  52.344  0.00  0.00     0.300 C 
ATOM     26  O   UNL d   1      49.499  34.234  51.980  0.00  0.00    -0.259 OA
ATOM     27  C   UNL d   1      49.554  34.923  52.884  0.00  0.00     0.074 C 
ENDBRANCH  24  25
ENDBRANCH  17  24
BRANCH  16  28
ATOM     28  O   UNL d   1      53.751  30.744  53.652  0.00  0.00    -0.273 OA
BRANCH  28  29
ATOM     29  C   UNL d   1      53.612  30.232  53.530  0.00  0.00     0.300 C 
ATOM     30  O   UNL d   1      53.954  30.107  53.018  0.00  0.00    -0.259 OA
ATOM     31  C   UNL d   1      53.201  29.851  53.835  0.00  0.00     0.074 C 
ENDBRANCH  28  29
ENDBRANCH  16  28
TORSDOF 4
ENDMDL
MODEL 3
REMARK VINA RESULT:     -13.1      0.829      2.723
REMARK  4 active torsions:
REMARK  status: ('A' for Active; 'I' for Inactive)
REMARK    1  A    between atoms: C_15  and  O_20 
REMARK    2  A    between atoms: C_16  and  O_21 
REMARK    3  A    between atoms: O_20  and  C_18 
REMARK    4  A    between atoms: O_21  and  C_19 
ROOT
ATOM      1  C   UNL d   1      52.887  32.607  53.374  0.00  0.00     0.161 A 
ATOM      2  O   UNL d   1      52.316  32.470  52.892  0.00  0.00    -0.291 OA
ATOM      3  C   UNL d   1      52.966  31.783  53.335  0.00  0.00     0.033 A 
ATOM      4  C   UNL d   1      53.400  33.045  53.848  0.00  0.00     0.033 A 
ATOM      5  C   UNL d   1      52.905  33.451  53.495  0.00  0.00     0.016 A 
ATOM      6  C   UNL d   1      52.045  33.025  52.740  0.00  0.00     0.296 A 
ATOM      7  C   UNL d   1      53.560  31.401  53.772  0.00  0.00     0.101 A 
ATOM      8  C   UNL d   1      53.995  32.663  54.285  0.00  0.00     0.101 A 
ATOM      9  O   UNL d   1      54.075  31.842  54.248  0.00  0.00    -0.307 OA
ATOM     10  C   UNL d   1      52.331  33.567  53.041  0.00  0.00     0.062 A 
ATOM     11  C   UNL d   1      54.509  33.103  54.760  0.00  0.00     0.049 A 
ATOM     12  C   UNL d   1      53.641  30.584  53.736  0.00  0.00     0.049 A 
ATOM     13  C   UNL d   1      52.453  31.348  52.863  0.00  0.00     0.003 A 
ATOM     14  C   UNL d   1      53.321  33.868  53.887  0.00  0.00     0.003 A 
ATOM     15  O   UNL d   1      51.520  32.999  52.308  0.00  0.00    -0.259 OA
ATOM     16  C   UNL d   1      54.431  33.927  54.799  0.00  0.00     0.105 A 
ATOM     17  C   UNL d   1      53.126  30.142  53.261  0.00  0.00     0.105 A 
ATOM     18  C   UNL d   1      52.532  30.524  52.824  0.00  0.00     0.025 A 
ATOM     19  C   UNL d   1      53.836  34.310  54.362  0.00  0.00     0.025 A 
ATOM     20  C   UNL d   1      53.272  34.059  53.870  0.00  0.00    -0.001 A 
ATOM     21  C   UNL d   1      52.031  34.298  52.888  0.00  0.00     0.005 A 
ATOM     22  C   UNL d   1      53.008  34.811  53.749  0.00  0.00    -0.000 A 
ATOM     23  C   UNL d   1      52.386  34.926  53.256  0.00  0.00     0.000 A 
ENDROOT
BRANCH  17  24
ATOM     24  O   UNL d   1      53.192  29.588  53.245  0.00  0.00    -0.273 OA
BRANCH  24  25
ATOM     25  C   UNL d   1      52.939  29.155  53.633  0.00  0.00     0.300 C 
ATOM     26  O   UNL d   1      52.460  28.977  53.376  0.00  0.00    -0.259 OA
ATOM     27  C   UNL d   1      53.189  28.936  54.248  0.00  0.00     0.074 C 
ENDBRANCH  24  25
ENDBRANCH  17  24
BRANCH  16  28
ATOM     28  O   UNL d   1      54.788  34.220  55.128  0.00  0.00    -0.273 OA
BRANCH  28  29
ATOM     29  C   UNL d   1      55.189  34.197  55.496  0.00  0.00     0.300 C 
ATOM     30  O   UNL d   1      55.679  34.449  55.194  0.00  0.00    -0.259 OA
ATOM     31  C   UNL d   1      55.165  33.967  56.091  0.00  0.00     0.074 C 
ENDBRANCH  28  29
ENDBRANCH  16  28
TORSDOF 4
ENDMDL
MODEL 4
REMARK VINA RESULT:     -12.9      0.971      4.115
REMARK  4 active torsions:
REMARK  status: ('A' for Active; 'I' for Inactive)
REMARK    1  A    between atoms: C_15  and  O_20 
REMARK    2  A    between atoms: C_16  and  O_21 
REMARK    3  A    between atoms: O_20  and  C_18 
REMARK    4  A    between atoms: O_21  and  C_19 
ROOT
ATOM      1  C   UNL d   1      52.507  32.711  53.332  0.00  0.00     0.161 A 
ATOM      2  O   UNL d   1      52.052  32.283  52.899  0.00  0.00    -0.291 OA
ATOM      3  C   UNL d   1      51.930  33.284  53.171  0.00  0.00     0.033 A 
ATOM      4  C   UNL d   1      53.155  32.905  53.803  0.00  0.00     0.033 A 
ATOM      5  C   UNL d   1      53.159  32.213  53.565  0.00  0.00     0.016 A 
ATOM      6  C   UNL d   1      52.307  31.702  52.856  0.00  0.00     0.296 A 
ATOM      7  C   UNL d   1      52.005  34.050  53.484  0.00  0.00     0.101 A 
ATOM      8  C   UNL d   1      53.231  33.671  54.117  0.00  0.00     0.101 A 
ATOM      9  O   UNL d   1      52.657  34.242  53.958  0.00  0.00    -0.307 OA
ATOM     10  C   UNL d   1      52.894  31.629  53.196  0.00  0.00     0.062 A 
ATOM     11  C   UNL d   1      53.882  33.864  54.590  0.00  0.00     0.049 A 
ATOM     12  C   UNL d   1      51.435  34.620  53.328  0.00  0.00     0.049 A 
ATOM     13  C   UNL d   1      51.285  33.089  52.701  0.00  0.00     0.003 A 
ATOM     14  C   UNL d   1      53.731  32.333  53.963  0.00  0.00     0.003 A 
ATOM     15  O   UNL d   1      51.964  31.247  52.484  0.00  0.00    -0.259 OA
ATOM     16  C   UNL d   1      54.459  33.291  54.750  0.00  0.00     0.105 A 
ATOM     17  C   UNL d   1      50.783  34.428  52.854  0.00  0.00     0.105 A 
ATOM     18  C   UNL d   1      50.708  33.662  52.541  0.00  0.00     0.025 A 
ATOM     19  C   UNL d   1      54.383  32.525  54.437  0.00  0.00     0.025 A 
ATOM     20  C   UNL d   1      53.846  32.172  53.979  0.00  0.00    -0.001 A 
ATOM     21  C   UNL d   1      53.264  30.914  53.179  0.00  0.00     0.005 A 
ATOM     22  C   UNL d   1      54.255  31.476  53.992  0.00  0.00    -0.000 A 
ATOM     23  C   UNL d   1      53.959  30.849  53.589  0.00  0.00     0.000 A 
ENDROOT
BRANCH  17  24
ATOM     24  O   UNL d   1      50.404  34.825  52.756  0.00  0.00    -0.273 OA
BRANCH  24  25
ATOM     25  C   UNL d   1      49.786  34.751  52.634  0.00  0.00     0.300 C 
ATOM     26  O   UNL d   1      49.517  34.831  53.132  0.00  0.00    -0.259 OA
ATOM     27  C   UNL d   1      49.489  34.601  52.018  0.00  0.00     0.074 C 
ENDBRANCH  24  25
ENDBRANCH  17  24
BRANCH  16  28
ATOM     28  O   UNL d   1      54.901  33.434  55.075  0.00  0.00    -0.273 OA
BRANCH  28  29
ATOM     29  C   UNL d   1      55.257  33.822  55.213  0.00  0.00     0.300 C 
ATOM     30  O   UNL d   1      55.153  33.903  55.828  0.00  0.00    -0.259 OA
ATOM     31  C   UNL d   1      55.677  34.123  54.839  0.00  0.00     0.074 C 
ENDBRANCH  28  29
ENDBRANCH  16  28
TORSDOF 4
ENDMDL
