MODEL 1
REMARK VINA RESULT:      -3.0      0.000      0.000
REMARK  4 active torsions:
REMARK  status: ('A' for Active; 'I' for Inactive)
REMARK    1  A    between atoms: N_6  and  C_1 
REMARK    2  A    between atoms: C_7  and  N_2 
REMARK    3  A    between atoms: C_11  and  N_6 
REMARK    4  A    between atoms: C_14  and  C_11 
ROOT
ATOM      1  C   UNL d   1      57.922  -0.875  30.353  0.00  0.00     0.735 A 
ATOM      2  N   UNL d   1      58.432  -0.538  29.800  0.00  0.00    -0.139 N 
ATOM      3  N   UNL d   1      57.977  -1.718  30.260  0.00  0.00    -0.059 NA
ATOM      4  C   UNL d   1      58.792  -1.121  29.379  0.00  0.00     0.100 A 
ATOM      5  C   UNL d   1      58.505  -1.866  29.670  0.00  0.00     0.116 A 
ATOM      6  C   UNL d   1      59.345  -1.103  28.767  0.00  0.00     0.020 A 
ATOM      7  C   UNL d   1      58.816  -2.533  29.301  0.00  0.00     0.021 A 
ATOM      8  C   UNL d   1      59.604  -1.795  28.455  0.00  0.00     0.002 A 
ATOM      9  C   UNL d   1      59.325  -2.518  28.737  0.00  0.00     0.002 A 
ENDROOT
BRANCH   1  10
ATOM     10  N   UNL d   1      57.434  -0.505  30.907  0.00  0.00    -0.056 NA
BRANCH  10  11
ATOM     11  C   UNL d   1      57.042  -0.957  31.442  0.00  0.00     0.163 C 
BRANCH  11  12
ATOM     12  C   UNL d   1      56.626  -0.585  32.050  0.00  0.00     0.255 C 
ATOM     13  O   UNL d   1      56.063  -1.022  32.490  0.00  0.00    -0.281 OA
ENDBRANCH  11  12
ENDBRANCH  10  11
ENDBRANCH   1  10
BRANCH   2  14
ATOM     14  C   UNL d   1      58.425   0.261  29.837  0.00  0.00     0.082 C 
ATOM     15  C   UNL d   1      57.880   0.682  29.376  0.00  0.00     0.020 C 
ATOM     16  C   UNL d   1      58.961   0.647  30.332  0.00  0.00     0.020 C 
ENDBRANCH   2  14
TORSDOF 4
ENDMDL
MODEL 2
REMARK VINA RESULT:      -2.3      2.697      4.008
REMARK  4 active torsions:
REMARK  status: ('A' for Active; 'I' for Inactive)
REMARK    1  A    between atoms: N_6  and  C_1 
REMARK    2  A    between atoms: C_7  and  N_2 
REMARK    3  A    between atoms: C_11  and  N_6 
REMARK    4  A    between atoms: C_14  and  C_11 
ROOT
ATOM      1  C   UNL d   1      56.575   0.127  33.564  0.00  0.00     0.735 A 
ATOM      2  N   UNL d   1      56.397  -0.312  32.889  0.00  0.00    -0.139 N 
ATOM      3  N   UNL d   1      57.259   0.596  33.382  0.00  0.00    -0.059 NA
ATOM      4  C   UNL d   1      56.928  -0.138  32.310  0.00  0.00     0.100 A 
ATOM      5  C   UNL d   1      57.472   0.435  32.621  0.00  0.00     0.116 A 
ATOM      6  C   UNL d   1      57.013  -0.408  31.536  0.00  0.00     0.020 A 
ATOM      7  C   UNL d   1      58.062   0.682  32.102  0.00  0.00     0.021 A 
ATOM      8  C   UNL d   1      57.612  -0.123  31.087  0.00  0.00     0.002 A 
ATOM      9  C   UNL d   1      58.141   0.434  31.389  0.00  0.00     0.002 A 
ENDROOT
BRANCH   1  10
ATOM     10  N   UNL d   1      56.192   0.138  34.295  0.00  0.00    -0.056 NA
BRANCH  10  11
ATOM     11  C   UNL d   1      56.497   0.587  34.887  0.00  0.00     0.163 C 
BRANCH  11  12
ATOM     12  C   UNL d   1      56.061   0.681  35.581  0.00  0.00     0.255 C 
ATOM     13  O   UNL d   1      56.459   0.682  36.319  0.00  0.00    -0.281 OA
ENDBRANCH  11  12
ENDBRANCH  10  11
ENDBRANCH   1  10
BRANCH   2  14
ATOM     14  C   UNL d   1      55.757  -0.779  32.997  0.00  0.00     0.082 C 
ATOM     15  C   UNL d   1      55.002  -0.438  32.984  0.00  0.00     0.020 C 
ATOM     16  C   UNL d   1      55.863  -1.588  33.120  0.00  0.00     0.020 C 
ENDBRANCH   2  14
TORSDOF 4
ENDMDL
MODEL 3
REMARK VINA RESULT:      -2.1      1.791      3.072
REMARK  4 active torsions:
REMARK  status: ('A' for Active; 'I' for Inactive)
REMARK    1  A    between atoms: N_6  and  C_1 
REMARK    2  A    between atoms: C_7  and  N_2 
REMARK    3  A    between atoms: C_11  and  N_6 
REMARK    4  A    between atoms: C_14  and  C_11 
ROOT
ATOM      1  C   UNL d   1      59.016  -0.830  29.610  0.00  0.00     0.735 A 
ATOM      2  N   UNL d   1      58.806  -0.036  29.692  0.00  0.00    -0.139 N 
ATOM      3  N   UNL d   1      58.530  -1.272  30.148  0.00  0.00    -0.059 NA
ATOM      4  C   UNL d   1      58.224   0.029  30.245  0.00  0.00     0.100 A 
ATOM      5  C   UNL d   1      58.051  -0.750  30.532  0.00  0.00     0.116 A 
ATOM      6  C   UNL d   1      57.814   0.679  30.542  0.00  0.00     0.020 A 
ATOM      7  C   UNL d   1      57.462  -0.792  31.108  0.00  0.00     0.021 A 
ATOM      8  C   UNL d   1      57.253   0.563  31.103  0.00  0.00     0.002 A 
ATOM      9  C   UNL d   1      57.084  -0.195  31.382  0.00  0.00     0.002 A 
ENDROOT
BRANCH   1  10
ATOM     10  N   UNL d   1      59.582  -1.172  29.115  0.00  0.00    -0.056 NA
BRANCH  10  11
ATOM     11  C   UNL d   1      59.557  -1.963  28.987  0.00  0.00     0.163 C 
BRANCH  11  12
ATOM     12  C   UNL d   1      60.212  -2.332  28.646  0.00  0.00     0.255 C 
ATOM     13  O   UNL d   1      60.188  -3.157  28.498  0.00  0.00    -0.281 OA
ENDBRANCH  11  12
ENDBRANCH  10  11
ENDBRANCH   1  10
BRANCH   2  14
ATOM     14  C   UNL d   1      59.232   0.436  29.208  0.00  0.00     0.082 C 
ATOM     15  C   UNL d   1      58.901   0.680  28.489  0.00  0.00     0.020 C 
ATOM     16  C   UNL d   1      59.990   0.669  29.435  0.00  0.00     0.020 C 
ENDBRANCH   2  14
TORSDOF 4
ENDMDL
MODEL 4
REMARK VINA RESULT:      -2.0      1.379      3.135
REMARK  4 active torsions:
REMARK  status: ('A' for Active; 'I' for Inactive)
REMARK    1  A    between atoms: N_6  and  C_1 
REMARK    2  A    between atoms: C_7  and  N_2 
REMARK    3  A    between atoms: C_11  and  N_6 
REMARK    4  A    between atoms: C_14  and  C_11 
ROOT
ATOM      1  C   UNL d   1      57.842  -0.835  30.458  0.00  0.00     0.735 A 
ATOM      2  N   UNL d   1      57.738  -0.038  30.645  0.00  0.00    -0.139 N 
ATOM      3  N   UNL d   1      57.380  -1.282  31.014  0.00  0.00    -0.059 NA
ATOM      4  C   UNL d   1      57.245   0.025  31.277  0.00  0.00     0.100 A 
ATOM      5  C   UNL d   1      57.018  -0.759  31.509  0.00  0.00     0.116 A 
ATOM      6  C   UNL d   1      56.955   0.677  31.690  0.00  0.00     0.020 A 
ATOM      7  C   UNL d   1      56.508  -0.804  32.155  0.00  0.00     0.021 A 
ATOM      8  C   UNL d   1      56.461   0.557  32.310  0.00  0.00     0.002 A 
ATOM      9  C   UNL d   1      56.241  -0.205  32.536  0.00  0.00     0.002 A 
ENDROOT
BRANCH   1  10
ATOM     10  N   UNL d   1      58.295  -1.176  29.858  0.00  0.00    -0.056 NA
BRANCH  10  11
ATOM     11  C   UNL d   1      58.318  -1.976  29.796  0.00  0.00     0.163 C 
BRANCH  11  12
ATOM     12  C   UNL d   1      58.810  -2.318  29.229  0.00  0.00     0.255 C 
ATOM     13  O   UNL d   1      58.648  -3.094  28.959  0.00  0.00    -0.281 OA
ENDBRANCH  11  12
ENDBRANCH  10  11
ENDBRANCH   1  10
BRANCH   2  14
ATOM     14  C   UNL d   1      58.151   0.439  30.154  0.00  0.00     0.082 C 
ATOM     15  C   UNL d   1      57.804   0.682  29.441  0.00  0.00     0.020 C 
ATOM     16  C   UNL d   1      58.912   0.677  30.367  0.00  0.00     0.020 C 
ENDBRANCH   2  14
TORSDOF 4
ENDMDL
MODEL 5
REMARK VINA RESULT:      -1.8      2.660      4.319
REMARK  4 active torsions:
REMARK  status: ('A' for Active; 'I' for Inactive)
REMARK    1  A    between atoms: N_6  and  C_1 
REMARK    2  A    between atoms: C_7  and  N_2 
REMARK    3  A    between atoms: C_11  and  N_6 
REMARK    4  A    between atoms: C_14  and  C_11 
ROOT
ATOM      1  C   UNL d   1      57.757   0.364  32.382  0.00  0.00     0.735 A 
ATOM      2  N   UNL d   1      57.023   0.042  32.183  0.00  0.00    -0.139 N 
ATOM      3  N   UNL d   1      57.701   0.631  33.186  0.00  0.00    -0.059 NA
ATOM      4  C   UNL d   1      56.528   0.098  32.815  0.00  0.00     0.100 A 
ATOM      5  C   UNL d   1      56.956   0.470  33.448  0.00  0.00     0.116 A 
ATOM      6  C   UNL d   1      55.744  -0.130  32.927  0.00  0.00     0.020 A 
ATOM      7  C   UNL d   1      56.534   0.575  34.147  0.00  0.00     0.021 A 
ATOM      8  C   UNL d   1      55.396   0.004  33.637  0.00  0.00     0.002 A 
ATOM      9  C   UNL d   1      55.812   0.365  34.251  0.00  0.00     0.002 A 
ENDROOT
BRANCH   1  10
ATOM     10  N   UNL d   1      58.438   0.432  31.920  0.00  0.00    -0.056 NA
BRANCH  10  11
ATOM     11  C   UNL d   1      59.117   0.682  32.267  0.00  0.00     0.163 C 
BRANCH  11  12
ATOM     12  C   UNL d   1      59.816   0.675  31.827  0.00  0.00     0.255 C 
ATOM     13  O   UNL d   1      60.552   0.645  32.226  0.00  0.00    -0.281 OA
ENDBRANCH  11  12
ENDBRANCH  10  11
ENDBRANCH   1  10
BRANCH   2  14
ATOM     14  C   UNL d   1      57.011  -0.230  31.432  0.00  0.00     0.082 C 
ATOM     15  C   UNL d   1      56.955  -1.046  31.299  0.00  0.00     0.020 C 
ATOM     16  C   UNL d   1      57.053   0.308  30.807  0.00  0.00     0.020 C 
ENDBRANCH   2  14
TORSDOF 4
ENDMDL
MODEL 6
REMARK VINA RESULT:      -1.1      1.940      3.518
REMARK  4 active torsions:
REMARK  status: ('A' for Active; 'I' for Inactive)
REMARK    1  A    between atoms: N_6  and  C_1 
REMARK    2  A    between atoms: C_7  and  N_2 
REMARK    3  A    between atoms: C_11  and  N_6 
REMARK    4  A    between atoms: C_14  and  C_11 
ROOT
ATOM      1  C   UNL d   1      58.898   0.166  30.340  0.00  0.00     0.735 A 
ATOM      2  N   UNL d   1      58.265  -0.364  30.319  0.00  0.00    -0.139 N 
ATOM      3  N   UNL d   1      58.775   0.672  31.011  0.00  0.00    -0.059 NA
ATOM      4  C   UNL d   1      57.769  -0.210  30.933  0.00  0.00     0.100 A 
ATOM      5  C   UNL d   1      58.090   0.443  31.370  0.00  0.00     0.116 A 
ATOM      6  C   UNL d   1      57.063  -0.560  31.176  0.00  0.00     0.020 A 
ATOM      7  C   UNL d   1      57.652   0.681  32.025  0.00  0.00     0.021 A 
ATOM      8  C   UNL d   1      56.690  -0.275  31.826  0.00  0.00     0.002 A 
ATOM      9  C   UNL d   1      57.002   0.360  32.250  0.00  0.00     0.002 A 
ENDROOT
BRANCH   1  10
ATOM     10  N   UNL d   1      59.544   0.227  29.830  0.00  0.00    -0.056 NA
BRANCH  10  11
ATOM     11  C   UNL d   1      60.217   0.573  30.097  0.00  0.00     0.163 C 
BRANCH  11  12
ATOM     12  C   UNL d   1      60.934   0.382  29.736  0.00  0.00     0.255 C 
ATOM     13  O   UNL d   1      61.103   0.682  28.972  0.00  0.00    -0.281 OA
ENDBRANCH  11  12
ENDBRANCH  10  11
ENDBRANCH   1  10
BRANCH   2  14
ATOM     14  C   UNL d   1      58.323  -0.872  29.705  0.00  0.00     0.082 C 
ATOM     15  C   UNL d   1      58.552  -1.655  29.848  0.00  0.00     0.020 C 
ATOM     16  C   UNL d   1      58.153  -0.605  28.942  0.00  0.00     0.020 C 
ENDBRANCH   2  14
TORSDOF 4
ENDMDL
MODEL 7
REMARK VINA RESULT:      -1.1      1.735      3.988
REMARK  4 active torsions:
REMARK  status: ('A' for Active; 'I' for Inactive)
REMARK    1  A    between atoms: N_6  and  C_1 
REMARK    2  A    between atoms: C_7  and  N_2 
REMARK    3  A    between atoms: C_11  and  N_6 
REMARK    4  A    between atoms: C_14  and  C_11 
ROOT
ATOM      1  C   UNL d   1      56.993  -0.733  31.819  0.00  0.00     0.735 A 
ATOM      2  N   UNL d   1      56.997  -0.101  32.350  0.00  0.00    -0.139 N 
ATOM      3  N   UNL d   1      56.352  -1.242  32.045  0.00  0.00    -0.059 NA
ATOM      4  C   UNL d   1      56.400  -0.196  32.881  0.00  0.00     0.100 A 
ATOM      5  C   UNL d   1      55.994  -0.916  32.689  0.00  0.00     0.116 A 
ATOM      6  C   UNL d   1      56.152   0.260  33.522  0.00  0.00     0.020 A 
ATOM      7  C   UNL d   1      55.359  -1.105  33.179  0.00  0.00     0.021 A 
ATOM      8  C   UNL d   1      55.524   0.013  33.956  0.00  0.00     0.002 A 
ATOM      9  C   UNL d   1      55.129  -0.687  33.769  0.00  0.00     0.002 A 
ENDROOT
BRANCH   1  10
ATOM     10  N   UNL d   1      57.494  -0.881  31.180  0.00  0.00    -0.056 NA
BRANCH  10  11
ATOM     11  C   UNL d   1      57.350  -1.518  30.714  0.00  0.00     0.163 C 
BRANCH  11  12
ATOM     12  C   UNL d   1      57.849  -1.664  30.073  0.00  0.00     0.255 C 
ATOM     13  O   UNL d   1      58.380  -2.312  30.106  0.00  0.00    -0.281 OA
ENDBRANCH  11  12
ENDBRANCH  10  11
ENDBRANCH   1  10
BRANCH   2  14
ATOM     14  C   UNL d   1      57.583   0.419  32.189  0.00  0.00     0.082 C 
ATOM     15  C   UNL d   1      58.071   0.681  32.806  0.00  0.00     0.020 C 
ATOM     16  C   UNL d   1      57.688   0.682  31.414  0.00  0.00     0.020 C 
ENDBRANCH   2  14
TORSDOF 4
ENDMDL
MODEL 8
REMARK VINA RESULT:      -0.2      2.612      4.977
REMARK  4 active torsions:
REMARK  status: ('A' for Active; 'I' for Inactive)
REMARK    1  A    between atoms: N_6  and  C_1 
REMARK    2  A    between atoms: C_7  and  N_2 
REMARK    3  A    between atoms: C_11  and  N_6 
REMARK    4  A    between atoms: C_14  and  C_11 
ROOT
ATOM      1  C   UNL d   1      56.781   0.276  32.860  0.00  0.00     0.735 A 
ATOM      2  N   UNL d   1      56.152   0.211  33.390  0.00  0.00    -0.139 N 
ATOM      3  N   UNL d   1      57.472   0.467  33.316  0.00  0.00    -0.059 NA
ATOM      4  C   UNL d   1      56.418   0.350  34.137  0.00  0.00     0.100 A 
ATOM      5  C   UNL d   1      57.251   0.511  34.090  0.00  0.00     0.116 A 
ATOM      6  C   UNL d   1      56.038   0.359  34.868  0.00  0.00     0.020 A 
ATOM      7  C   UNL d   1      57.622   0.668  34.808  0.00  0.00     0.021 A 
ATOM      8  C   UNL d   1      56.464   0.520  35.528  0.00  0.00     0.002 A 
ATOM      9  C   UNL d   1      57.273   0.676  35.482  0.00  0.00     0.002 A 
ENDROOT
BRANCH   1  10
ATOM     10  N   UNL d   1      56.784   0.182  32.040  0.00  0.00    -0.056 NA
BRANCH  10  11
ATOM     11  C   UNL d   1      57.404   0.469  31.618  0.00  0.00     0.163 C 
BRANCH  11  12
ATOM     12  C   UNL d   1      57.423   0.345  30.802  0.00  0.00     0.255 C 
ATOM     13  O   UNL d   1      58.084   0.611  30.362  0.00  0.00    -0.281 OA
ENDBRANCH  11  12
ENDBRANCH  10  11
ENDBRANCH   1  10
BRANCH   2  14
ATOM     14  C   UNL d   1      55.467   0.032  33.019  0.00  0.00     0.082 C 
ATOM     15  C   UNL d   1      54.924   0.637  32.859  0.00  0.00     0.020 C 
ATOM     16  C   UNL d   1      55.317  -0.751  32.805  0.00  0.00     0.020 C 
ENDBRANCH   2  14
TORSDOF 4
ENDMDL
