MODEL 1
REMARK VINA RESULT:      59.6      0.000      0.000
REMARK  5 active torsions:
REMARK  status: ('A' for Active; 'I' for Inactive)
REMARK    1  A    between atoms: C_7  and  N_1 
REMARK    2  A    between atoms: C_15  and  C_5 
REMARK    3  A    between atoms: C_14  and  C_6 
REMARK    4  A    between atoms: C_8  and  C_7 
REMARK       I    between atoms: N_11  and  C_8 
REMARK    5  A    between atoms: C_13  and  N_11 
ROOT
ATOM      1  N   UNL d   1     -51.609  25.669  34.149  0.00  0.00    -0.235 N 
ATOM      2  C   UNL d   1     -52.250  25.182  33.946  0.00  0.00     0.273 A 
ATOM      3  C   UNL d   1     -50.837  25.444  33.938  0.00  0.00     0.273 A 
ATOM      4  S   UNL d   1     -51.356  24.257  33.329  0.00  0.00    -0.077 SA
ATOM      5  C   UNL d   1     -50.719  24.737  33.528  0.00  0.00     0.086 A 
ATOM      6  C   UNL d   1     -52.117  24.484  33.539  0.00  0.00     0.086 A 
ATOM      7  O   UNL d   1     -50.201  25.928  34.140  0.00  0.00    -0.266 OA
ATOM      8  O   UNL d   1     -53.021  25.403  34.155  0.00  0.00    -0.266 OA
ENDROOT
BRANCH   1   9
ATOM      9  C   UNL d   1     -51.744  26.375  34.560  0.00  0.00     0.148 C 
BRANCH   9  10
ATOM     10  C   UNL d   1     -51.505  26.443  35.346  0.00  0.00     0.297 C 
ATOM     11  N   UNL d   1     -52.043  26.296  35.954  0.00  0.00    -0.207 NA
ATOM     12  O   UNL d   1     -50.725  26.658  35.517  0.00  0.00    -0.264 OA
BRANCH  11  13
ATOM     13  C   UNL d   1     -51.803  26.365  36.741  0.00  0.00     0.085 A 
ATOM     14  C   UNL d   1     -52.238  26.007  37.334  0.00  0.00     0.019 A 
ATOM     15  C   UNL d   1     -51.995  26.078  38.115  0.00  0.00     0.002 A 
ATOM     16  C   UNL d   1     -51.317  26.506  38.310  0.00  0.00     0.000 A 
ATOM     17  C   UNL d   1     -50.879  26.868  37.706  0.00  0.00     0.002 A 
ATOM     18  C   UNL d   1     -51.124  26.794  36.928  0.00  0.00     0.019 A 
ENDBRANCH  11  13
ENDBRANCH   9  10
ENDBRANCH   1   9
BRANCH   6  19
ATOM     19  C   UNL d   1     -52.760  23.995  33.335  0.00  0.00     0.011 C 
ATOM     20  C   UNL d   1     -52.764  23.201  33.561  0.00  0.00     0.001 C 
ENDBRANCH   6  19
BRANCH   5  21
ATOM     21  C   UNL d   1     -49.952  24.515  33.319  0.00  0.00     0.011 C 
ATOM     22  C   UNL d   1     -49.744  23.714  33.307  0.00  0.00     0.001 C 
ENDBRANCH   5  21
TORSDOF 5
ENDMDL
MODEL 2
REMARK VINA RESULT:      59.6      0.523      1.747
REMARK  5 active torsions:
REMARK  status: ('A' for Active; 'I' for Inactive)
REMARK    1  A    between atoms: C_7  and  N_1 
REMARK    2  A    between atoms: C_15  and  C_5 
REMARK    3  A    between atoms: C_14  and  C_6 
REMARK    4  A    between atoms: C_8  and  C_7 
REMARK       I    between atoms: N_11  and  C_8 
REMARK    5  A    between atoms: C_13  and  N_11 
ROOT
ATOM      1  N   UNL d   1     -51.148  25.623  33.892  0.00  0.00    -0.235 N 
ATOM      2  C   UNL d   1     -50.399  25.295  33.744  0.00  0.00     0.273 A 
ATOM      3  C   UNL d   1     -51.831  25.173  33.745  0.00  0.00     0.273 A 
ATOM      4  S   UNL d   1     -51.011  24.083  33.307  0.00  0.00    -0.077 SA
ATOM      5  C   UNL d   1     -51.754  24.404  33.452  0.00  0.00     0.086 A 
ATOM      6  C   UNL d   1     -50.340  24.533  33.455  0.00  0.00     0.086 A 
ATOM      7  O   UNL d   1     -52.575  25.498  33.891  0.00  0.00    -0.266 OA
ATOM      8  O   UNL d   1     -49.716  25.742  33.890  0.00  0.00    -0.266 OA
ENDROOT
BRANCH   1   9
ATOM      9  C   UNL d   1     -51.208  26.395  34.184  0.00  0.00     0.148 C 
BRANCH   9  10
ATOM     10  C   UNL d   1     -51.005  26.552  34.968  0.00  0.00     0.297 C 
ATOM     11  N   UNL d   1     -51.563  26.450  35.566  0.00  0.00    -0.207 NA
ATOM     12  O   UNL d   1     -50.240  26.813  35.146  0.00  0.00    -0.264 OA
BRANCH  11  13
ATOM     13  C   UNL d   1     -51.360  26.608  36.350  0.00  0.00     0.085 A 
ATOM     14  C   UNL d   1     -51.770  26.247  36.960  0.00  0.00     0.019 A 
ATOM     15  C   UNL d   1     -51.563  26.408  37.738  0.00  0.00     0.002 A 
ATOM     16  C   UNL d   1     -50.948  26.929  37.914  0.00  0.00     0.000 A 
ATOM     17  C   UNL d   1     -50.535  27.293  37.293  0.00  0.00     0.002 A 
ATOM     18  C   UNL d   1     -50.744  27.130  36.518  0.00  0.00     0.019 A 
ENDBRANCH  11  13
ENDBRANCH   9  10
ENDBRANCH   1   9
BRANCH   6  19
ATOM     19  C   UNL d   1     -49.588  24.204  33.306  0.00  0.00     0.011 C 
ATOM     20  C   UNL d   1     -49.352  23.517  33.700  0.00  0.00     0.001 C 
ENDBRANCH   6  19
BRANCH   5  21
ATOM     21  C   UNL d   1     -52.434  23.958  33.307  0.00  0.00     0.011 C 
ATOM     22  C   UNL d   1     -52.542  23.234  33.693  0.00  0.00     0.001 C 
ENDBRANCH   5  21
TORSDOF 5
ENDMDL
