MODEL 1
REMARK VINA RESULT:      15.5      0.000      0.000
REMARK  3 active torsions:
REMARK  status: ('A' for Active; 'I' for Inactive)
REMARK    1  A    between atoms: C_3  and  C_5 
REMARK    2  A    between atoms: O_13  and  C_6 
REMARK    3  A    between atoms: O_15  and  C_8 
ROOT
ATOM      1  C   UNL d   1      58.586  49.703  50.464  0.00  0.00     0.021 A 
ATOM      2  C   UNL d   1      57.890  49.700  50.896  0.00  0.00     0.028 A 
ATOM      3  C   UNL d   1      57.163  49.700  50.520  0.00  0.00     0.116 A 
ATOM      4  C   UNL d   1      57.130  49.704  49.696  0.00  0.00     0.116 A 
ATOM      5  C   UNL d   1      58.554  49.706  49.631  0.00  0.00     0.004 A 
ATOM      6  C   UNL d   1      57.825  49.707  49.247  0.00  0.00     0.026 A 
ENDROOT
BRANCH   1   7
ATOM      7  C   UNL d   1      59.314  49.702  50.848  0.00  0.00     0.103 A 
ATOM      8  N   UNL d   1      59.346  49.706  51.672  0.00  0.00    -0.145 NA
ATOM      9  N   UNL d   1      60.075  49.706  52.057  0.00  0.00    -0.106 NA
ATOM     10  C   UNL d   1      60.770  49.702  51.616  0.00  0.00     0.297 A 
ATOM     11  O   UNL d   1      61.507  49.701  52.001  0.00  0.00    -0.264 OA
ATOM     12  C   UNL d   1      60.738  49.698  50.784  0.00  0.00     0.066 A 
ATOM     13  C   UNL d   1      60.010  49.698  50.399  0.00  0.00     0.026 A 
ENDBRANCH   1   7
BRANCH   3  14
ATOM     14  O   UNL d   1      56.466  49.697  50.963  0.00  0.00    -0.326 OA
ATOM     15  C   UNL d   1      56.505  49.707  51.789  0.00  0.00     0.181 C 
ENDBRANCH   3  14
BRANCH   4  16
ATOM     16  O   UNL d   1      56.398  49.704  49.311  0.00  0.00    -0.326 OA
ATOM     17  C   UNL d   1      56.187  49.072  48.828  0.00  0.00     0.181 C 
ENDBRANCH   4  16
TORSDOF 3
ENDMDL
MODEL 2
REMARK VINA RESULT:      17.5      1.254      3.939
REMARK  3 active torsions:
REMARK  status: ('A' for Active; 'I' for Inactive)
REMARK    1  A    between atoms: C_3  and  C_5 
REMARK    2  A    between atoms: O_13  and  C_6 
REMARK    3  A    between atoms: O_15  and  C_8 
ROOT
ATOM      1  C   UNL d   1      58.989  49.693  50.642  0.00  0.00     0.021 A 
ATOM      2  C   UNL d   1      59.679  49.682  50.200  0.00  0.00     0.028 A 
ATOM      3  C   UNL d   1      60.412  49.680  50.564  0.00  0.00     0.116 A 
ATOM      4  C   UNL d   1      60.457  49.689  51.388  0.00  0.00     0.116 A 
ATOM      5  C   UNL d   1      59.035  49.702  51.475  0.00  0.00     0.004 A 
ATOM      6  C   UNL d   1      59.769  49.700  51.847  0.00  0.00     0.026 A 
ENDROOT
BRANCH   1   7
ATOM      7  C   UNL d   1      58.256  49.695  50.270  0.00  0.00     0.103 A 
ATOM      8  N   UNL d   1      58.211  49.692  49.446  0.00  0.00    -0.145 NA
ATOM      9  N   UNL d   1      57.476  49.694  49.073  0.00  0.00    -0.106 NA
ATOM     10  C   UNL d   1      56.788  49.699  49.524  0.00  0.00     0.297 A 
ATOM     11  O   UNL d   1      56.045  49.701  49.151  0.00  0.00    -0.264 OA
ATOM     12  C   UNL d   1      56.833  49.701  50.356  0.00  0.00     0.066 A 
ATOM     13  C   UNL d   1      57.567  49.699  50.729  0.00  0.00     0.026 A 
ENDBRANCH   1   7
BRANCH   3  14
ATOM     14  O   UNL d   1      61.101  49.669  50.110  0.00  0.00    -0.326 OA
ATOM     15  C   UNL d   1      61.050  49.630  49.287  0.00  0.00     0.181 C 
ENDBRANCH   3  14
BRANCH   4  16
ATOM     16  O   UNL d   1      61.195  49.688  51.761  0.00  0.00    -0.326 OA
ATOM     17  C   UNL d   1      61.240  49.681  52.583  0.00  0.00     0.181 C 
ENDBRANCH   4  16
TORSDOF 3
ENDMDL
