MODEL 1
REMARK VINA RESULT:      -9.1      0.000      0.000
REMARK  6 active torsions:
REMARK  status: ('A' for Active; 'I' for Inactive)
REMARK    1  A    between atoms: C_10  and  N_3 
REMARK    2  A    between atoms: C_11  and  N_8 
REMARK    3  A    between atoms: C_12  and  C_11 
REMARK    4  A    between atoms: O_15  and  C_12 
REMARK    5  A    between atoms: C_18  and  O_15 
REMARK    6  A    between atoms: C_22  and  C_18 
ROOT
ATOM      1  C   UNL d   1      52.451  32.846  53.266  0.00  0.00     0.191 A 
ATOM      2  C   UNL d   1      52.727  33.618  53.131  0.00  0.00     0.196 A 
ATOM      3  N   UNL d   1      53.114  32.351  53.318  0.00  0.00    -0.193 N 
ATOM      4  N   UNL d   1      53.777  32.814  53.216  0.00  0.00    -0.058 NA
ATOM      5  N   UNL d   1      53.555  33.583  53.102  0.00  0.00    -0.122 NA
ATOM      6  N   UNL d   1      51.648  32.707  53.322  0.00  0.00    -0.204 NA
ATOM      7  C   UNL d   1      52.193  34.231  53.055  0.00  0.00     0.289 A 
ATOM      8  N   UNL d   1      51.384  34.096  53.111  0.00  0.00    -0.249 N 
ATOM      9  C   UNL d   1      51.107  33.323  53.246  0.00  0.00     0.187 A 
ATOM     10  O   UNL d   1      52.470  35.004  52.920  0.00  0.00    -0.265 OA
ENDROOT
BRANCH   8  11
ATOM     11  C   UNL d   1      50.835  34.714  53.035  0.00  0.00     0.153 C 
BRANCH  11  12
ATOM     12  C   UNL d   1      50.100  34.582  52.672  0.00  0.00     0.318 C 
ATOM     13  O   UNL d   1      50.057  34.126  51.987  0.00  0.00    -0.257 OA
BRANCH  12  14
ATOM     14  O   UNL d   1      49.423  34.908  53.000  0.00  0.00    -0.270 OA
BRANCH  14  15
ATOM     15  C   UNL d   1      48.940  35.402  52.548  0.00  0.00     0.126 C 
BRANCH  15  16
ATOM     16  C   UNL d   1      48.281  35.738  52.883  0.00  0.00     0.025 A 
ATOM     17  C   UNL d   1      47.599  35.843  52.429  0.00  0.00     0.002 A 
ATOM     18  C   UNL d   1      46.924  36.184  52.762  0.00  0.00     0.000 A 
ATOM     19  C   UNL d   1      46.939  36.418  53.552  0.00  0.00     0.000 A 
ATOM     20  C   UNL d   1      47.621  36.313  54.007  0.00  0.00     0.000 A 
ATOM     21  C   UNL d   1      48.289  35.974  53.672  0.00  0.00     0.002 A 
ENDBRANCH  15  16
ENDBRANCH  14  15
ENDBRANCH  12  14
ENDBRANCH  11  12
ENDBRANCH   8  11
BRANCH   3  22
ATOM     22  C   UNL d   1      53.143  31.556  53.444  0.00  0.00     0.086 A 
ATOM     23  C   UNL d   1      52.932  31.023  52.832  0.00  0.00     0.019 A 
ATOM     24  C   UNL d   1      52.965  30.225  52.966  0.00  0.00     0.002 A 
ATOM     25  C   UNL d   1      53.208  29.926  53.714  0.00  0.00     0.000 A 
ATOM     26  C   UNL d   1      53.410  30.449  54.301  0.00  0.00     0.002 A 
ATOM     27  C   UNL d   1      53.243  29.093  53.858  0.00  0.00     0.000 C 
ATOM     28  C   UNL d   1      53.382  31.260  54.177  0.00  0.00     0.019 A 
ENDBRANCH   3  22
TORSDOF 6
ENDMDL
MODEL 2
REMARK VINA RESULT:      -7.6      1.980      6.125
REMARK  6 active torsions:
REMARK  status: ('A' for Active; 'I' for Inactive)
REMARK    1  A    between atoms: C_10  and  N_3 
REMARK    2  A    between atoms: C_11  and  N_8 
REMARK    3  A    between atoms: C_12  and  C_11 
REMARK    4  A    between atoms: O_15  and  C_12 
REMARK    5  A    between atoms: C_18  and  O_15 
REMARK    6  A    between atoms: C_22  and  C_18 
ROOT
ATOM      1  C   UNL d   1      48.866  35.006  52.160  0.00  0.00     0.191 A 
ATOM      2  C   UNL d   1      49.299  34.676  51.530  0.00  0.00     0.196 A 
ATOM      3  N   UNL d   1      48.133  35.247  51.856  0.00  0.00    -0.193 N 
ATOM      4  N   UNL d   1      48.122  35.067  51.061  0.00  0.00    -0.058 NA
ATOM      5  N   UNL d   1      48.823  34.721  50.853  0.00  0.00    -0.122 NA
ATOM      6  N   UNL d   1      49.198  35.039  52.904  0.00  0.00    -0.204 NA
ATOM      7  C   UNL d   1      50.050  34.388  51.664  0.00  0.00     0.289 A 
ATOM      8  N   UNL d   1      50.388  34.419  52.414  0.00  0.00    -0.249 N 
ATOM      9  C   UNL d   1      49.955  34.749  53.043  0.00  0.00     0.187 A 
ATOM     10  O   UNL d   1      50.483  34.058  51.034  0.00  0.00    -0.265 OA
ENDROOT
BRANCH   8  11
ATOM     11  C   UNL d   1      51.152  34.127  52.557  0.00  0.00     0.153 C 
BRANCH  11  12
ATOM     12  C   UNL d   1      51.303  33.652  53.221  0.00  0.00     0.318 C 
ATOM     13  O   UNL d   1      50.733  33.118  53.482  0.00  0.00    -0.257 OA
BRANCH  12  14
ATOM     14  O   UNL d   1      52.021  33.720  53.610  0.00  0.00    -0.270 OA
BRANCH  14  15
ATOM     15  C   UNL d   1      52.506  33.058  53.703  0.00  0.00     0.126 C 
BRANCH  15  16
ATOM     16  C   UNL d   1      53.250  33.143  54.017  0.00  0.00     0.025 A 
ATOM     17  C   UNL d   1      53.900  32.813  53.628  0.00  0.00     0.002 A 
ATOM     18  C   UNL d   1      54.660  32.896  53.941  0.00  0.00     0.000 A 
ATOM     19  C   UNL d   1      54.763  33.312  54.645  0.00  0.00     0.000 A 
ATOM     20  C   UNL d   1      54.113  33.642  55.035  0.00  0.00     0.000 A 
ATOM     21  C   UNL d   1      53.360  33.558  54.721  0.00  0.00     0.002 A 
ENDBRANCH  15  16
ENDBRANCH  14  15
ENDBRANCH  12  14
ENDBRANCH  11  12
ENDBRANCH   8  11
BRANCH   3  22
ATOM     22  C   UNL d   1      47.518  35.598  52.240  0.00  0.00     0.086 A 
ATOM     23  C   UNL d   1      47.614  36.354  52.592  0.00  0.00     0.019 A 
ATOM     24  C   UNL d   1      46.991  36.700  52.976  0.00  0.00     0.002 A 
ATOM     25  C   UNL d   1      46.248  36.308  53.025  0.00  0.00     0.000 A 
ATOM     26  C   UNL d   1      46.163  35.578  52.682  0.00  0.00     0.002 A 
ATOM     27  C   UNL d   1      45.595  36.667  53.425  0.00  0.00     0.000 C 
ATOM     28  C   UNL d   1      46.788  35.216  52.290  0.00  0.00     0.019 A 
ENDBRANCH   3  22
TORSDOF 6
ENDMDL
MODEL 3
REMARK VINA RESULT:      -7.6      1.625      2.183
REMARK  6 active torsions:
REMARK  status: ('A' for Active; 'I' for Inactive)
REMARK    1  A    between atoms: C_10  and  N_3 
REMARK    2  A    between atoms: C_11  and  N_8 
REMARK    3  A    between atoms: C_12  and  C_11 
REMARK    4  A    between atoms: O_15  and  C_12 
REMARK    5  A    between atoms: C_18  and  O_15 
REMARK    6  A    between atoms: C_22  and  C_18 
ROOT
ATOM      1  C   UNL d   1      52.240  33.466  53.518  0.00  0.00     0.191 A 
ATOM      2  C   UNL d   1      51.653  32.981  53.182  0.00  0.00     0.196 A 
ATOM      3  N   UNL d   1      52.861  32.972  53.757  0.00  0.00    -0.193 N 
ATOM      4  N   UNL d   1      52.656  32.206  53.570  0.00  0.00    -0.058 NA
ATOM      5  N   UNL d   1      51.926  32.200  53.222  0.00  0.00    -0.122 NA
ATOM      6  N   UNL d   1      52.124  34.273  53.556  0.00  0.00    -0.204 NA
ATOM      7  C   UNL d   1      50.968  33.317  52.895  0.00  0.00     0.289 A 
ATOM      8  N   UNL d   1      50.847  34.131  52.931  0.00  0.00    -0.249 N 
ATOM      9  C   UNL d   1      51.434  34.615  53.267  0.00  0.00     0.187 A 
ATOM     10  O   UNL d   1      50.381  32.832  52.559  0.00  0.00    -0.265 OA
ENDROOT
BRANCH   8  11
ATOM     11  C   UNL d   1      50.153  34.480  52.641  0.00  0.00     0.153 C 
BRANCH  11  12
ATOM     12  C   UNL d   1      49.717  35.006  53.112  0.00  0.00     0.318 C 
ATOM     13  O   UNL d   1      50.090  35.414  53.724  0.00  0.00    -0.257 OA
BRANCH  12  14
ATOM     14  O   UNL d   1      48.919  35.116  52.963  0.00  0.00    -0.270 OA
BRANCH  14  15
ATOM     15  C   UNL d   1      48.589  35.872  53.005  0.00  0.00     0.126 C 
BRANCH  15  16
ATOM     16  C   UNL d   1      47.802  35.979  52.837  0.00  0.00     0.025 A 
ATOM     17  C   UNL d   1      47.537  35.909  52.057  0.00  0.00     0.002 A 
ATOM     18  C   UNL d   1      46.737  36.017  51.878  0.00  0.00     0.000 A 
ATOM     19  C   UNL d   1      46.208  36.194  52.484  0.00  0.00     0.000 A 
ATOM     20  C   UNL d   1      46.473  36.264  53.264  0.00  0.00     0.000 A 
ATOM     21  C   UNL d   1      47.268  36.157  53.438  0.00  0.00     0.002 A 
ENDBRANCH  15  16
ENDBRANCH  14  15
ENDBRANCH  12  14
ENDBRANCH  11  12
ENDBRANCH   8  11
BRANCH   3  22
ATOM     22  C   UNL d   1      53.558  33.171  54.111  0.00  0.00     0.086 A 
ATOM     23  C   UNL d   1      53.591  33.288  54.941  0.00  0.00     0.019 A 
ATOM     24  C   UNL d   1      54.294  33.487  55.290  0.00  0.00     0.002 A 
ATOM     25  C   UNL d   1      54.991  33.577  54.828  0.00  0.00     0.000 A 
ATOM     26  C   UNL d   1      54.950  33.463  54.026  0.00  0.00     0.002 A 
ATOM     27  C   UNL d   1      55.727  33.785  55.189  0.00  0.00     0.000 C 
ATOM     28  C   UNL d   1      54.243  33.260  53.660  0.00  0.00     0.019 A 
ENDBRANCH   3  22
TORSDOF 6
ENDMDL
MODEL 4
REMARK VINA RESULT:      -7.3      1.455      6.057
REMARK  6 active torsions:
REMARK  status: ('A' for Active; 'I' for Inactive)
REMARK    1  A    between atoms: C_10  and  N_3 
REMARK    2  A    between atoms: C_11  and  N_8 
REMARK    3  A    between atoms: C_12  and  C_11 
REMARK    4  A    between atoms: O_15  and  C_12 
REMARK    5  A    between atoms: C_18  and  O_15 
REMARK    6  A    between atoms: C_22  and  C_18 
ROOT
ATOM      1  C   UNL d   1      49.056  35.074  52.561  0.00  0.00     0.191 A 
ATOM      2  C   UNL d   1      49.260  34.815  51.797  0.00  0.00     0.196 A 
ATOM      3  N   UNL d   1      48.293  35.393  52.518  0.00  0.00    -0.193 N 
ATOM      4  N   UNL d   1      48.039  35.329  51.746  0.00  0.00    -0.058 NA
ATOM      5  N   UNL d   1      48.617  34.980  51.300  0.00  0.00    -0.122 NA
ATOM      6  N   UNL d   1      49.588  34.982  53.173  0.00  0.00    -0.204 NA
ATOM      7  C   UNL d   1      49.989  34.472  51.667  0.00  0.00     0.289 A 
ATOM      8  N   UNL d   1      50.527  34.377  52.283  0.00  0.00    -0.249 N 
ATOM      9  C   UNL d   1      50.324  34.636  53.047  0.00  0.00     0.187 A 
ATOM     10  O   UNL d   1      50.193  34.213  50.903  0.00  0.00    -0.265 OA
ENDROOT
BRANCH   8  11
ATOM     11  C   UNL d   1      51.271  34.029  52.159  0.00  0.00     0.153 C 
BRANCH  11  12
ATOM     12  C   UNL d   1      51.794  33.918  52.793  0.00  0.00     0.318 C 
ATOM     13  O   UNL d   1      52.113  34.572  53.181  0.00  0.00    -0.257 OA
BRANCH  12  14
ATOM     14  O   UNL d   1      51.989  33.158  53.027  0.00  0.00    -0.270 OA
BRANCH  14  15
ATOM     15  C   UNL d   1      52.778  32.910  53.016  0.00  0.00     0.126 C 
BRANCH  15  16
ATOM     16  C   UNL d   1      52.960  32.137  53.185  0.00  0.00     0.025 A 
ATOM     17  C   UNL d   1      53.493  31.965  53.793  0.00  0.00     0.002 A 
ATOM     18  C   UNL d   1      53.684  31.181  53.971  0.00  0.00     0.000 A 
ATOM     19  C   UNL d   1      53.337  30.573  53.536  0.00  0.00     0.000 A 
ATOM     20  C   UNL d   1      52.803  30.745  52.928  0.00  0.00     0.000 A 
ATOM     21  C   UNL d   1      52.617  31.524  52.755  0.00  0.00     0.002 A 
ENDBRANCH  15  16
ENDBRANCH  14  15
ENDBRANCH  12  14
ENDBRANCH  11  12
ENDBRANCH   8  11
BRANCH   3  22
ATOM     22  C   UNL d   1      47.846  35.717  53.106  0.00  0.00     0.086 A 
ATOM     23  C   UNL d   1      48.181  36.283  53.628  0.00  0.00     0.019 A 
ATOM     24  C   UNL d   1      47.726  36.604  54.215  0.00  0.00     0.002 A 
ATOM     25  C   UNL d   1      46.921  36.375  54.307  0.00  0.00     0.000 A 
ATOM     26  C   UNL d   1      46.606  35.827  53.799  0.00  0.00     0.002 A 
ATOM     27  C   UNL d   1      46.443  36.708  54.920  0.00  0.00     0.000 C 
ATOM     28  C   UNL d   1      47.057  35.495  53.198  0.00  0.00     0.019 A 
ENDBRANCH   3  22
TORSDOF 6
ENDMDL
MODEL 5
REMARK VINA RESULT:      -7.1      1.672      5.845
REMARK  6 active torsions:
REMARK  status: ('A' for Active; 'I' for Inactive)
REMARK    1  A    between atoms: C_10  and  N_3 
REMARK    2  A    between atoms: C_11  and  N_8 
REMARK    3  A    between atoms: C_12  and  C_11 
REMARK    4  A    between atoms: O_15  and  C_12 
REMARK    5  A    between atoms: C_18  and  O_15 
REMARK    6  A    between atoms: C_22  and  C_18 
ROOT
ATOM      1  C   UNL d   1      51.793  33.785  52.975  0.00  0.00     0.191 A 
ATOM      2  C   UNL d   1      52.499  33.996  53.359  0.00  0.00     0.196 A 
ATOM      3  N   UNL d   1      51.323  34.466  52.930  0.00  0.00    -0.193 N 
ATOM      4  N   UNL d   1      51.735  35.077  53.280  0.00  0.00    -0.058 NA
ATOM      5  N   UNL d   1      52.449  34.803  53.543  0.00  0.00    -0.122 NA
ATOM      6  N   UNL d   1      51.682  33.016  52.725  0.00  0.00    -0.204 NA
ATOM      7  C   UNL d   1      53.076  33.432  53.484  0.00  0.00     0.289 A 
ATOM      8  N   UNL d   1      52.968  32.655  53.234  0.00  0.00    -0.249 N 
ATOM      9  C   UNL d   1      52.261  32.444  52.849  0.00  0.00     0.187 A 
ATOM     10  O   UNL d   1      53.783  33.643  53.869  0.00  0.00    -0.265 OA
ENDROOT
BRANCH   8  11
ATOM     11  C   UNL d   1      53.549  32.076  53.357  0.00  0.00     0.153 C 
BRANCH  11  12
ATOM     12  C   UNL d   1      53.387  31.277  53.203  0.00  0.00     0.318 C 
ATOM     13  O   UNL d   1      53.210  31.035  52.435  0.00  0.00    -0.257 OA
BRANCH  12  14
ATOM     14  O   UNL d   1      53.404  30.735  53.818  0.00  0.00    -0.270 OA
BRANCH  14  15
ATOM     15  C   UNL d   1      53.302  29.930  53.663  0.00  0.00     0.126 C 
BRANCH  15  16
ATOM     16  C   UNL d   1      53.349  29.394  54.271  0.00  0.00     0.025 A 
ATOM     17  C   UNL d   1      53.714  28.663  54.147  0.00  0.00     0.002 A 
ATOM     18  C   UNL d   1      53.765  28.112  54.761  0.00  0.00     0.000 A 
ATOM     19  C   UNL d   1      53.448  28.300  55.498  0.00  0.00     0.000 A 
ATOM     20  C   UNL d   1      53.082  29.031  55.623  0.00  0.00     0.000 A 
ATOM     21  C   UNL d   1      53.034  29.575  55.011  0.00  0.00     0.002 A 
ENDBRANCH  15  16
ENDBRANCH  14  15
ENDBRANCH  12  14
ENDBRANCH  11  12
ENDBRANCH   8  11
BRANCH   3  22
ATOM     22  C   UNL d   1      50.588  34.555  52.609  0.00  0.00     0.086 A 
ATOM     23  C   UNL d   1      49.939  34.770  53.094  0.00  0.00     0.019 A 
ATOM     24  C   UNL d   1      49.204  34.856  52.764  0.00  0.00     0.002 A 
ATOM     25  C   UNL d   1      49.087  34.732  51.940  0.00  0.00     0.000 A 
ATOM     26  C   UNL d   1      49.721  34.524  51.479  0.00  0.00     0.002 A 
ATOM     27  C   UNL d   1      48.322  34.822  51.593  0.00  0.00     0.000 C 
ATOM     28  C   UNL d   1      50.471  34.434  51.801  0.00  0.00     0.019 A 
ENDBRANCH   3  22
TORSDOF 6
ENDMDL
MODEL 6
REMARK VINA RESULT:      -6.4      2.202      6.475
REMARK  6 active torsions:
REMARK  status: ('A' for Active; 'I' for Inactive)
REMARK    1  A    between atoms: C_10  and  N_3 
REMARK    2  A    between atoms: C_11  and  N_8 
REMARK    3  A    between atoms: C_12  and  C_11 
REMARK    4  A    between atoms: O_15  and  C_12 
REMARK    5  A    between atoms: C_18  and  O_15 
REMARK    6  A    between atoms: C_22  and  C_18 
ROOT
ATOM      1  C   UNL d   1      47.638  35.657  52.644  0.00  0.00     0.191 A 
ATOM      2  C   UNL d   1      48.070  36.008  53.262  0.00  0.00     0.196 A 
ATOM      3  N   UNL d   1      46.874  35.976  52.663  0.00  0.00    -0.193 N 
ATOM      4  N   UNL d   1      46.842  36.509  53.280  0.00  0.00    -0.058 NA
ATOM      5  N   UNL d   1      47.562  36.536  53.649  0.00  0.00    -0.122 NA
ATOM      6  N   UNL d   1      47.999  35.106  52.161  0.00  0.00    -0.204 NA
ATOM      7  C   UNL d   1      48.849  35.799  53.380  0.00  0.00     0.289 A 
ATOM      8  N   UNL d   1      49.217  35.244  52.896  0.00  0.00    -0.249 N 
ATOM      9  C   UNL d   1      48.785  34.893  52.278  0.00  0.00     0.187 A 
ATOM     10  O   UNL d   1      49.281  36.150  53.999  0.00  0.00    -0.265 OA
ENDROOT
BRANCH   8  11
ATOM     11  C   UNL d   1      50.009  35.026  53.010  0.00  0.00     0.153 C 
BRANCH  11  12
ATOM     12  C   UNL d   1      50.346  34.413  52.563  0.00  0.00     0.318 C 
ATOM     13  O   UNL d   1      50.113  34.301  51.780  0.00  0.00    -0.257 OA
BRANCH  12  14
ATOM     14  O   UNL d   1      50.908  33.925  52.905  0.00  0.00    -0.270 OA
BRANCH  14  15
ATOM     15  C   UNL d   1      51.673  33.891  52.593  0.00  0.00     0.126 C 
BRANCH  15  16
ATOM     16  C   UNL d   1      52.253  33.488  52.992  0.00  0.00     0.025 A 
ATOM     17  C   UNL d   1      52.759  33.897  53.503  0.00  0.00     0.002 A 
ATOM     18  C   UNL d   1      53.352  33.494  53.914  0.00  0.00     0.000 A 
ATOM     19  C   UNL d   1      53.435  32.681  53.808  0.00  0.00     0.000 A 
ATOM     20  C   UNL d   1      52.929  32.271  53.297  0.00  0.00     0.000 A 
ATOM     21  C   UNL d   1      52.342  32.675  52.892  0.00  0.00     0.002 A 
ENDBRANCH  15  16
ENDBRANCH  14  15
ENDBRANCH  12  14
ENDBRANCH  11  12
ENDBRANCH   8  11
BRANCH   3  22
ATOM     22  C   UNL d   1      46.247  35.818  52.182  0.00  0.00     0.086 A 
ATOM     23  C   UNL d   1      45.600  35.366  52.466  0.00  0.00     0.019 A 
ATOM     24  C   UNL d   1      44.974  35.211  51.976  0.00  0.00     0.002 A 
ATOM     25  C   UNL d   1      44.966  35.500  51.186  0.00  0.00     0.000 A 
ATOM     26  C   UNL d   1      45.596  35.937  50.920  0.00  0.00     0.002 A 
ATOM     27  C   UNL d   1      44.314  35.341  50.672  0.00  0.00     0.000 C 
ATOM     28  C   UNL d   1      46.237  36.101  51.407  0.00  0.00     0.019 A 
ENDBRANCH   3  22
TORSDOF 6
ENDMDL
MODEL 7
REMARK VINA RESULT:      -6.2      2.510      6.341
REMARK  6 active torsions:
REMARK  status: ('A' for Active; 'I' for Inactive)
REMARK    1  A    between atoms: C_10  and  N_3 
REMARK    2  A    between atoms: C_11  and  N_8 
REMARK    3  A    between atoms: C_12  and  C_11 
REMARK    4  A    between atoms: O_15  and  C_12 
REMARK    5  A    between atoms: C_18  and  O_15 
REMARK    6  A    between atoms: C_22  and  C_18 
ROOT
ATOM      1  C   UNL d   1      47.720  35.571  52.819  0.00  0.00     0.191 A 
ATOM      2  C   UNL d   1      47.916  35.482  52.015  0.00  0.00     0.196 A 
ATOM      3  N   UNL d   1      46.940  35.847  52.854  0.00  0.00    -0.193 N 
ATOM      4  N   UNL d   1      46.668  35.923  52.089  0.00  0.00    -0.058 NA
ATOM      5  N   UNL d   1      47.252  35.705  51.573  0.00  0.00    -0.122 NA
ATOM      6  N   UNL d   1      48.273  35.391  53.392  0.00  0.00    -0.204 NA
ATOM      7  C   UNL d   1      48.659  35.215  51.808  0.00  0.00     0.289 A 
ATOM      8  N   UNL d   1      49.218  35.032  52.382  0.00  0.00    -0.249 N 
ATOM      9  C   UNL d   1      49.023  35.121  53.186  0.00  0.00     0.187 A 
ATOM     10  O   UNL d   1      48.854  35.125  51.004  0.00  0.00    -0.265 OA
ENDROOT
BRANCH   8  11
ATOM     11  C   UNL d   1      49.976  34.760  52.179  0.00  0.00     0.153 C 
BRANCH  11  12
ATOM     12  C   UNL d   1      50.394  34.256  52.690  0.00  0.00     0.318 C 
ATOM     13  O   UNL d   1      50.125  33.488  52.819  0.00  0.00    -0.257 OA
BRANCH  12  14
ATOM     14  O   UNL d   1      51.071  34.530  53.061  0.00  0.00    -0.270 OA
BRANCH  14  15
ATOM     15  C   UNL d   1      51.801  34.175  52.905  0.00  0.00     0.126 C 
BRANCH  15  16
ATOM     16  C   UNL d   1      52.410  34.255  53.436  0.00  0.00     0.025 A 
ATOM     17  C   UNL d   1      52.777  33.582  53.744  0.00  0.00     0.002 A 
ATOM     18  C   UNL d   1      53.397  33.654  54.285  0.00  0.00     0.000 A 
ATOM     19  C   UNL d   1      53.645  34.406  54.514  0.00  0.00     0.000 A 
ATOM     20  C   UNL d   1      53.279  35.080  54.207  0.00  0.00     0.000 A 
ATOM     21  C   UNL d   1      52.663  35.003  53.670  0.00  0.00     0.002 A 
ENDBRANCH  15  16
ENDBRANCH  14  15
ENDBRANCH  12  14
ENDBRANCH  11  12
ENDBRANCH   8  11
BRANCH   3  22
ATOM     22  C   UNL d   1      46.493  36.021  53.502  0.00  0.00     0.086 A 
ATOM     23  C   UNL d   1      46.788  36.538  54.092  0.00  0.00     0.019 A 
ATOM     24  C   UNL d   1      46.334  36.708  54.740  0.00  0.00     0.002 A 
ATOM     25  C   UNL d   1      45.568  36.370  54.827  0.00  0.00     0.000 A 
ATOM     26  C   UNL d   1      45.290  35.871  54.251  0.00  0.00     0.002 A 
ATOM     27  C   UNL d   1      45.090  36.545  55.502  0.00  0.00     0.000 C 
ATOM     28  C   UNL d   1      45.741  35.691  53.589  0.00  0.00     0.019 A 
ENDBRANCH   3  22
TORSDOF 6
ENDMDL
MODEL 8
REMARK VINA RESULT:      -6.1      1.856      6.221
REMARK  6 active torsions:
REMARK  status: ('A' for Active; 'I' for Inactive)
REMARK    1  A    between atoms: C_10  and  N_3 
REMARK    2  A    between atoms: C_11  and  N_8 
REMARK    3  A    between atoms: C_12  and  C_11 
REMARK    4  A    between atoms: O_15  and  C_12 
REMARK    5  A    between atoms: C_18  and  O_15 
REMARK    6  A    between atoms: C_22  and  C_18 
ROOT
ATOM      1  C   UNL d   1      48.399  35.410  52.680  0.00  0.00     0.191 A 
ATOM      2  C   UNL d   1      48.852  35.721  53.304  0.00  0.00     0.196 A 
ATOM      3  N   UNL d   1      47.673  35.810  52.679  0.00  0.00    -0.193 N 
ATOM      4  N   UNL d   1      47.685  36.350  53.289  0.00  0.00    -0.058 NA
ATOM      5  N   UNL d   1      48.395  36.305  53.674  0.00  0.00    -0.122 NA
ATOM      6  N   UNL d   1      48.709  34.818  52.211  0.00  0.00    -0.204 NA
ATOM      7  C   UNL d   1      49.602  35.431  53.442  0.00  0.00     0.289 A 
ATOM      8  N   UNL d   1      49.918  34.835  52.972  0.00  0.00    -0.249 N 
ATOM      9  C   UNL d   1      49.465  34.524  52.347  0.00  0.00     0.187 A 
ATOM     10  O   UNL d   1      50.056  35.742  54.067  0.00  0.00    -0.265 OA
ENDROOT
BRANCH   8  11
ATOM     11  C   UNL d   1      50.680  34.535  53.106  0.00  0.00     0.153 C 
BRANCH  11  12
ATOM     12  C   UNL d   1      51.041  34.037  52.548  0.00  0.00     0.318 C 
ATOM     13  O   UNL d   1      50.983  34.212  51.745  0.00  0.00    -0.257 OA
BRANCH  12  14
ATOM     14  O   UNL d   1      51.453  33.376  52.803  0.00  0.00    -0.270 OA
BRANCH  14  15
ATOM     15  C   UNL d   1      52.260  33.302  52.638  0.00  0.00     0.126 C 
BRANCH  15  16
ATOM     16  C   UNL d   1      52.691  32.715  52.997  0.00  0.00     0.025 A 
ATOM     17  C   UNL d   1      53.334  32.914  53.477  0.00  0.00     0.002 A 
ATOM     18  C   UNL d   1      53.778  32.323  53.846  0.00  0.00     0.000 A 
ATOM     19  C   UNL d   1      53.574  31.533  53.729  0.00  0.00     0.000 A 
ATOM     20  C   UNL d   1      52.931  31.333  53.249  0.00  0.00     0.000 A 
ATOM     21  C   UNL d   1      52.493  31.923  52.885  0.00  0.00     0.002 A 
ENDBRANCH  15  16
ENDBRANCH  14  15
ENDBRANCH  12  14
ENDBRANCH  11  12
ENDBRANCH   8  11
BRANCH   3  22
ATOM     22  C   UNL d   1      47.043  35.713  52.185  0.00  0.00     0.086 A 
ATOM     23  C   UNL d   1      47.121  35.869  51.365  0.00  0.00     0.019 A 
ATOM     24  C   UNL d   1      46.484  35.770  50.875  0.00  0.00     0.002 A 
ATOM     25  C   UNL d   1      45.744  35.513  51.182  0.00  0.00     0.000 A 
ATOM     26  C   UNL d   1      45.677  35.365  51.977  0.00  0.00     0.002 A 
ATOM     27  C   UNL d   1      45.076  35.408  50.674  0.00  0.00     0.000 C 
ATOM     28  C   UNL d   1      46.316  35.461  52.484  0.00  0.00     0.019 A 
ENDBRANCH   3  22
TORSDOF 6
ENDMDL
