MODEL 1
REMARK VINA RESULT:     119.6      0.000      0.000
REMARK  11 active torsions:
REMARK  status: ('A' for Active; 'I' for Inactive)
REMARK    1  A    between atoms: N_5  and  S_1 
REMARK    2  A    between atoms: C_8  and  S_1 
REMARK    3  A    between atoms: C_2  and  N_10 
REMARK    4  A    between atoms: C_9  and  N_5 
REMARK    5  A    between atoms: C_18  and  N_5 
REMARK    6  A    between atoms: C_13  and  C_9 
REMARK    7  A    between atoms: N_10  and  O_14 
REMARK    8  A    between atoms: C_17  and  C_13 
REMARK    9  A    between atoms: O_14  and  C_17 
REMARK   10  A    between atoms: C_27  and  C_18 
REMARK   11  A    between atoms: C_29  and  C_27 
ROOT
ATOM      1  C   UNL d   1     -55.478-101.019 -43.714  0.00  0.00     0.240 C 
ATOM      2  O   UNL d   1     -54.785-101.086 -44.156  0.00  0.00    -0.283 OA
ENDROOT
BRANCH   1   3
ATOM      3  C   UNL d   1     -55.270-100.219 -43.643  0.00  0.00     0.136 C 
BRANCH   3   4
ATOM      4  N   UNL d   1     -55.509 -99.689 -44.231  0.00  0.00    -0.226 N 
BRANCH   4   5
ATOM      5  S   UNL d   1     -56.315 -99.535 -44.349  0.00  0.00     0.271 S 
ATOM      6  O   UNL d   1     -56.063 -99.720 -45.116  0.00  0.00    -0.200 OA
ATOM      7  O   UNL d   1     -56.758 -99.326 -43.687  0.00  0.00    -0.200 OA
BRANCH   5   8
ATOM      8  C   UNL d   1     -57.101 -99.342 -44.215  0.00  0.00     0.104 A 
ATOM      9  C   UNL d   1     -57.639 -99.352 -44.839  0.00  0.00     0.013 A 
ATOM     10  C   UNL d   1     -58.432 -99.157 -44.701  0.00  0.00     0.001 A 
ATOM     11  C   UNL d   1     -58.681 -98.953 -43.938  0.00  0.00     0.000 A 
ATOM     12  C   UNL d   1     -58.095 -98.959 -43.346  0.00  0.00     0.001 A 
ATOM     13  C   UNL d   1     -59.466 -98.755 -43.776  0.00  0.00     0.000 C 
ATOM     14  C   UNL d   1     -57.304 -99.145 -43.441  0.00  0.00     0.013 A 
ENDBRANCH   5   8
ENDBRANCH   4   5
BRANCH   4  15
ATOM     15  C   UNL d   1     -55.087 -99.241 -44.772  0.00  0.00     0.095 C 
BRANCH  15  16
ATOM     16  C   UNL d   1     -55.278 -99.281 -45.576  0.00  0.00     0.065 C 
BRANCH  16  17
ATOM     17  C   UNL d   1     -54.901 -99.836 -46.063  0.00  0.00     0.236 C 
ATOM     18  O   UNL d   1     -55.082 -99.873 -46.861  0.00  0.00    -0.283 OA
ENDBRANCH  16  17
ENDBRANCH  15  16
ENDBRANCH   4  15
ENDBRANCH   3   4
ENDBRANCH   1   3
BRANCH   1  19
ATOM     19  C   UNL d   1     -55.952-101.673 -43.586  0.00  0.00     0.193 C 
BRANCH  19  20
ATOM     20  O   UNL d   1     -55.606-102.411 -43.458  0.00  0.00    -0.206 OA
BRANCH  20  21
ATOM     21  N   UNL d   1     -55.292-102.599 -42.713  0.00  0.00    -0.126 NA
BRANCH  21  22
ATOM     22  C   UNL d   1     -55.784-102.624 -42.052  0.00  0.00     0.108 A 
ATOM     23  C   UNL d   1     -56.611-102.595 -42.060  0.00  0.00     0.020 A 
ATOM     24  C   UNL d   1     -56.867-102.636 -41.276  0.00  0.00     0.002 A 
ATOM     25  C   UNL d   1     -57.149-102.539 -42.670  0.00  0.00     0.002 A 
ATOM     26  C   UNL d   1     -57.678-102.619 -41.114  0.00  0.00     0.000 A 
ATOM     27  C   UNL d   1     -56.217-102.689 -40.784  0.00  0.00     0.002 A 
ATOM     28  C   UNL d   1     -58.219-102.562 -41.727  0.00  0.00     0.000 A 
ATOM     29  C   UNL d   1     -57.954-102.522 -42.504  0.00  0.00     0.000 A 
ATOM     30  C   UNL d   1     -55.544-102.682 -41.259  0.00  0.00     0.020 A 
ATOM     31  C   UNL d   1     -56.140-102.742 -39.970  0.00  0.00     0.000 A 
ATOM     32  C   UNL d   1     -54.795-102.728 -40.924  0.00  0.00     0.002 A 
ATOM     33  C   UNL d   1     -54.714-102.782 -40.107  0.00  0.00     0.000 A 
ATOM     34  C   UNL d   1     -55.394-102.789 -39.630  0.00  0.00     0.000 A 
ENDBRANCH  21  22
ENDBRANCH  20  21
ENDBRANCH  19  20
ENDBRANCH   1  19
TORSDOF 11
ENDMDL
