MODEL 1
REMARK VINA RESULT:      44.0      0.000      0.000
REMARK  4 active torsions:
REMARK  status: ('A' for Active; 'I' for Inactive)
REMARK    1  A    between atoms: S_2  and  N_1 
REMARK    2  A    between atoms: C_7  and  S_2 
REMARK    3  A    between atoms: C_10  and  C_3 
REMARK    4  A    between atoms: C_14  and  C_10 
ROOT
ATOM      1  N   UNL d   1      46.196 -18.270  43.107  0.00  0.00    -0.214 N 
ATOM      2  C   UNL d   1      46.227 -17.607  43.610  0.00  0.00     0.157 A 
ATOM      3  N   UNL d   1      46.348 -17.890  44.378  0.00  0.00    -0.226 NA
ATOM      4  C   UNL d   1      46.298 -18.948  43.569  0.00  0.00     0.094 A 
ATOM      5  C   UNL d   1      46.392 -18.722  44.356  0.00  0.00     0.100 A 
ATOM      6  C   UNL d   1      46.318 -19.754  43.368  0.00  0.00     0.020 A 
ATOM      7  C   UNL d   1      46.507 -19.292  44.954  0.00  0.00     0.021 A 
ATOM      8  C   UNL d   1      46.431 -20.330  43.961  0.00  0.00     0.002 A 
ATOM      9  C   UNL d   1      46.524 -20.079  44.748  0.00  0.00     0.002 A 
ENDROOT
BRANCH   1  10
ATOM     10  S   UNL d   1      46.083 -18.231  42.291  0.00  0.00     0.272 S 
ATOM     11  O   UNL d   1      45.527 -18.840  42.363  0.00  0.00    -0.200 OA
ATOM     12  O   UNL d   1      46.636 -17.626  42.223  0.00  0.00    -0.200 OA
BRANCH  10  13
ATOM     13  C   UNL d   1      45.962 -18.201  41.477  0.00  0.00     0.104 A 
ATOM     14  C   UNL d   1      46.618 -18.185  40.976  0.00  0.00     0.013 A 
ATOM     15  C   UNL d   1      46.499 -18.155  40.159  0.00  0.00     0.007 A 
ATOM     16  C   UNL d   1      45.744 -18.141  39.867  0.00  0.00     0.035 A 
ATOM     17  C   UNL d   1      45.095 -18.156  40.360  0.00  0.00     0.007 A 
ATOM     18 BR   UNL d   1      45.621 -18.110  39.031  0.00  0.00    -0.049 Br
ATOM     19  C   UNL d   1      45.211 -18.186  41.171  0.00  0.00     0.013 A 
ENDBRANCH  10  13
ENDBRANCH   1  10
BRANCH   2  20
ATOM     20  C   UNL d   1      46.148 -16.802  43.374  0.00  0.00     0.038 C 
BRANCH  20  21
ATOM     21  C   UNL d   1      45.854 -16.239  43.900  0.00  0.00     0.003 A 
ATOM     22  C   UNL d   1      46.274 -15.530  44.031  0.00  0.00     0.000 A 
ATOM     23  C   UNL d   1      45.982 -14.969  44.554  0.00  0.00     0.000 A 
ATOM     24  C   UNL d   1      45.275 -15.098  44.955  0.00  0.00     0.000 A 
ATOM     25  C   UNL d   1      44.858 -15.803  44.824  0.00  0.00     0.000 A 
ATOM     26  C   UNL d   1      45.146 -16.369  44.300  0.00  0.00     0.000 A 
ENDBRANCH  20  21
ENDBRANCH   2  20
TORSDOF 4
ENDMDL
