MODEL 1
REMARK VINA RESULT:      -3.3      0.000      0.000
REMARK  4 active torsions:
REMARK  status: ('A' for Active; 'I' for Inactive)
REMARK    1  A    between atoms: N_2  and  S_1 
REMARK    2  A    between atoms: C_3  and  S_1 
REMARK    3  A    between atoms: C_11  and  N_2 
REMARK    4  A    between atoms: C_6  and  C_7 
ROOT
ATOM      1  S   UNL d   1      30.914  16.142 -24.004  0.00  0.00     0.285 S 
ATOM      2  O   UNL d   1      30.720  16.487 -24.725  0.00  0.00    -0.198 OA
ATOM      3  O   UNL d   1      31.098  15.788 -23.267  0.00  0.00    -0.198 OA
ENDROOT
BRANCH   1   4
ATOM      4  N   UNL d   1      31.705  16.309 -24.126  0.00  0.00    -0.158 NA
BRANCH   4   5
ATOM      5  C   UNL d   1      32.028  17.013 -23.852  0.00  0.00     0.094 A 
ATOM      6  C   UNL d   1      32.547  16.972 -23.209  0.00  0.00     0.020 A 
ATOM      7  C   UNL d   1      32.883  17.683 -22.920  0.00  0.00     0.005 A 
ATOM      8  C   UNL d   1      32.693  18.402 -23.278  0.00  0.00     0.039 A 
ATOM      9  C   UNL d   1      32.178  18.440 -23.917  0.00  0.00     0.005 A 
ATOM     10  C   UNL d   1      31.846  17.743 -24.203  0.00  0.00     0.020 A 
BRANCH   8  11
ATOM     11  C   UNL d   1      33.035  19.112 -22.983  0.00  0.00     0.196 C 
ATOM     12  O   UNL d   1      33.152  19.187 -22.170  0.00  0.00    -0.287 OA
ATOM     13  C   UNL d   1      33.241  19.707 -23.515  0.00  0.00     0.045 C 
ENDBRANCH   8  11
ENDBRANCH   4   5
ENDBRANCH   1   4
BRANCH   1  14
ATOM     14  C   UNL d   1      30.078  15.963 -23.869  0.00  0.00     0.105 A 
ATOM     15  C   UNL d   1      29.542  16.132 -24.458  0.00  0.00     0.015 A 
ATOM     16  C   UNL d   1      28.738  15.969 -24.350  0.00  0.00     0.022 A 
ATOM     17  C   UNL d   1      28.486  15.637 -23.648  0.00  0.00     0.103 A 
ATOM     18  C   UNL d   1      29.040  15.460 -23.037  0.00  0.00     0.022 A 
ATOM     19  N   UNL d   1      27.660  15.469 -23.537  0.00  0.00    -0.148 N 
ATOM     20  C   UNL d   1      29.841  15.636 -23.177  0.00  0.00     0.015 A 
ENDBRANCH   1  14
TORSDOF 4
ENDMDL
MODEL 2
REMARK VINA RESULT:      -3.2      2.022      4.564
REMARK  4 active torsions:
REMARK  status: ('A' for Active; 'I' for Inactive)
REMARK    1  A    between atoms: N_2  and  S_1 
REMARK    2  A    between atoms: C_3  and  S_1 
REMARK    3  A    between atoms: C_11  and  N_2 
REMARK    4  A    between atoms: C_6  and  C_7 
ROOT
ATOM      1  S   UNL d   1      33.189  18.704 -23.093  0.00  0.00     0.285 S 
ATOM      2  O   UNL d   1      33.139  18.209 -22.437  0.00  0.00    -0.198 OA
ATOM      3  O   UNL d   1      33.239  19.219 -23.751  0.00  0.00    -0.198 OA
ENDROOT
BRANCH   1   4
ATOM      4  N   UNL d   1      33.177  18.058 -23.593  0.00  0.00    -0.158 NA
BRANCH   4   5
ATOM      5  C   UNL d   1      32.464  17.701 -23.794  0.00  0.00     0.094 A 
ATOM      6  C   UNL d   1      32.278  16.983 -23.425  0.00  0.00     0.020 A 
ATOM      7  C   UNL d   1      31.554  16.609 -23.621  0.00  0.00     0.005 A 
ATOM      8  C   UNL d   1      31.047  16.958 -24.170  0.00  0.00     0.039 A 
ATOM      9  C   UNL d   1      31.234  17.670 -24.535  0.00  0.00     0.005 A 
ATOM     10  C   UNL d   1      31.945  18.040 -24.344  0.00  0.00     0.020 A 
BRANCH   8  11
ATOM     11  C   UNL d   1      30.322  16.575 -24.361  0.00  0.00     0.196 C 
ATOM     12  O   UNL d   1      29.620  16.883 -24.059  0.00  0.00    -0.287 OA
ATOM     13  C   UNL d   1      30.339  15.907 -24.844  0.00  0.00     0.045 C 
ENDBRANCH   8  11
ENDBRANCH   4   5
ENDBRANCH   1   4
BRANCH   1  14
ATOM     14  C   UNL d   1      33.202  19.392 -22.567  0.00  0.00     0.105 A 
ATOM     15  C   UNL d   1      33.192  20.136 -22.897  0.00  0.00     0.015 A 
ATOM     16  C   UNL d   1      33.204  20.807 -22.413  0.00  0.00     0.022 A 
ATOM     17  C   UNL d   1      33.225  20.717 -21.602  0.00  0.00     0.103 A 
ATOM     18  C   UNL d   1      33.236  19.946 -21.258  0.00  0.00     0.022 A 
ATOM     19  N   UNL d   1      33.238  21.406 -21.104  0.00  0.00    -0.148 N 
ATOM     20  C   UNL d   1      33.223  19.293 -21.772  0.00  0.00     0.015 A 
ENDBRANCH   1  14
TORSDOF 4
ENDMDL
MODEL 3
REMARK VINA RESULT:      -3.1      1.474      2.190
REMARK  4 active torsions:
REMARK  status: ('A' for Active; 'I' for Inactive)
REMARK    1  A    between atoms: N_2  and  S_1 
REMARK    2  A    between atoms: C_3  and  S_1 
REMARK    3  A    between atoms: C_11  and  N_2 
REMARK    4  A    between atoms: C_6  and  C_7 
ROOT
ATOM      1  S   UNL d   1      32.357  17.644 -23.875  0.00  0.00     0.285 S 
ATOM      2  O   UNL d   1      32.602  17.096 -23.312  0.00  0.00    -0.198 OA
ATOM      3  O   UNL d   1      32.095  18.194 -24.450  0.00  0.00    -0.198 OA
ENDROOT
BRANCH   1   4
ATOM      4  N   UNL d   1      33.043  18.074 -23.768  0.00  0.00    -0.158 NA
BRANCH   4   5
ATOM      5  C   UNL d   1      33.064  18.697 -23.232  0.00  0.00     0.094 A 
ATOM      6  C   UNL d   1      32.920  19.458 -23.523  0.00  0.00     0.020 A 
ATOM      7  C   UNL d   1      32.938  20.101 -22.986  0.00  0.00     0.005 A 
ATOM      8  C   UNL d   1      33.098  19.966 -22.188  0.00  0.00     0.039 A 
ATOM      9  C   UNL d   1      33.241  19.209 -21.902  0.00  0.00     0.005 A 
ATOM     10  C   UNL d   1      33.223  18.575 -22.427  0.00  0.00     0.020 A 
BRANCH   8  11
ATOM     11  C   UNL d   1      33.114  20.618 -21.655  0.00  0.00     0.196 C 
ATOM     12  O   UNL d   1      33.003  20.474 -20.851  0.00  0.00    -0.287 OA
ATOM     13  C   UNL d   1      33.241  21.375 -21.955  0.00  0.00     0.045 C 
ENDBRANCH   8  11
ENDBRANCH   4   5
ENDBRANCH   1   4
BRANCH   1  14
ATOM     14  C   UNL d   1      31.628  17.191 -23.992  0.00  0.00     0.105 A 
ATOM     15  C   UNL d   1      31.093  17.448 -24.549  0.00  0.00     0.015 A 
ATOM     16  C   UNL d   1      30.391  17.031 -24.676  0.00  0.00     0.022 A 
ATOM     17  C   UNL d   1      30.237  16.358 -24.239  0.00  0.00     0.103 A 
ATOM     18  C   UNL d   1      30.790  16.091 -23.662  0.00  0.00     0.022 A 
ATOM     19  N   UNL d   1      29.515  15.930 -24.370  0.00  0.00    -0.148 N 
ATOM     20  C   UNL d   1      31.487  16.533 -23.557  0.00  0.00     0.015 A 
ENDBRANCH   1  14
TORSDOF 4
ENDMDL
MODEL 4
REMARK VINA RESULT:      -2.3      2.701      5.048
REMARK  4 active torsions:
REMARK  status: ('A' for Active; 'I' for Inactive)
REMARK    1  A    between atoms: N_2  and  S_1 
REMARK    2  A    between atoms: C_3  and  S_1 
REMARK    3  A    between atoms: C_11  and  N_2 
REMARK    4  A    between atoms: C_6  and  C_7 
ROOT
ATOM      1  S   UNL d   1      33.025  19.914 -22.258  0.00  0.00     0.285 S 
ATOM      2  O   UNL d   1      32.816  19.567 -21.542  0.00  0.00    -0.198 OA
ATOM      3  O   UNL d   1      33.234  20.282 -22.982  0.00  0.00    -0.198 OA
ENDROOT
BRANCH   1   4
ATOM      4  N   UNL d   1      33.241  19.186 -22.559  0.00  0.00    -0.158 NA
BRANCH   4   5
ATOM      5  C   UNL d   1      32.761  18.804 -23.106  0.00  0.00     0.094 A 
ATOM      6  C   UNL d   1      32.879  18.977 -23.907  0.00  0.00     0.020 A 
ATOM      7  C   UNL d   1      32.395  18.594 -24.474  0.00  0.00     0.005 A 
ATOM      8  C   UNL d   1      31.818  18.058 -24.227  0.00  0.00     0.039 A 
ATOM      9  C   UNL d   1      31.703  17.888 -23.431  0.00  0.00     0.005 A 
ATOM     10  C   UNL d   1      32.177  18.263 -22.872  0.00  0.00     0.020 A 
BRANCH   8  11
ATOM     11  C   UNL d   1      31.337  17.677 -24.803  0.00  0.00     0.196 C 
ATOM     12  O   UNL d   1      31.574  16.944 -25.096  0.00  0.00    -0.287 OA
ATOM     13  C   UNL d   1      30.645  18.049 -25.054  0.00  0.00     0.045 C 
ENDBRANCH   8  11
ENDBRANCH   4   5
ENDBRANCH   1   4
BRANCH   1  14
ATOM     14  C   UNL d   1      32.798  20.689 -21.944  0.00  0.00     0.105 A 
ATOM     15  C   UNL d   1      32.361  20.719 -21.258  0.00  0.00     0.015 A 
ATOM     16  C   UNL d   1      32.133  21.448 -20.940  0.00  0.00     0.022 A 
ATOM     17  C   UNL d   1      32.350  22.138 -21.320  0.00  0.00     0.103 A 
ATOM     18  C   UNL d   1      32.803  22.108 -22.031  0.00  0.00     0.022 A 
ATOM     19  N   UNL d   1      32.117  22.887 -20.993  0.00  0.00    -0.148 N 
ATOM     20  C   UNL d   1      33.016  21.359 -22.324  0.00  0.00     0.015 A 
ENDBRANCH   1  14
TORSDOF 4
ENDMDL
