MODEL 1
REMARK VINA RESULT:      23.4      0.000      0.000
REMARK  2 active torsions:
REMARK  status: ('A' for Active; 'I' for Inactive)
REMARK       I    between atoms: C_2  and  N_1 
REMARK       I    between atoms: C_3  and  N_1 
REMARK       I    between atoms: N_4  and  C_2 
REMARK    1  A    between atoms: C_9  and  C_3 
REMARK    2  A    between atoms: C_5  and  N_4 
ROOT
ATOM      1  N   UNL d   1      13.513  11.934  -2.793  0.00  0.00    -0.140 NA
ATOM      2  C   UNL d   1      13.208  12.163  -3.519  0.00  0.00     0.424 C 
ATOM      3  C   UNL d   1      13.865  12.481  -2.290  0.00  0.00     0.284 C 
ATOM      4  N   UNL d   1      13.238  12.936  -3.778  0.00  0.00    -0.329 NA
ATOM      5  O   UNL d   1      12.826  11.779  -4.150  0.00  0.00    -0.228 OA
ATOM      6  O   UNL d   1      13.912  13.274  -2.521  0.00  0.00    -0.265 OA
ENDROOT
BRANCH   3   7
ATOM      7  C   UNL d   1      14.169  12.248  -1.563  0.00  0.00     0.058 A 
ATOM      8  C   UNL d   1      14.979  12.185  -1.464  0.00  0.00     0.005 A 
ATOM      9  C   UNL d   1      15.293  11.951  -0.738  0.00  0.00     0.000 A 
ATOM     10  C   UNL d   1      14.783  11.779  -0.105  0.00  0.00     0.000 A 
ATOM     11  C   UNL d   1      13.973  11.842  -0.204  0.00  0.00     0.000 A 
ATOM     12  C   UNL d   1      13.660  12.078  -0.939  0.00  0.00     0.005 A 
ENDBRANCH   3   7
BRANCH   4  13
ATOM     13  C   UNL d   1      13.211  13.671  -4.139  0.00  0.00     0.219 A 
ATOM     14  N   UNL d   1      12.834  14.298  -3.767  0.00  0.00    -0.214 NA
ATOM     15  C   UNL d   1      12.810  15.042  -4.138  0.00  0.00     0.102 A 
ATOM     16  C   UNL d   1      13.165  15.141  -4.876  0.00  0.00     0.021 A 
ATOM     17  C   UNL d   1      13.542  14.515  -5.248  0.00  0.00     0.006 A 
ATOM     18  C   UNL d   1      13.567  13.774  -4.881  0.00  0.00     0.052 A 
ENDBRANCH   4  13
TORSDOF 2
ENDMDL
MODEL 2
REMARK VINA RESULT:      24.4      1.230      4.058
REMARK  2 active torsions:
REMARK  status: ('A' for Active; 'I' for Inactive)
REMARK       I    between atoms: C_2  and  N_1 
REMARK       I    between atoms: C_3  and  N_1 
REMARK       I    between atoms: N_4  and  C_2 
REMARK    1  A    between atoms: C_9  and  C_3 
REMARK    2  A    between atoms: C_5  and  N_4 
ROOT
ATOM      1  N   UNL d   1      13.970  13.618  -3.286  0.00  0.00    -0.140 NA
ATOM      2  C   UNL d   1      14.273  13.796  -2.544  0.00  0.00     0.424 C 
ATOM      3  C   UNL d   1      13.752  12.850  -3.480  0.00  0.00     0.284 C 
ATOM      4  N   UNL d   1      14.372  13.228  -1.968  0.00  0.00    -0.329 NA
ATOM      5  O   UNL d   1      14.543  14.485  -2.163  0.00  0.00    -0.228 OA
ATOM      6  O   UNL d   1      13.839  12.248  -2.919  0.00  0.00    -0.265 OA
ENDROOT
BRANCH   3   7
ATOM      7  C   UNL d   1      13.449  12.675  -4.224  0.00  0.00     0.058 A 
ATOM      8  C   UNL d   1      13.519  13.222  -4.829  0.00  0.00     0.005 A 
ATOM      9  C   UNL d   1      13.218  13.054  -5.578  0.00  0.00     0.000 A 
ATOM     10  C   UNL d   1      12.842  12.327  -5.718  0.00  0.00     0.000 A 
ATOM     11  C   UNL d   1      12.772  11.779  -5.113  0.00  0.00     0.000 A 
ATOM     12  C   UNL d   1      13.078  11.952  -4.358  0.00  0.00     0.005 A 
ENDBRANCH   3   7
BRANCH   4  13
ATOM     13  C   UNL d   1      14.514  12.749  -1.319  0.00  0.00     0.219 A 
ATOM     14  N   UNL d   1      15.267  12.709  -0.994  0.00  0.00    -0.214 NA
ATOM     15  C   UNL d   1      15.405  12.221  -0.335  0.00  0.00     0.102 A 
ATOM     16  C   UNL d   1      14.784  11.781  -0.016  0.00  0.00     0.021 A 
ATOM     17  C   UNL d   1      14.032  11.820  -0.340  0.00  0.00     0.006 A 
ATOM     18  C   UNL d   1      13.892  12.305  -0.995  0.00  0.00     0.052 A 
ENDBRANCH   4  13
TORSDOF 2
ENDMDL
MODEL 3
REMARK VINA RESULT:      24.8      1.998      3.659
REMARK  2 active torsions:
REMARK  status: ('A' for Active; 'I' for Inactive)
REMARK       I    between atoms: C_2  and  N_1 
REMARK       I    between atoms: C_3  and  N_1 
REMARK       I    between atoms: N_4  and  C_2 
REMARK    1  A    between atoms: C_9  and  C_3 
REMARK    2  A    between atoms: C_5  and  N_4 
ROOT
ATOM      1  N   UNL d   1      14.528  12.316  -2.206  0.00  0.00    -0.140 NA
ATOM      2  C   UNL d   1      14.963  12.507  -1.536  0.00  0.00     0.424 C 
ATOM      3  C   UNL d   1      14.074  12.883  -2.590  0.00  0.00     0.284 C 
ATOM      4  N   UNL d   1      14.967  13.258  -1.221  0.00  0.00    -0.329 NA
ATOM      5  O   UNL d   1      15.468  12.094  -1.019  0.00  0.00    -0.228 OA
ATOM      6  O   UNL d   1      14.055  13.657  -2.297  0.00  0.00    -0.265 OA
ENDROOT
BRANCH   3   7
ATOM      7  C   UNL d   1      13.640  12.689  -3.260  0.00  0.00     0.058 A 
ATOM      8  C   UNL d   1      13.616  13.209  -3.893  0.00  0.00     0.005 A 
ATOM      9  C   UNL d   1      13.183  13.021  -4.569  0.00  0.00     0.000 A 
ATOM     10  C   UNL d   1      12.769  12.302  -4.608  0.00  0.00     0.000 A 
ATOM     11  C   UNL d   1      12.792  11.782  -3.975  0.00  0.00     0.000 A 
ATOM     12  C   UNL d   1      13.231  11.975  -3.294  0.00  0.00     0.005 A 
ENDBRANCH   3   7
BRANCH   4  13
ATOM     13  C   UNL d   1      15.048  13.968  -0.819  0.00  0.00     0.219 A 
ATOM     14  N   UNL d   1      14.392  14.322  -0.475  0.00  0.00    -0.214 NA
ATOM     15  C   UNL d   1      14.480  15.042  -0.069  0.00  0.00     0.102 A 
ATOM     16  C   UNL d   1      15.226  15.393  -0.016  0.00  0.00     0.021 A 
ATOM     17  C   UNL d   1      15.880  15.039  -0.360  0.00  0.00     0.006 A 
ATOM     18  C   UNL d   1      15.796  14.323  -0.765  0.00  0.00     0.052 A 
ENDBRANCH   4  13
TORSDOF 2
ENDMDL
