MODEL 1
REMARK VINA RESULT:      -4.7      0.000      0.000
REMARK  5 active torsions:
REMARK  status: ('A' for Active; 'I' for Inactive)
REMARK    1  A    between atoms: C_9  and  N_2 
REMARK    2  A    between atoms: C_7  and  O_10 
REMARK    3  A    between atoms: C_11  and  C_9 
REMARK    4  A    between atoms: O_10  and  C_14 
REMARK    5  A    between atoms: C_14  and  C_11 
ROOT
ATOM      1  C   UNL d   1      58.266  -0.294  29.844  0.00  0.00     0.086 C 
ENDROOT
BRANCH   1   2
ATOM      2  N   UNL d   1      58.979  -0.588  29.556  0.00  0.00    -0.268 N 
ATOM      3  C   UNL d   1      59.690  -0.175  29.521  0.00  0.00     0.296 A 
ATOM      4  S   UNL d   1      60.262  -0.684  29.192  0.00  0.00    -0.025 SA
ATOM      5  O   UNL d   1      59.824   0.601  29.764  0.00  0.00    -0.259 OA
ATOM      6  C   UNL d   1      59.889  -1.403  29.030  0.00  0.00     0.050 A 
ATOM      7  C   UNL d   1      60.175  -2.116  28.702  0.00  0.00     0.008 A 
ATOM      8  C   UNL d   1      59.102  -1.348  29.252  0.00  0.00     0.073 A 
ATOM      9  C   UNL d   1      59.665  -2.754  28.605  0.00  0.00     0.001 A 
ATOM     10  C   UNL d   1      58.872  -2.689  28.832  0.00  0.00     0.002 A 
ATOM     11  C   UNL d   1      58.587  -1.986  29.157  0.00  0.00     0.018 A 
ENDBRANCH   1   2
BRANCH   1  12
ATOM     12  C   UNL d   1      58.102  -0.318  30.657  0.00  0.00     0.046 C 
BRANCH  12  13
ATOM     13  C   UNL d   1      57.473   0.110  30.971  0.00  0.00     0.124 C 
BRANCH  13  14
ATOM     14  O   UNL d   1      57.060  -0.178  31.616  0.00  0.00    -0.305 OA
BRANCH  14  15
ATOM     15  C   UNL d   1      56.642  -0.473  32.266  0.00  0.00     0.100 A 
ATOM     16  C   UNL d   1      56.616  -0.043  32.968  0.00  0.00     0.023 A 
ATOM     17  C   UNL d   1      57.008   0.682  33.019  0.00  0.00     0.002 C 
ATOM     18  C   UNL d   1      56.202  -0.336  33.610  0.00  0.00     0.002 A 
ATOM     19  C   UNL d   1      55.812  -1.060  33.555  0.00  0.00     0.000 A 
ATOM     20  C   UNL d   1      55.840  -1.489  32.849  0.00  0.00     0.002 A 
ATOM     21  C   UNL d   1      56.262  -1.186  32.202  0.00  0.00     0.025 A 
ENDBRANCH  14  15
ENDBRANCH  13  14
ENDBRANCH  12  13
ENDBRANCH   1  12
TORSDOF 5
ENDMDL
MODEL 2
REMARK VINA RESULT:      -4.5      1.158      1.389
REMARK  5 active torsions:
REMARK  status: ('A' for Active; 'I' for Inactive)
REMARK    1  A    between atoms: C_9  and  N_2 
REMARK    2  A    between atoms: C_7  and  O_10 
REMARK    3  A    between atoms: C_11  and  C_9 
REMARK    4  A    between atoms: O_10  and  C_14 
REMARK    5  A    between atoms: C_14  and  C_11 
ROOT
ATOM      1  C   UNL d   1      58.764   0.485  30.448  0.00  0.00     0.086 C 
ENDROOT
BRANCH   1   2
ATOM      2  N   UNL d   1      58.997   0.131  29.742  0.00  0.00    -0.268 N 
ATOM      3  C   UNL d   1      58.525   0.033  29.075  0.00  0.00     0.296 A 
ATOM      4  S   UNL d   1      58.984  -0.349  28.494  0.00  0.00    -0.025 SA
ATOM      5  O   UNL d   1      57.740   0.268  28.987  0.00  0.00    -0.259 OA
ATOM      6  C   UNL d   1      59.732  -0.480  28.817  0.00  0.00     0.050 A 
ATOM      7  C   UNL d   1      60.419  -0.838  28.502  0.00  0.00     0.008 A 
ATOM      8  C   UNL d   1      59.744  -0.187  29.582  0.00  0.00     0.073 A 
ATOM      9  C   UNL d   1      61.098  -0.892  28.962  0.00  0.00     0.001 A 
ATOM     10  C   UNL d   1      61.101  -0.593  29.734  0.00  0.00     0.002 A 
ATOM     11  C   UNL d   1      60.424  -0.239  30.047  0.00  0.00     0.018 A 
ENDBRANCH   1   2
BRANCH   1  12
ATOM     12  C   UNL d   1      58.019   0.320  30.772  0.00  0.00     0.046 C 
BRANCH  12  13
ATOM     13  C   UNL d   1      57.860   0.482  31.564  0.00  0.00     0.124 C 
BRANCH  13  14
ATOM     14  O   UNL d   1      57.288   0.057  31.964  0.00  0.00    -0.305 OA
BRANCH  14  15
ATOM     15  C   UNL d   1      56.707  -0.371  32.370  0.00  0.00     0.100 A 
ATOM     16  C   UNL d   1      56.370  -0.062  33.054  0.00  0.00     0.023 A 
ATOM     17  C   UNL d   1      56.614   0.677  33.332  0.00  0.00     0.002 C 
ATOM     18  C   UNL d   1      55.797  -0.486  33.454  0.00  0.00     0.002 A 
ATOM     19  C   UNL d   1      55.557  -1.223  33.173  0.00  0.00     0.000 A 
ATOM     20  C   UNL d   1      55.897  -1.531  32.487  0.00  0.00     0.002 A 
ATOM     21  C   UNL d   1      56.478  -1.095  32.086  0.00  0.00     0.025 A 
ENDBRANCH  14  15
ENDBRANCH  13  14
ENDBRANCH  12  13
ENDBRANCH   1  12
TORSDOF 5
ENDMDL
MODEL 3
REMARK VINA RESULT:      -4.4      0.994      1.507
REMARK  5 active torsions:
REMARK  status: ('A' for Active; 'I' for Inactive)
REMARK    1  A    between atoms: C_9  and  N_2 
REMARK    2  A    between atoms: C_7  and  O_10 
REMARK    3  A    between atoms: C_11  and  C_9 
REMARK    4  A    between atoms: O_10  and  C_14 
REMARK    5  A    between atoms: C_14  and  C_11 
ROOT
ATOM      1  C   UNL d   1      58.073  -0.984  30.001  0.00  0.00     0.086 C 
ENDROOT
BRANCH   1   2
ATOM      2  N   UNL d   1      58.567  -0.514  29.541  0.00  0.00    -0.268 N 
ATOM      3  C   UNL d   1      58.399   0.249  29.280  0.00  0.00     0.296 A 
ATOM      4  S   UNL d   1      59.051   0.513  28.834  0.00  0.00    -0.025 SA
ATOM      5  O   UNL d   1      57.713   0.682  29.428  0.00  0.00    -0.259 OA
ATOM      6  C   UNL d   1      59.610  -0.095  28.829  0.00  0.00     0.050 A 
ATOM      7  C   UNL d   1      60.365  -0.152  28.476  0.00  0.00     0.008 A 
ATOM      8  C   UNL d   1      59.317  -0.726  29.261  0.00  0.00     0.073 A 
ATOM      9  C   UNL d   1      60.806  -0.841  28.567  0.00  0.00     0.001 A 
ATOM     10  C   UNL d   1      60.501  -1.473  29.005  0.00  0.00     0.002 A 
ATOM     11  C   UNL d   1      59.756  -1.418  29.354  0.00  0.00     0.018 A 
ENDBRANCH   1   2
BRANCH   1  12
ATOM     12  C   UNL d   1      57.709  -0.672  30.678  0.00  0.00     0.046 C 
BRANCH  12  13
ATOM     13  C   UNL d   1      57.154  -1.112  31.097  0.00  0.00     0.124 C 
BRANCH  13  14
ATOM     14  O   UNL d   1      56.775  -0.786  31.745  0.00  0.00    -0.305 OA
BRANCH  14  15
ATOM     15  C   UNL d   1      56.391  -0.455  32.399  0.00  0.00     0.100 A 
ATOM     16  C   UNL d   1      55.945  -0.933  32.900  0.00  0.00     0.023 A 
ATOM     17  C   UNL d   1      55.884  -1.742  32.747  0.00  0.00     0.002 C 
ATOM     18  C   UNL d   1      55.566  -0.604  33.546  0.00  0.00     0.002 A 
ATOM     19  C   UNL d   1      55.629   0.205  33.695  0.00  0.00     0.000 A 
ATOM     20  C   UNL d   1      56.077   0.681  33.190  0.00  0.00     0.002 A 
ATOM     21  C   UNL d   1      56.459   0.341  32.537  0.00  0.00     0.025 A 
ENDBRANCH  14  15
ENDBRANCH  13  14
ENDBRANCH  12  13
ENDBRANCH   1  12
TORSDOF 5
ENDMDL
MODEL 4
REMARK VINA RESULT:      -4.2      1.870      4.949
REMARK  5 active torsions:
REMARK  status: ('A' for Active; 'I' for Inactive)
REMARK    1  A    between atoms: C_9  and  N_2 
REMARK    2  A    between atoms: C_7  and  O_10 
REMARK    3  A    between atoms: C_11  and  C_9 
REMARK    4  A    between atoms: O_10  and  C_14 
REMARK    5  A    between atoms: C_14  and  C_11 
ROOT
ATOM      1  C   UNL d   1      57.052   0.247  31.401  0.00  0.00     0.086 C 
ENDROOT
BRANCH   1   2
ATOM      2  N   UNL d   1      56.699  -0.280  31.925  0.00  0.00    -0.268 N 
ATOM      3  C   UNL d   1      56.668  -1.098  31.835  0.00  0.00     0.296 A 
ATOM      4  S   UNL d   1      56.261  -1.409  32.492  0.00  0.00    -0.025 SA
ATOM      5  O   UNL d   1      56.979  -1.539  31.213  0.00  0.00    -0.259 OA
ATOM      6  C   UNL d   1      56.049  -0.774  32.975  0.00  0.00     0.050 A 
ATOM      7  C   UNL d   1      55.637  -0.741  33.702  0.00  0.00     0.008 A 
ATOM      8  C   UNL d   1      56.316  -0.080  32.631  0.00  0.00     0.073 A 
ATOM      9  C   UNL d   1      55.504  -0.014  34.062  0.00  0.00     0.001 A 
ATOM     10  C   UNL d   1      55.777   0.682  33.707  0.00  0.00     0.002 A 
ATOM     11  C   UNL d   1      56.184   0.651  32.989  0.00  0.00     0.018 A 
ENDBRANCH   1   2
BRANCH   1  12
ATOM     12  C   UNL d   1      57.842   0.142  31.170  0.00  0.00     0.046 C 
BRANCH  12  13
ATOM     13  C   UNL d   1      58.207   0.682  30.667  0.00  0.00     0.124 C 
BRANCH  13  14
ATOM     14  O   UNL d   1      58.926   0.501  30.322  0.00  0.00    -0.305 OA
BRANCH  14  15
ATOM     15  C   UNL d   1      59.654   0.315  29.974  0.00  0.00     0.100 A 
ATOM     16  C   UNL d   1      59.682   0.050  29.195  0.00  0.00     0.023 A 
ATOM     17  C   UNL d   1      58.982  -0.028  28.763  0.00  0.00     0.002 C 
ATOM     18  C   UNL d   1      60.402  -0.133  28.853  0.00  0.00     0.002 A 
ATOM     19  C   UNL d   1      61.098  -0.054  29.288  0.00  0.00     0.000 A 
ATOM     20  C   UNL d   1      61.066   0.212  30.069  0.00  0.00     0.002 A 
ATOM     21  C   UNL d   1      60.333   0.396  30.410  0.00  0.00     0.025 A 
ENDBRANCH  14  15
ENDBRANCH  13  14
ENDBRANCH  12  13
ENDBRANCH   1  12
TORSDOF 5
ENDMDL
