MODEL 1
REMARK VINA RESULT:      42.2      0.000      0.000
REMARK  6 active torsions:
REMARK  status: ('A' for Active; 'I' for Inactive)
REMARK    1  A    between atoms: C_2  and  S_1 
REMARK    2  A    between atoms: N_5  and  S_1 
REMARK    3  A    between atoms: C_9  and  N_5 
REMARK    4  A    between atoms: C_11  and  C_9 
REMARK       I    between atoms: N_17  and  C_11 
REMARK    5  A    between atoms: C_16  and  C_21 
REMARK    6  A    between atoms: C_21  and  N_17 
ROOT
ATOM      1  C   UNL d   1     -55.344-102.424 -40.615  0.00  0.00     0.299 C 
ATOM      2  N   UNL d   1     -55.138-101.966 -41.264  0.00  0.00    -0.203 NA
ATOM      3  O   UNL d   1     -56.104-102.789 -40.583  0.00  0.00    -0.263 OA
ENDROOT
BRANCH   1   4
ATOM      4  C   UNL d   1     -54.811-102.530 -39.997  0.00  0.00     0.174 C 
BRANCH   4   5
ATOM      5  N   UNL d   1     -54.729-101.937 -39.413  0.00  0.00    -0.151 NA
BRANCH   5   6
ATOM      6  S   UNL d   1     -54.950-102.096 -38.627  0.00  0.00     0.291 S 
ATOM      7  O   UNL d   1     -54.794-101.302 -38.418  0.00  0.00    -0.198 OA
ATOM      8  O   UNL d   1     -55.105-102.878 -38.825  0.00  0.00    -0.198 OA
BRANCH   6   9
ATOM      9  C   UNL d   1     -55.168-102.245 -37.841  0.00  0.00     0.135 A 
ATOM     10  S   UNL d   1     -54.724-102.043 -37.201  0.00  0.00    -0.067 SA
ATOM     11  C   UNL d   1     -55.140-102.290 -36.514  0.00  0.00     0.065 A 
ATOM     12 BR   UNL d   1     -54.884-102.193 -35.719  0.00  0.00    -0.042 Br
ATOM     13  C   UNL d   1     -55.830-102.638 -36.750  0.00  0.00     0.015 A 
ATOM     14  C   UNL d   1     -55.856-102.614 -37.577  0.00  0.00     0.021 A 
ENDBRANCH   6   9
ENDBRANCH   5   6
ENDBRANCH   4   5
ENDBRANCH   1   4
BRANCH   2  15
ATOM     15  C   UNL d   1     -55.679-101.860 -41.892  0.00  0.00     0.129 C 
BRANCH  15  16
ATOM     16  C   UNL d   1     -55.444-101.429 -42.567  0.00  0.00     0.144 A 
ATOM     17  O   UNL d   1     -55.493-101.750 -43.311  0.00  0.00    -0.301 OA
ATOM     18  C   UNL d   1     -55.259-101.316 -43.959  0.00  0.00     0.123 A 
ATOM     19  C   UNL d   1     -55.309-101.642 -44.715  0.00  0.00     0.027 A 
ATOM     20  C   UNL d   1     -54.972-100.550 -43.868  0.00  0.00     0.123 A 
ATOM     21  C   UNL d   1     -55.073-101.207 -45.377  0.00  0.00     0.002 A 
ATOM     22  C   UNL d   1     -54.786-100.441 -45.282  0.00  0.00     0.002 A 
ATOM     23  C   UNL d   1     -54.737-100.113 -44.519  0.00  0.00     0.027 A 
ATOM     24  O   UNL d   1     -54.920-100.221 -43.120  0.00  0.00    -0.301 OA
ATOM     25  C   UNL d   1     -55.157-100.663 -42.472  0.00  0.00     0.149 A 
ENDBRANCH  15  16
ENDBRANCH   2  15
TORSDOF 6
ENDMDL
