MODEL 1
REMARK VINA RESULT:      95.9      0.000      0.000
REMARK  8 active torsions:
REMARK  status: ('A' for Active; 'I' for Inactive)
REMARK    1  A    between atoms: C_5  and  C_1 
REMARK    2  A    between atoms: N_6  and  C_2 
REMARK    3  A    between atoms: C_7  and  C_5 
REMARK    4  A    between atoms: C_8  and  C_5 
REMARK    5  A    between atoms: O_13  and  C_7 
REMARK    6  A    between atoms: C_12  and  C_16 
REMARK    7  A    between atoms: C_22  and  O_13 
REMARK    8  A    between atoms: C_25  and  C_22 
ROOT
ATOM      1  C   UNL d   1      57.261  48.515  50.105  0.00  0.00     0.296 C 
ATOM      2  O   UNL d   1      57.110  47.716  50.265  0.00  0.00    -0.259 OA
ATOM      3  O   UNL d   1      56.654  48.997  49.824  0.00  0.00    -0.296 OA
ATOM      4  C   UNL d   1      56.047  49.480  49.543  0.00  0.00     0.185 C 
ENDROOT
BRANCH   1   5
ATOM      5  C   UNL d   1      58.016  48.823  50.227  0.00  0.00     0.065 A 
ATOM      6  C   UNL d   1      58.800  49.246  50.121  0.00  0.00     0.018 A 
ATOM      7  C   UNL d   1      59.153  48.999  51.062  0.00  0.00     0.057 A 
ATOM      8  N   UNL d   1      59.727  49.138  51.370  0.00  0.00    -0.192 NA
ATOM      9  C   UNL d   1      59.016  48.739  51.500  0.00  0.00     0.057 A 
ATOM     10  C   UNL d   1      58.609  48.985  50.504  0.00  0.00     0.018 A 
BRANCH   8  11
ATOM     11  C   UNL d   1      60.354  49.202  51.904  0.00  0.00     0.145 A 
ATOM     12  C   UNL d   1      61.040  48.965  51.522  0.00  0.00     0.117 A 
ATOM     13  N   UNL d   1      61.760  48.972  51.927  0.00  0.00    -0.241 NA
ATOM     14  C   UNL d   1      61.792  49.215  52.707  0.00  0.00     0.099 A 
ATOM     15  C   UNL d   1      61.101  49.457  53.099  0.00  0.00     0.100 A 
ATOM     16  C   UNL d   1      62.504  49.223  53.111  0.00  0.00     0.021 A 
ATOM     17  C   UNL d   1      61.131  49.703  53.888  0.00  0.00     0.021 A 
ATOM     18  N   UNL d   1      60.381  49.449  52.694  0.00  0.00    -0.230 NA
ATOM     19  C   UNL d   1      61.849  49.707  54.282  0.00  0.00     0.002 A 
ATOM     20  C   UNL d   1      62.542  49.467  53.898  0.00  0.00     0.002 A 
BRANCH  12  21
ATOM     21  C   UNL d   1      60.841  48.752  50.749  0.00  0.00     0.104 C 
BRANCH  21  22
ATOM     22  C   UNL d   1      60.852  47.980  50.437  0.00  0.00     0.303 C 
ATOM     23  O   UNL d   1      60.270  47.440  50.657  0.00  0.00    -0.259 OA
BRANCH  22  24
ATOM     24  O   UNL d   1      61.447  47.759  49.909  0.00  0.00    -0.271 OA
BRANCH  24  25
ATOM     25  C   UNL d   1      61.351  47.096  49.431  0.00  0.00     0.126 C 
BRANCH  25  26
ATOM     26  C   UNL d   1      61.464  46.342  49.740  0.00  0.00     0.025 C 
ATOM     27  C   UNL d   1      62.183  45.959  49.636  0.00  0.00     0.002 C 
ATOM     28  C   UNL d   1      60.854  45.972  50.155  0.00  0.00     0.002 C 
ENDBRANCH  25  26
ENDBRANCH  24  25
ENDBRANCH  22  24
ENDBRANCH  21  22
BRANCH  21  29
ATOM     29  C   UNL d   1      60.631  49.433  50.340  0.00  0.00     0.129 C 
ATOM     30  N   UNL d   1      60.966  49.705  49.632  0.00  0.00    -0.146 N 
ENDBRANCH  21  29
ENDBRANCH  12  21
ENDBRANCH   8  11
ENDBRANCH   1   5
TORSDOF 8
ENDMDL
