MODEL 1
REMARK VINA RESULT:      36.5      0.000      0.000
REMARK  4 active torsions:
REMARK  status: ('A' for Active; 'I' for Inactive)
REMARK    1  A    between atoms: C_9  and  N_2 
REMARK    2  A    between atoms: C_6  and  C_3 
REMARK    3  A    between atoms: C_8  and  C_4 
REMARK    4  A    between atoms: O_18  and  C_15 
ROOT
ATOM      1  N   UNL d   1      13.692  12.318  -2.956  0.00  0.00    -0.165 NA
ATOM      2  N   UNL d   1      14.033  12.665  -2.257  0.00  0.00    -0.230 N 
ATOM      3  C   UNL d   1      13.635  12.900  -3.533  0.00  0.00     0.109 A 
ATOM      4  C   UNL d   1      14.171  13.473  -2.452  0.00  0.00     0.084 A 
ATOM      5  C   UNL d   1      13.928  13.611  -3.228  0.00  0.00     0.041 A 
ENDROOT
BRANCH   4   6
ATOM      6  C   UNL d   1      14.496  14.042  -1.956  0.00  0.00     0.018 A 
ATOM      7  C   UNL d   1      14.256  14.823  -2.068  0.00  0.00     0.004 A 
ATOM      8  C   UNL d   1      14.565  15.405  -1.588  0.00  0.00     0.024 A 
ATOM      9  C   UNL d   1      15.105  15.218  -1.002  0.00  0.00     0.094 A 
ATOM     10  C   UNL d   1      15.345  14.437  -0.889  0.00  0.00     0.024 A 
ATOM     11  C   UNL d   1      15.035  13.848  -1.373  0.00  0.00     0.004 A 
BRANCH   9  12
ATOM     12  O   UNL d   1      15.444  15.808  -0.485  0.00  0.00    -0.328 OA
ATOM     13  C   UNL d   1      15.573  16.603  -0.786  0.00  0.00     0.181 C 
ENDBRANCH   9  12
ENDBRANCH   4   6
BRANCH   2  14
ATOM     14  C   UNL d   1      14.225  12.375  -1.514  0.00  0.00     0.083 A 
ATOM     15  C   UNL d   1      13.655  12.294  -0.906  0.00  0.00     0.019 A 
ATOM     16  C   UNL d   1      13.878  11.996  -0.163  0.00  0.00     0.002 A 
ATOM     17  C   UNL d   1      14.643  11.780  -0.014  0.00  0.00     0.000 A 
ATOM     18  C   UNL d   1      15.212  11.859  -0.618  0.00  0.00     0.002 A 
ATOM     19  C   UNL d   1      15.003  12.157  -1.370  0.00  0.00     0.019 A 
ENDBRANCH   2  14
BRANCH   3  20
ATOM     20  C   UNL d   1      13.299  12.463  -4.155  0.00  0.00     0.049 A 
ATOM     21  S   UNL d   1      12.779  11.860  -4.350  0.00  0.00    -0.085 SA
ATOM     22  C   UNL d   1      12.777  11.780  -5.165  0.00  0.00     0.035 A 
ATOM     23  C   UNL d   1      13.284  12.321  -5.478  0.00  0.00     0.007 A 
ATOM     24  C   UNL d   1      13.624  12.760  -4.875  0.00  0.00     0.009 A 
ENDBRANCH   3  20
TORSDOF 4
ENDMDL
