MODEL 1
REMARK VINA RESULT:      -8.6      0.000      0.000
REMARK  4 active torsions:
REMARK  status: ('A' for Active; 'I' for Inactive)
REMARK    1  A    between atoms: S_3  and  N_1 
REMARK    2  A    between atoms: C_7  and  C_4 
REMARK    3  A    between atoms: C_12  and  C_5 
REMARK    4  A    between atoms: O_24  and  C_21 
ROOT
ATOM      1  N   UNL d   1      52.351  33.881  53.078  0.00  0.00    -0.155 N 
ATOM      2  N   UNL d   1      52.881  33.276  53.203  0.00  0.00    -0.156 NA
ATOM      3  C   UNL d   1      51.610  33.558  52.993  0.00  0.00     0.096 A 
ATOM      4  C   UNL d   1      52.466  32.575  53.196  0.00  0.00     0.103 A 
ATOM      5  C   UNL d   1      51.677  32.740  53.066  0.00  0.00     0.041 A 
ENDROOT
BRANCH   3   6
ATOM      6  C   UNL d   1      50.909  33.973  52.857  0.00  0.00     0.020 A 
ATOM      7  C   UNL d   1      50.568  33.971  52.106  0.00  0.00     0.022 A 
ATOM      8  C   UNL d   1      49.868  34.386  51.971  0.00  0.00     0.099 A 
ATOM      9  N   UNL d   1      49.527  34.384  51.219  0.00  0.00    -0.241 NA
ATOM     10  C   UNL d   1      49.511  34.800  52.583  0.00  0.00     0.099 A 
ATOM     11  C   UNL d   1      48.867  34.783  51.119  0.00  0.00     0.120 A 
ATOM     12  C   UNL d   1      48.511  35.196  51.730  0.00  0.00     0.120 A 
ATOM     13  N   UNL d   1      48.811  35.214  52.446  0.00  0.00    -0.241 NA
ATOM     14  C   UNL d   1      49.853  34.801  53.333  0.00  0.00     0.021 A 
ATOM     15  C   UNL d   1      50.552  34.387  53.469  0.00  0.00     0.003 A 
ENDBRANCH   3   6
BRANCH   1  16
ATOM     16  S   UNL d   1      52.523  34.678  53.043  0.00  0.00     0.266 S 
ATOM     17  O   UNL d   1      52.566  34.632  52.203  0.00  0.00    -0.203 OA
ATOM     18  O   UNL d   1      52.701  35.500  53.006  0.00  0.00    -0.203 OA
ATOM     19  C   UNL d   1      52.483  34.727  53.853  0.00  0.00     0.165 C 
ENDBRANCH   1  16
BRANCH   4  20
ATOM     20  C   UNL d   1      52.778  31.832  53.299  0.00  0.00     0.020 A 
ATOM     21  C   UNL d   1      52.491  31.195  52.890  0.00  0.00     0.004 A 
ATOM     22  C   UNL d   1      52.807  30.425  52.991  0.00  0.00     0.024 A 
ATOM     23  C   UNL d   1      53.431  30.318  53.525  0.00  0.00     0.094 A 
ATOM     24  C   UNL d   1      53.718  30.981  53.939  0.00  0.00     0.024 A 
ATOM     25  C   UNL d   1      53.403  31.719  53.832  0.00  0.00     0.004 A 
BRANCH  23  26
ATOM     26  O   UNL d   1      53.740  29.604  53.632  0.00  0.00    -0.328 OA
ATOM     27  C   UNL d   1      53.464  29.116  54.243  0.00  0.00     0.181 C 
ENDBRANCH  23  26
ENDBRANCH   4  20
TORSDOF 4
ENDMDL
MODEL 2
REMARK VINA RESULT:      -8.3      1.753      5.015
REMARK  4 active torsions:
REMARK  status: ('A' for Active; 'I' for Inactive)
REMARK    1  A    between atoms: S_3  and  N_1 
REMARK    2  A    between atoms: C_7  and  C_4 
REMARK    3  A    between atoms: C_12  and  C_5 
REMARK    4  A    between atoms: O_24  and  C_21 
ROOT
ATOM      1  N   UNL d   1      53.249  32.621  53.475  0.00  0.00    -0.155 N 
ATOM      2  N   UNL d   1      52.816  33.284  53.289  0.00  0.00    -0.156 NA
ATOM      3  C   UNL d   1      52.772  31.970  53.380  0.00  0.00     0.096 A 
ATOM      4  C   UNL d   1      52.067  33.043  53.078  0.00  0.00     0.103 A 
ATOM      5  C   UNL d   1      52.030  32.230  53.132  0.00  0.00     0.041 A 
ENDROOT
BRANCH   3   6
ATOM      6  C   UNL d   1      52.988  31.183  53.509  0.00  0.00     0.020 A 
ATOM      7  C   UNL d   1      52.915  30.854  54.262  0.00  0.00     0.022 A 
ATOM      8  C   UNL d   1      53.130  30.069  54.390  0.00  0.00     0.099 A 
ATOM      9  N   UNL d   1      53.058  29.739  55.144  0.00  0.00    -0.241 NA
ATOM     10  C   UNL d   1      53.417  29.615  53.770  0.00  0.00     0.099 A 
ATOM     11  C   UNL d   1      53.268  28.997  55.238  0.00  0.00     0.120 A 
ATOM     12  C   UNL d   1      53.554  28.543  54.618  0.00  0.00     0.120 A 
ATOM     13  N   UNL d   1      53.633  28.829  53.900  0.00  0.00    -0.241 NA
ATOM     14  C   UNL d   1      53.490  29.944  53.018  0.00  0.00     0.021 A 
ATOM     15  C   UNL d   1      53.274  30.729  52.889  0.00  0.00     0.003 A 
ENDBRANCH   3   6
BRANCH   1  16
ATOM     16  S   UNL d   1      54.029  32.601  53.716  0.00  0.00     0.266 S 
ATOM     17  O   UNL d   1      54.268  32.435  52.926  0.00  0.00    -0.203 OA
ATOM     18  O   UNL d   1      54.832  32.581  53.964  0.00  0.00    -0.203 OA
ATOM     19  C   UNL d   1      53.800  32.762  54.479  0.00  0.00     0.165 C 
ENDBRANCH   1  16
BRANCH   4  20
ATOM     20  C   UNL d   1      51.454  33.526  52.851  0.00  0.00     0.020 A 
ATOM     21  C   UNL d   1      51.490  33.958  52.168  0.00  0.00     0.004 A 
ATOM     22  C   UNL d   1      50.861  34.458  51.926  0.00  0.00     0.024 A 
ATOM     23  C   UNL d   1      50.186  34.508  52.404  0.00  0.00     0.094 A 
ATOM     24  C   UNL d   1      50.162  34.058  53.105  0.00  0.00     0.024 A 
ATOM     25  C   UNL d   1      50.776  33.579  53.326  0.00  0.00     0.004 A 
BRANCH  23  26
ATOM     26  O   UNL d   1      49.588  34.971  52.194  0.00  0.00    -0.328 OA
ATOM     27  C   UNL d   1      49.043  34.718  51.623  0.00  0.00     0.181 C 
ENDBRANCH  23  26
ENDBRANCH   4  20
TORSDOF 4
ENDMDL
MODEL 3
REMARK VINA RESULT:      -8.0      1.384      4.736
REMARK  4 active torsions:
REMARK  status: ('A' for Active; 'I' for Inactive)
REMARK    1  A    between atoms: S_3  and  N_1 
REMARK    2  A    between atoms: C_7  and  C_4 
REMARK    3  A    between atoms: C_12  and  C_5 
REMARK    4  A    between atoms: O_24  and  C_21 
ROOT
ATOM      1  N   UNL d   1      52.009  34.502  53.138  0.00  0.00    -0.155 N 
ATOM      2  N   UNL d   1      51.372  34.961  52.925  0.00  0.00    -0.156 NA
ATOM      3  C   UNL d   1      51.762  33.729  53.186  0.00  0.00     0.096 A 
ATOM      4  C   UNL d   1      50.727  34.471  52.842  0.00  0.00     0.103 A 
ATOM      5  C   UNL d   1      50.959  33.705  53.002  0.00  0.00     0.041 A 
ENDROOT
BRANCH   3   6
ATOM      6  C   UNL d   1      52.230  33.079  53.385  0.00  0.00     0.020 A 
ATOM      7  C   UNL d   1      52.288  32.439  52.868  0.00  0.00     0.022 A 
ATOM      8  C   UNL d   1      52.755  31.789  53.067  0.00  0.00     0.099 A 
ATOM      9  N   UNL d   1      52.813  31.149  52.549  0.00  0.00    -0.241 NA
ATOM     10  C   UNL d   1      53.162  31.779  53.779  0.00  0.00     0.099 A 
ATOM     11  C   UNL d   1      53.260  30.550  52.761  0.00  0.00     0.120 A 
ATOM     12  C   UNL d   1      53.667  30.540  53.473  0.00  0.00     0.120 A 
ATOM     13  N   UNL d   1      53.629  31.129  53.977  0.00  0.00    -0.241 NA
ATOM     14  C   UNL d   1      53.104  32.419  54.296  0.00  0.00     0.021 A 
ATOM     15  C   UNL d   1      52.637  33.068  54.097  0.00  0.00     0.003 A 
ENDBRANCH   3   6
BRANCH   1  16
ATOM     16  S   UNL d   1      52.769  34.762  53.280  0.00  0.00     0.266 S 
ATOM     17  O   UNL d   1      52.980  34.580  52.486  0.00  0.00    -0.203 OA
ATOM     18  O   UNL d   1      53.553  35.031  53.427  0.00  0.00    -0.203 OA
ATOM     19  C   UNL d   1      52.569  34.940  54.048  0.00  0.00     0.165 C 
ENDBRANCH   1  16
BRANCH   4  20
ATOM     20  C   UNL d   1      49.975  34.698  52.634  0.00  0.00     0.020 A 
ATOM     21  C   UNL d   1      49.500  35.102  53.150  0.00  0.00     0.004 A 
ATOM     22  C   UNL d   1      48.723  35.340  52.945  0.00  0.00     0.024 A 
ATOM     23  C   UNL d   1      48.437  35.154  52.189  0.00  0.00     0.094 A 
ATOM     24  C   UNL d   1      48.935  34.739  51.668  0.00  0.00     0.024 A 
ATOM     25  C   UNL d   1      49.684  34.514  51.879  0.00  0.00     0.004 A 
BRANCH  23  26
ATOM     26  O   UNL d   1      47.712  35.369  51.979  0.00  0.00    -0.328 OA
ATOM     27  C   UNL d   1      47.388  36.080  52.257  0.00  0.00     0.181 C 
ENDBRANCH  23  26
ENDBRANCH   4  20
TORSDOF 4
ENDMDL
MODEL 4
REMARK VINA RESULT:      -7.8      1.883      4.938
REMARK  4 active torsions:
REMARK  status: ('A' for Active; 'I' for Inactive)
REMARK    1  A    between atoms: S_3  and  N_1 
REMARK    2  A    between atoms: C_7  and  C_4 
REMARK    3  A    between atoms: C_12  and  C_5 
REMARK    4  A    between atoms: O_24  and  C_21 
ROOT
ATOM      1  N   UNL d   1      52.032  32.592  52.936  0.00  0.00    -0.155 N 
ATOM      2  N   UNL d   1      51.298  32.785  52.642  0.00  0.00    -0.156 NA
ATOM      3  C   UNL d   1      52.387  33.272  53.204  0.00  0.00     0.096 A 
ATOM      4  C   UNL d   1      51.198  33.588  52.728  0.00  0.00     0.103 A 
ATOM      5  C   UNL d   1      51.868  33.899  53.076  0.00  0.00     0.041 A 
ENDROOT
BRANCH   3   6
ATOM      6  C   UNL d   1      53.136  33.329  53.546  0.00  0.00     0.020 A 
ATOM      7  C   UNL d   1      53.210  33.448  54.359  0.00  0.00     0.022 A 
ATOM      8  C   UNL d   1      53.959  33.506  54.700  0.00  0.00     0.099 A 
ATOM      9  N   UNL d   1      54.033  33.625  55.514  0.00  0.00    -0.241 NA
ATOM     10  C   UNL d   1      54.629  33.445  54.231  0.00  0.00     0.099 A 
ATOM     11  C   UNL d   1      54.750  33.675  55.809  0.00  0.00     0.120 A 
ATOM     12  C   UNL d   1      55.420  33.614  55.341  0.00  0.00     0.120 A 
ATOM     13  N   UNL d   1      55.378  33.502  54.574  0.00  0.00    -0.241 NA
ATOM     14  C   UNL d   1      54.555  33.326  53.419  0.00  0.00     0.021 A 
ATOM     15  C   UNL d   1      53.807  33.268  53.077  0.00  0.00     0.003 A 
ENDBRANCH   3   6
BRANCH   1  16
ATOM     16  S   UNL d   1      52.364  31.846  52.962  0.00  0.00     0.266 S 
ATOM     17  O   UNL d   1      52.781  32.008  52.248  0.00  0.00    -0.203 OA
ATOM     18  O   UNL d   1      52.706  31.078  52.988  0.00  0.00    -0.203 OA
ATOM     19  C   UNL d   1      51.963  31.687  53.650  0.00  0.00     0.165 C 
ENDBRANCH   1  16
BRANCH   4  20
ATOM     20  C   UNL d   1      50.544  34.017  52.508  0.00  0.00     0.020 A 
ATOM     21  C   UNL d   1      50.287  34.028  51.740  0.00  0.00     0.004 A 
ATOM     22  C   UNL d   1      49.614  34.467  51.505  0.00  0.00     0.024 A 
ATOM     23  C   UNL d   1      49.201  34.901  52.077  0.00  0.00     0.094 A 
ATOM     24  C   UNL d   1      49.475  34.882  52.863  0.00  0.00     0.024 A 
ATOM     25  C   UNL d   1      50.127  34.453  53.078  0.00  0.00     0.004 A 
BRANCH  23  26
ATOM     26  O   UNL d   1      48.567  35.319  51.875  0.00  0.00    -0.328 OA
ATOM     27  C   UNL d   1      48.076  35.062  51.258  0.00  0.00     0.181 C 
ENDBRANCH  23  26
ENDBRANCH   4  20
TORSDOF 4
ENDMDL
