MODEL 1
REMARK VINA RESULT:      -2.3      0.000      0.000
REMARK  4 active torsions:
REMARK  status: ('A' for Active; 'I' for Inactive)
REMARK    1  A    between atoms: N_3  and  S_1 
REMARK    2  A    between atoms: C_5  and  S_1 
REMARK    3  A    between atoms: C_2  and  N_3 
REMARK    4  A    between atoms: O_18  and  C_11 
ROOT
ATOM      1  C   UNL d   1      31.499  17.078 -24.708  0.00  0.00     0.113 A 
ATOM      2  C   UNL d   1      32.011  17.735 -24.687  0.00  0.00     0.100 A 
ATOM      3  C   UNL d   1      31.703  16.367 -24.366  0.00  0.00     0.046 A 
ATOM      4  C   UNL d   1      32.729  17.681 -24.323  0.00  0.00     0.021 A 
ATOM      5  N   UNL d   1      31.781  18.444 -25.041  0.00  0.00    -0.242 NA
ATOM      6  C   UNL d   1      32.444  16.317 -23.992  0.00  0.00     0.096 A 
ATOM      7  C   UNL d   1      32.957  16.974 -23.971  0.00  0.00     0.026 A 
ATOM      8  C   UNL d   1      33.233  18.329 -24.301  0.00  0.00     0.003 A 
ATOM      9  C   UNL d   1      32.285  19.092 -25.019  0.00  0.00     0.099 A 
ATOM     10  C   UNL d   1      33.038  19.051 -24.643  0.00  0.00     0.021 A 
ENDROOT
BRANCH   1  11
ATOM     11  N   UNL d   1      30.731  17.125 -25.095  0.00  0.00    -0.157 NA
BRANCH  11  12
ATOM     12  S   UNL d   1      30.052  16.789 -24.746  0.00  0.00     0.285 S 
ATOM     13  O   UNL d   1      29.868  17.534 -24.385  0.00  0.00    -0.198 OA
ATOM     14  O   UNL d   1      30.229  16.069 -25.095  0.00  0.00    -0.198 OA
BRANCH  12  15
ATOM     15  C   UNL d   1      29.376  16.455 -24.399  0.00  0.00     0.105 A 
ATOM     16  C   UNL d   1      29.059  16.774 -23.710  0.00  0.00     0.013 A 
ATOM     17  C   UNL d   1      28.387  16.442 -23.366  0.00  0.00     0.001 A 
ATOM     18  C   UNL d   1      28.017  15.783 -23.702  0.00  0.00     0.000 A 
ATOM     19  C   UNL d   1      28.342  15.467 -24.394  0.00  0.00     0.001 A 
ATOM     20  C   UNL d   1      27.350  15.453 -23.359  0.00  0.00     0.000 C 
ATOM     21  C   UNL d   1      29.013  15.799 -24.739  0.00  0.00     0.013 A 
ENDBRANCH  12  15
ENDBRANCH  11  12
ENDBRANCH   1  11
BRANCH   6  22
ATOM     22  O   UNL d   1      32.662  15.571 -23.632  0.00  0.00    -0.328 OA
ATOM     23  C   UNL d   1      32.843  15.518 -22.820  0.00  0.00     0.181 C 
ENDBRANCH   6  22
TORSDOF 4
ENDMDL
MODEL 2
REMARK VINA RESULT:      -1.9      2.345      3.448
REMARK  4 active torsions:
REMARK  status: ('A' for Active; 'I' for Inactive)
REMARK    1  A    between atoms: N_3  and  S_1 
REMARK    2  A    between atoms: C_5  and  S_1 
REMARK    3  A    between atoms: C_2  and  N_3 
REMARK    4  A    between atoms: O_18  and  C_11 
ROOT
ATOM      1  C   UNL d   1      33.216  19.533 -23.545  0.00  0.00     0.113 A 
ATOM      2  C   UNL d   1      33.224  20.310 -23.846  0.00  0.00     0.100 A 
ATOM      3  C   UNL d   1      33.216  19.387 -22.743  0.00  0.00     0.046 A 
ATOM      4  C   UNL d   1      33.232  20.942 -23.346  0.00  0.00     0.021 A 
ATOM      5  N   UNL d   1      33.225  20.431 -24.663  0.00  0.00    -0.242 NA
ATOM      6  C   UNL d   1      33.223  20.043 -22.231  0.00  0.00     0.096 A 
ATOM      7  C   UNL d   1      33.231  20.820 -22.533  0.00  0.00     0.026 A 
ATOM      8  C   UNL d   1      33.239  21.708 -23.643  0.00  0.00     0.003 A 
ATOM      9  C   UNL d   1      33.233  21.196 -24.961  0.00  0.00     0.099 A 
ATOM     10  C   UNL d   1      33.240  21.866 -24.451  0.00  0.00     0.021 A 
ENDROOT
BRANCH   1  11
ATOM     11  N   UNL d   1      33.209  18.851 -24.071  0.00  0.00    -0.157 NA
BRANCH  11  12
ATOM     12  S   UNL d   1      32.659  18.233 -23.966  0.00  0.00     0.285 S 
ATOM     13  O   UNL d   1      32.199  18.533 -24.612  0.00  0.00    -0.198 OA
ATOM     14  O   UNL d   1      33.104  17.943 -23.342  0.00  0.00    -0.198 OA
BRANCH  12  15
ATOM     15  C   UNL d   1      32.112  17.617 -23.863  0.00  0.00     0.105 A 
ATOM     16  C   UNL d   1      31.403  17.615 -24.280  0.00  0.00     0.013 A 
ATOM     17  C   UNL d   1      30.860  17.003 -24.177  0.00  0.00     0.001 A 
ATOM     18  C   UNL d   1      31.013  16.380 -23.655  0.00  0.00     0.000 A 
ATOM     19  C   UNL d   1      31.728  16.389 -23.239  0.00  0.00     0.001 A 
ATOM     20  C   UNL d   1      30.473  15.772 -23.553  0.00  0.00     0.000 C 
ATOM     21  C   UNL d   1      32.272  17.001 -23.342  0.00  0.00     0.013 A 
ENDBRANCH  12  15
ENDBRANCH  11  12
ENDBRANCH   1  11
BRANCH   6  22
ATOM     22  O   UNL d   1      33.222  19.893 -21.388  0.00  0.00    -0.328 OA
ATOM     23  C   UNL d   1      32.853  20.418 -20.855  0.00  0.00     0.181 C 
ENDBRANCH   6  22
TORSDOF 4
ENDMDL
MODEL 3
REMARK VINA RESULT:      -0.6      2.750      4.190
REMARK  4 active torsions:
REMARK  status: ('A' for Active; 'I' for Inactive)
REMARK    1  A    between atoms: N_3  and  S_1 
REMARK    2  A    between atoms: C_5  and  S_1 
REMARK    3  A    between atoms: C_2  and  N_3 
REMARK    4  A    between atoms: O_18  and  C_11 
ROOT
ATOM      1  C   UNL d   1      33.049  19.858 -22.775  0.00  0.00     0.113 A 
ATOM      2  C   UNL d   1      33.055  20.517 -22.264  0.00  0.00     0.100 A 
ATOM      3  C   UNL d   1      33.110  19.945 -23.583  0.00  0.00     0.046 A 
ATOM      4  C   UNL d   1      33.121  21.263 -22.561  0.00  0.00     0.021 A 
ATOM      5  N   UNL d   1      32.993  20.401 -21.448  0.00  0.00    -0.242 NA
ATOM      6  C   UNL d   1      33.178  20.718 -23.884  0.00  0.00     0.096 A 
ATOM      7  C   UNL d   1      33.183  21.376 -23.373  0.00  0.00     0.026 A 
ATOM      8  C   UNL d   1      33.127  21.912 -22.057  0.00  0.00     0.003 A 
ATOM      9  C   UNL d   1      32.998  21.050 -20.945  0.00  0.00     0.099 A 
ATOM     10  C   UNL d   1      33.067  21.835 -21.240  0.00  0.00     0.021 A 
ENDROOT
BRANCH   1  11
ATOM     11  N   UNL d   1      32.979  19.057 -22.468  0.00  0.00    -0.157 NA
BRANCH  11  12
ATOM     12  S   UNL d   1      32.664  18.442 -22.935  0.00  0.00     0.285 S 
ATOM     13  O   UNL d   1      33.238  17.905 -22.616  0.00  0.00    -0.198 OA
ATOM     14  O   UNL d   1      32.109  18.961 -23.243  0.00  0.00    -0.198 OA
BRANCH  12  15
ATOM     15  C   UNL d   1      32.351  17.830 -23.400  0.00  0.00     0.105 A 
ATOM     16  C   UNL d   1      31.559  17.618 -23.331  0.00  0.00     0.013 A 
ATOM     17  C   UNL d   1      31.248  17.009 -23.793  0.00  0.00     0.001 A 
ATOM     18  C   UNL d   1      31.721  16.600 -24.334  0.00  0.00     0.000 A 
ATOM     19  C   UNL d   1      32.516  16.819 -24.398  0.00  0.00     0.001 A 
ATOM     20  C   UNL d   1      31.411  15.996 -24.794  0.00  0.00     0.000 C 
ATOM     21  C   UNL d   1      32.828  17.428 -23.936  0.00  0.00     0.013 A 
ENDBRANCH  12  15
ENDBRANCH  11  12
ENDBRANCH   1  11
BRANCH   6  22
ATOM     22  O   UNL d   1      33.241  20.813 -24.733  0.00  0.00    -0.328 OA
ATOM     23  C   UNL d   1      33.229  21.568 -25.086  0.00  0.00     0.181 C 
ENDBRANCH   6  22
TORSDOF 4
ENDMDL
MODEL 4
REMARK VINA RESULT:      -0.4      1.338      2.179
REMARK  4 active torsions:
REMARK  status: ('A' for Active; 'I' for Inactive)
REMARK    1  A    between atoms: N_3  and  S_1 
REMARK    2  A    between atoms: C_5  and  S_1 
REMARK    3  A    between atoms: C_2  and  N_3 
REMARK    4  A    between atoms: O_18  and  C_11 
ROOT
ATOM      1  C   UNL d   1      31.038  16.243 -24.234  0.00  0.00     0.113 A 
ATOM      2  C   UNL d   1      31.759  16.311 -23.822  0.00  0.00     0.100 A 
ATOM      3  C   UNL d   1      30.726  16.868 -24.653  0.00  0.00     0.046 A 
ATOM      4  C   UNL d   1      32.169  17.005 -23.828  0.00  0.00     0.021 A 
ATOM      5  N   UNL d   1      32.054  15.662 -23.404  0.00  0.00    -0.242 NA
ATOM      6  C   UNL d   1      31.152  17.582 -24.657  0.00  0.00     0.096 A 
ATOM      7  C   UNL d   1      31.874  17.650 -24.244  0.00  0.00     0.026 A 
ATOM      8  C   UNL d   1      32.879  17.073 -23.422  0.00  0.00     0.003 A 
ATOM      9  C   UNL d   1      32.764  15.730 -22.998  0.00  0.00     0.099 A 
ATOM     10  C   UNL d   1      33.203  16.448 -22.996  0.00  0.00     0.021 A 
ENDROOT
BRANCH   1  11
ATOM     11  N   UNL d   1      30.593  15.506 -24.233  0.00  0.00    -0.157 NA
BRANCH  11  12
ATOM     12  S   UNL d   1      29.776  15.495 -24.064  0.00  0.00     0.285 S 
ATOM     13  O   UNL d   1      29.604  15.508 -24.895  0.00  0.00    -0.198 OA
ATOM     14  O   UNL d   1      29.942  15.483 -23.262  0.00  0.00    -0.198 OA
BRANCH  12  15
ATOM     15  C   UNL d   1      28.963  15.485 -23.897  0.00  0.00     0.105 A 
ATOM     16  C   UNL d   1      28.412  15.475 -24.507  0.00  0.00     0.013 A 
ATOM     17  C   UNL d   1      27.604  15.465 -24.340  0.00  0.00     0.001 A 
ATOM     18  C   UNL d   1      27.330  15.465 -23.559  0.00  0.00     0.000 A 
ATOM     19  C   UNL d   1      27.890  15.474 -22.951  0.00  0.00     0.001 A 
ATOM     20  C   UNL d   1      26.527  15.455 -23.394  0.00  0.00     0.000 C 
ATOM     21  C   UNL d   1      28.698  15.485 -23.118  0.00  0.00     0.013 A 
ENDBRANCH  12  15
ENDBRANCH  11  12
ENDBRANCH   1  11
BRANCH   6  22
ATOM     22  O   UNL d   1      30.827  18.241 -25.097  0.00  0.00    -0.328 OA
ATOM     23  C   UNL d   1      31.181  18.996 -25.071  0.00  0.00     0.181 C 
ENDBRANCH   6  22
TORSDOF 4
ENDMDL
