MODEL 1
REMARK VINA RESULT:      -4.5      0.000      0.000
REMARK  1 active torsions:
REMARK  status: ('A' for Active; 'I' for Inactive)
REMARK    1  A    between atoms: C_8  and  C_4 
ROOT
ATOM      1  N   UNL d   1      57.708   0.078  30.432  0.00  0.00    -0.211 NA
ATOM      2  C   UNL d   1      58.186   0.004  29.764  0.00  0.00     0.140 A 
ATOM      3  C   UNL d   1      58.456  -0.740  29.515  0.00  0.00     0.051 A 
ATOM      4  C   UNL d   1      57.492  -0.599  30.861  0.00  0.00     0.183 A 
ATOM      5  C   UNL d   1      58.237  -1.429  29.951  0.00  0.00     0.104 A 
ATOM      6  O   UNL d   1      57.757  -1.348  30.620  0.00  0.00    -0.289 OA
ATOM      7  S   UNL d   1      58.401   0.681  29.335  0.00  0.00    -0.057 SA
ATOM      8  C   UNL d   1      58.934  -0.824  28.849  0.00  0.00     0.004 A 
ATOM      9  C   UNL d   1      58.499  -2.165  29.711  0.00  0.00     0.025 A 
ATOM     10  C   UNL d   1      59.198  -1.566  28.608  0.00  0.00     0.000 A 
ATOM     11  C   UNL d   1      58.983  -2.244  29.037  0.00  0.00     0.002 A 
ENDROOT
BRANCH   4  12
ATOM     12  C   UNL d   1      57.009  -0.530  31.537  0.00  0.00     0.041 A 
ATOM     13  C   UNL d   1      56.633  -1.193  31.845  0.00  0.00     0.004 A 
ATOM     14  C   UNL d   1      56.160  -1.123  32.507  0.00  0.00     0.000 A 
ATOM     15  C   UNL d   1      56.059  -0.388  32.866  0.00  0.00     0.000 A 
ATOM     16  C   UNL d   1      56.434   0.269  32.557  0.00  0.00     0.000 A 
ATOM     17  C   UNL d   1      56.918   0.199  31.881  0.00  0.00     0.004 A 
ENDBRANCH   4  12
TORSDOF 1
ENDMDL
MODEL 2
REMARK VINA RESULT:      -4.5      1.989      4.401
REMARK  1 active torsions:
REMARK  status: ('A' for Active; 'I' for Inactive)
REMARK    1  A    between atoms: C_8  and  C_4 
ROOT
ATOM      1  N   UNL d   1      57.367   0.348  33.024  0.00  0.00    -0.211 NA
ATOM      2  C   UNL d   1      57.032   0.514  33.760  0.00  0.00     0.140 A 
ATOM      3  C   UNL d   1      56.208   0.514  33.861  0.00  0.00     0.051 A 
ATOM      4  C   UNL d   1      56.875   0.180  32.377  0.00  0.00     0.183 A 
ATOM      5  C   UNL d   1      55.708   0.343  33.203  0.00  0.00     0.104 A 
ATOM      6  O   UNL d   1      56.050   0.178  32.468  0.00  0.00    -0.289 OA
ATOM      7  S   UNL d   1      57.523   0.682  34.407  0.00  0.00    -0.057 SA
ATOM      8  C   UNL d   1      55.864   0.678  34.592  0.00  0.00     0.004 A 
ATOM      9  C   UNL d   1      54.896   0.342  33.296  0.00  0.00     0.025 A 
ATOM     10  C   UNL d   1      55.046   0.677  34.685  0.00  0.00     0.000 A 
ATOM     11  C   UNL d   1      54.554   0.508  34.037  0.00  0.00     0.002 A 
ENDROOT
BRANCH   4  12
ATOM     12  C   UNL d   1      57.209   0.012  31.631  0.00  0.00     0.041 A 
ATOM     13  C   UNL d   1      57.402   0.625  31.119  0.00  0.00     0.004 A 
ATOM     14  C   UNL d   1      57.729   0.459  30.388  0.00  0.00     0.000 A 
ATOM     15  C   UNL d   1      57.865  -0.323  30.166  0.00  0.00     0.000 A 
ATOM     16  C   UNL d   1      57.672  -0.929  30.678  0.00  0.00     0.000 A 
ATOM     17  C   UNL d   1      57.338  -0.761  31.424  0.00  0.00     0.004 A 
ENDBRANCH   4  12
TORSDOF 1
ENDMDL
MODEL 3
REMARK VINA RESULT:      -3.1      1.656      4.020
REMARK  1 active torsions:
REMARK  status: ('A' for Active; 'I' for Inactive)
REMARK    1  A    between atoms: C_8  and  C_4 
ROOT
ATOM      1  N   UNL d   1      56.513  -0.981  31.869  0.00  0.00    -0.211 NA
ATOM      2  C   UNL d   1      56.088  -1.011  32.576  0.00  0.00     0.140 A 
ATOM      3  C   UNL d   1      56.230  -0.460  33.180  0.00  0.00     0.051 A 
ATOM      4  C   UNL d   1      57.090  -0.394  31.760  0.00  0.00     0.183 A 
ATOM      5  C   UNL d   1      56.816   0.137  33.070  0.00  0.00     0.104 A 
ATOM      6  O   UNL d   1      57.239   0.161  32.359  0.00  0.00    -0.289 OA
ATOM      7  S   UNL d   1      55.511  -1.598  32.684  0.00  0.00    -0.057 SA
ATOM      8  C   UNL d   1      55.810  -0.482  33.889  0.00  0.00     0.004 A 
ATOM      9  C   UNL d   1      56.961   0.682  33.661  0.00  0.00     0.025 A 
ATOM     10  C   UNL d   1      55.957   0.068  34.485  0.00  0.00     0.000 A 
ATOM     11  C   UNL d   1      56.534   0.656  34.376  0.00  0.00     0.002 A 
ENDROOT
BRANCH   4  12
ATOM     12  C   UNL d   1      57.522  -0.360  31.048  0.00  0.00     0.041 A 
ATOM     13  C   UNL d   1      57.802  -1.051  30.702  0.00  0.00     0.004 A 
ATOM     14  C   UNL d   1      58.226  -1.016  30.004  0.00  0.00     0.000 A 
ATOM     15  C   UNL d   1      58.372  -0.288  29.648  0.00  0.00     0.000 A 
ATOM     16  C   UNL d   1      58.092   0.397  29.994  0.00  0.00     0.000 A 
ATOM     17  C   UNL d   1      57.660   0.363  30.707  0.00  0.00     0.004 A 
ENDBRANCH   4  12
TORSDOF 1
ENDMDL
MODEL 4
REMARK VINA RESULT:      -2.9      1.520      1.632
REMARK  1 active torsions:
REMARK  status: ('A' for Active; 'I' for Inactive)
REMARK    1  A    between atoms: C_8  and  C_4 
ROOT
ATOM      1  N   UNL d   1      58.198   0.327  31.749  0.00  0.00    -0.211 NA
ATOM      2  C   UNL d   1      58.810   0.502  31.224  0.00  0.00     0.140 A 
ATOM      3  C   UNL d   1      58.680   0.499  30.405  0.00  0.00     0.051 A 
ATOM      4  C   UNL d   1      57.443   0.147  31.456  0.00  0.00     0.183 A 
ATOM      5  C   UNL d   1      57.912   0.316  30.106  0.00  0.00     0.104 A 
ATOM      6  O   UNL d   1      57.303   0.142  30.638  0.00  0.00    -0.289 OA
ATOM      7  S   UNL d   1      59.565   0.682  31.518  0.00  0.00    -0.057 SA
ATOM      8  C   UNL d   1      59.285   0.673  29.872  0.00  0.00     0.004 A 
ATOM      9  C   UNL d   1      57.777   0.312  29.300  0.00  0.00     0.025 A 
ATOM     10  C   UNL d   1      59.148   0.669  29.060  0.00  0.00     0.000 A 
ATOM     11  C   UNL d   1      58.392   0.488  28.766  0.00  0.00     0.002 A 
ENDROOT
BRANCH   4  12
ATOM     12  C   UNL d   1      56.821  -0.031  31.983  0.00  0.00     0.041 A 
ATOM     13  C   UNL d   1      56.631  -0.813  32.148  0.00  0.00     0.004 A 
ATOM     14  C   UNL d   1      56.022  -0.985  32.664  0.00  0.00     0.000 A 
ATOM     15  C   UNL d   1      55.598  -0.374  33.019  0.00  0.00     0.000 A 
ATOM     16  C   UNL d   1      55.789   0.403  32.852  0.00  0.00     0.000 A 
ATOM     17  C   UNL d   1      56.411   0.580  32.325  0.00  0.00     0.004 A 
ENDBRANCH   4  12
TORSDOF 1
ENDMDL
MODEL 5
REMARK VINA RESULT:      -2.3      2.328      3.532
REMARK  1 active torsions:
REMARK  status: ('A' for Active; 'I' for Inactive)
REMARK    1  A    between atoms: C_8  and  C_4 
ROOT
ATOM      1  N   UNL d   1      55.736  -0.879  33.337  0.00  0.00    -0.211 NA
ATOM      2  C   UNL d   1      56.109  -1.134  32.646  0.00  0.00     0.140 A 
ATOM      3  C   UNL d   1      56.596  -0.621  32.212  0.00  0.00     0.051 A 
ATOM      4  C   UNL d   1      55.847  -0.099  33.600  0.00  0.00     0.183 A 
ATOM      5  C   UNL d   1      56.709   0.171  32.479  0.00  0.00     0.104 A 
ATOM      6  O   UNL d   1      56.331   0.421  33.172  0.00  0.00    -0.289 OA
ATOM      7  S   UNL d   1      55.998  -1.914  32.383  0.00  0.00    -0.057 SA
ATOM      8  C   UNL d   1      56.973  -0.868  31.521  0.00  0.00     0.004 A 
ATOM      9  C   UNL d   1      57.186   0.682  32.055  0.00  0.00     0.025 A 
ATOM     10  C   UNL d   1      57.454  -0.353  31.095  0.00  0.00     0.000 A 
ATOM     11  C   UNL d   1      57.565   0.428  31.358  0.00  0.00     0.002 A 
ENDROOT
BRANCH   4  12
ATOM     12  C   UNL d   1      55.471   0.164  34.297  0.00  0.00     0.041 A 
ATOM     13  C   UNL d   1      54.687   0.409  34.274  0.00  0.00     0.004 A 
ATOM     14  C   UNL d   1      54.321   0.667  34.958  0.00  0.00     0.000 A 
ATOM     15  C   UNL d   1      54.738   0.681  35.668  0.00  0.00     0.000 A 
ATOM     16  C   UNL d   1      55.517   0.437  35.686  0.00  0.00     0.000 A 
ATOM     17  C   UNL d   1      55.893   0.173  34.990  0.00  0.00     0.004 A 
ENDBRANCH   4  12
TORSDOF 1
ENDMDL
