MODEL 1
REMARK VINA RESULT:      17.9      0.000      0.000
REMARK  2 active torsions:
REMARK  status: ('A' for Active; 'I' for Inactive)
REMARK    1  A    between atoms: C_7  and  C_1 
REMARK    2  A    between atoms: O_14  and  C_11 
ROOT
ATOM      1  C   UNL d   1     -51.504  24.793  33.369  0.00  0.00     0.066 A 
ATOM      2  C   UNL d   1     -51.968  25.510  33.383  0.00  0.00     0.200 A 
ATOM      3  C   UNL d   1     -51.585  26.239  33.364  0.00  0.00     0.062 A 
ATOM      4  C   UNL d   1     -50.680  24.839  33.338  0.00  0.00     0.126 A 
ATOM      5  C   UNL d   1     -50.760  26.285  33.332  0.00  0.00     0.106 A 
ATOM      6  O   UNL d   1     -50.298  25.603  33.319  0.00  0.00    -0.305 OA
ATOM      7  C   UNL d   1     -52.048  26.943  33.377  0.00  0.00     0.009 A 
ATOM      8  C   UNL d   1     -50.378  27.037  33.313  0.00  0.00     0.067 A 
ATOM      9  O   UNL d   1     -52.807  25.463  33.414  0.00  0.00    -0.286 OA
ATOM     10  C   UNL d   1     -50.842  27.745  33.327  0.00  0.00     0.198 A 
ATOM     11  C   UNL d   1     -51.666  27.699  33.358  0.00  0.00     0.042 A 
ATOM     12  O   UNL d   1     -50.460  28.499  33.308  0.00  0.00    -0.286 OA
ENDROOT
BRANCH   1  13
ATOM     13  C   UNL d   1     -51.767  24.275  33.382  0.00  0.00     0.027 A 
ATOM     14  C   UNL d   1     -51.456  23.794  33.447  0.00  0.00     0.094 A 
ATOM     15  C   UNL d   1     -51.711  23.275  33.460  0.00  0.00     0.024 A 
ATOM     16  C   UNL d   1     -52.293  23.248  33.408  0.00  0.00     0.002 A 
ATOM     17  C   UNL d   1     -52.603  23.728  33.344  0.00  0.00     0.000 A 
ATOM     18  C   UNL d   1     -52.340  24.247  33.331  0.00  0.00     0.002 A 
BRANCH  14  19
ATOM     19  O   UNL d   1     -50.870  23.825  33.499  0.00  0.00    -0.328 OA
ATOM     20  C   UNL d   1     -50.540  23.381  33.333  0.00  0.00     0.181 C 
ENDBRANCH  14  19
ENDBRANCH   1  13
TORSDOF 2
ENDMDL
