MODEL 1
REMARK VINA RESULT:      -5.6      0.000      0.000
REMARK  3 active torsions:
REMARK  status: ('A' for Active; 'I' for Inactive)
REMARK    1  A    between atoms: S_6  and  C_2 
REMARK    2  A    between atoms: C_9  and  S_6 
REMARK    3  A    between atoms: C_7  and  C_9 
ROOT
ATOM      1  N   UNL d   1      53.534  31.348  53.628  0.00  0.00    -0.196 NA
ATOM      2  C   UNL d   1      53.577  32.165  53.470  0.00  0.00     0.213 A 
ATOM      3  N   UNL d   1      52.684  31.622  52.625  0.00  0.00    -0.123 NA
ATOM      4  N   UNL d   1      53.053  32.331  52.853  0.00  0.00    -0.120 NA
ATOM      5  C   UNL d   1      52.978  31.018  53.100  0.00  0.00     0.224 A 
ENDROOT
BRANCH   2   6
ATOM      6  S   UNL d   1      54.057  32.707  53.862  0.00  0.00    -0.062 SA
BRANCH   6   7
ATOM      7  C   UNL d   1      53.854  32.973  54.621  0.00  0.00     0.162 C 
BRANCH   7   8
ATOM      8  C   UNL d   1      54.291  33.569  54.988  0.00  0.00     0.197 C 
ATOM      9  O   UNL d   1      53.940  34.311  55.127  0.00  0.00    -0.647 OA
ATOM     10  O   UNL d   1      55.072  33.431  55.215  0.00  0.00    -0.647 OA
ENDBRANCH   7   8
ENDBRANCH   6   7
ENDBRANCH   2   6
TORSDOF 3
ENDMDL
MODEL 2
REMARK VINA RESULT:      -5.4      2.318      2.987
REMARK  3 active torsions:
REMARK  status: ('A' for Active; 'I' for Inactive)
REMARK    1  A    between atoms: S_6  and  C_2 
REMARK    2  A    between atoms: C_9  and  S_6 
REMARK    3  A    between atoms: C_7  and  C_9 
ROOT
ATOM      1  N   UNL d   1      53.823  32.842  54.956  0.00  0.00    -0.196 NA
ATOM      2  C   UNL d   1      53.961  32.647  54.157  0.00  0.00     0.213 A 
ATOM      3  N   UNL d   1      55.034  33.312  54.618  0.00  0.00    -0.123 NA
ATOM      4  N   UNL d   1      54.707  32.937  53.952  0.00  0.00    -0.120 NA
ATOM      5  C   UNL d   1      54.492  33.254  55.234  0.00  0.00     0.224 A 
ENDROOT
BRANCH   2   6
ATOM      6  S   UNL d   1      53.443  32.238  53.665  0.00  0.00    -0.062 SA
BRANCH   6   7
ATOM      7  C   UNL d   1      53.562  31.431  53.511  0.00  0.00     0.162 C 
BRANCH   7   8
ATOM      8  C   UNL d   1      53.025  31.008  53.048  0.00  0.00     0.197 C 
ATOM      9  O   UNL d   1      52.864  30.212  53.230  0.00  0.00    -0.647 OA
ATOM     10  O   UNL d   1      52.651  31.373  52.410  0.00  0.00    -0.647 OA
ENDBRANCH   7   8
ENDBRANCH   6   7
ENDBRANCH   2   6
TORSDOF 3
ENDMDL
MODEL 3
REMARK VINA RESULT:      -5.2      0.832      1.134
REMARK  3 active torsions:
REMARK  status: ('A' for Active; 'I' for Inactive)
REMARK    1  A    between atoms: S_6  and  C_2 
REMARK    2  A    between atoms: C_9  and  S_6 
REMARK    3  A    between atoms: C_7  and  C_9 
ROOT
ATOM      1  N   UNL d   1      53.516  31.759  53.645  0.00  0.00    -0.196 NA
ATOM      2  C   UNL d   1      53.267  32.496  53.346  0.00  0.00     0.213 A 
ATOM      3  N   UNL d   1      52.676  31.531  52.623  0.00  0.00    -0.123 NA
ATOM      4  N   UNL d   1      52.750  32.353  52.717  0.00  0.00    -0.120 NA
ATOM      5  C   UNL d   1      53.145  31.165  53.192  0.00  0.00     0.224 A 
ENDROOT
BRANCH   2   6
ATOM      6  S   UNL d   1      53.499  33.234  53.630  0.00  0.00    -0.062 SA
BRANCH   6   7
ATOM      7  C   UNL d   1      53.053  33.615  54.217  0.00  0.00     0.162 C 
BRANCH   7   8
ATOM      8  C   UNL d   1      53.265  34.366  54.484  0.00  0.00     0.197 C 
ATOM      9  O   UNL d   1      53.888  34.448  55.031  0.00  0.00    -0.647 OA
ATOM     10  O   UNL d   1      52.862  35.032  54.211  0.00  0.00    -0.647 OA
ENDBRANCH   7   8
ENDBRANCH   6   7
ENDBRANCH   2   6
TORSDOF 3
ENDMDL
MODEL 4
REMARK VINA RESULT:      -5.0      1.764      2.061
REMARK  3 active torsions:
REMARK  status: ('A' for Active; 'I' for Inactive)
REMARK    1  A    between atoms: S_6  and  C_2 
REMARK    2  A    between atoms: C_9  and  S_6 
REMARK    3  A    between atoms: C_7  and  C_9 
ROOT
ATOM      1  N   UNL d   1      52.267  33.536  53.556  0.00  0.00    -0.196 NA
ATOM      2  C   UNL d   1      52.798  34.095  53.873  0.00  0.00     0.213 A 
ATOM      3  N   UNL d   1      52.170  34.660  52.829  0.00  0.00    -0.123 NA
ATOM      4  N   UNL d   1      52.736  34.786  53.424  0.00  0.00    -0.120 NA
ATOM      5  C   UNL d   1      51.881  33.894  52.909  0.00  0.00     0.224 A 
ENDROOT
BRANCH   2   6
ATOM      6  S   UNL d   1      53.294  33.975  54.520  0.00  0.00    -0.062 SA
BRANCH   6   7
ATOM      7  C   UNL d   1      54.015  33.576  54.425  0.00  0.00     0.162 C 
BRANCH   7   8
ATOM      8  C   UNL d   1      54.510  33.445  55.072  0.00  0.00     0.197 C 
ATOM      9  O   UNL d   1      54.374  32.791  55.569  0.00  0.00    -0.647 OA
ATOM     10  O   UNL d   1      55.137  33.959  55.225  0.00  0.00    -0.647 OA
ENDBRANCH   7   8
ENDBRANCH   6   7
ENDBRANCH   2   6
TORSDOF 3
ENDMDL
MODEL 5
REMARK VINA RESULT:      -4.9      2.481      3.031
REMARK  3 active torsions:
REMARK  status: ('A' for Active; 'I' for Inactive)
REMARK    1  A    between atoms: S_6  and  C_2 
REMARK    2  A    between atoms: C_9  and  S_6 
REMARK    3  A    between atoms: C_7  and  C_9 
ROOT
ATOM      1  N   UNL d   1      54.101  33.151  54.790  0.00  0.00    -0.196 NA
ATOM      2  C   UNL d   1      53.655  33.846  54.676  0.00  0.00     0.213 A 
ATOM      3  N   UNL d   1      54.830  34.189  55.230  0.00  0.00    -0.123 NA
ATOM      4  N   UNL d   1      54.106  34.483  54.948  0.00  0.00    -0.120 NA
ATOM      5  C   UNL d   1      54.828  33.372  55.134  0.00  0.00     0.224 A 
ENDROOT
BRANCH   2   6
ATOM      6  S   UNL d   1      52.900  33.886  54.350  0.00  0.00    -0.062 SA
BRANCH   6   7
ATOM      7  C   UNL d   1      52.798  33.861  53.528  0.00  0.00     0.162 C 
BRANCH   7   8
ATOM      8  C   UNL d   1      52.047  33.943  53.195  0.00  0.00     0.197 C 
ATOM      9  O   UNL d   1      51.926  34.494  52.583  0.00  0.00    -0.647 OA
ATOM     10  O   UNL d   1      51.421  33.480  53.467  0.00  0.00    -0.647 OA
ENDBRANCH   7   8
ENDBRANCH   6   7
ENDBRANCH   2   6
TORSDOF 3
ENDMDL
MODEL 6
REMARK VINA RESULT:      -4.8      2.600      3.132
REMARK  3 active torsions:
REMARK  status: ('A' for Active; 'I' for Inactive)
REMARK    1  A    between atoms: S_6  and  C_2 
REMARK    2  A    between atoms: C_9  and  S_6 
REMARK    3  A    between atoms: C_7  and  C_9 
ROOT
ATOM      1  N   UNL d   1      52.752  32.216  53.045  0.00  0.00    -0.196 NA
ATOM      2  C   UNL d   1      53.269  31.592  53.240  0.00  0.00     0.213 A 
ATOM      3  N   UNL d   1      53.923  32.752  53.421  0.00  0.00    -0.123 NA
ATOM      4  N   UNL d   1      53.989  31.925  53.471  0.00  0.00    -0.120 NA
ATOM      5  C   UNL d   1      53.164  32.931  53.159  0.00  0.00     0.224 A 
ENDROOT
BRANCH   2   6
ATOM      6  S   UNL d   1      53.090  30.789  53.206  0.00  0.00    -0.062 SA
BRANCH   6   7
ATOM      7  C   UNL d   1      53.264  30.295  53.849  0.00  0.00     0.162 C 
BRANCH   7   8
ATOM      8  C   UNL d   1      53.028  29.504  53.847  0.00  0.00     0.197 C 
ATOM      9  O   UNL d   1      52.485  29.238  53.275  0.00  0.00    -0.647 OA
ATOM     10  O   UNL d   1      53.328  28.981  54.410  0.00  0.00    -0.647 OA
ENDBRANCH   7   8
ENDBRANCH   6   7
ENDBRANCH   2   6
TORSDOF 3
ENDMDL
MODEL 7
REMARK VINA RESULT:      -4.7      1.386      1.748
REMARK  3 active torsions:
REMARK  status: ('A' for Active; 'I' for Inactive)
REMARK    1  A    between atoms: S_6  and  C_2 
REMARK    2  A    between atoms: C_9  and  S_6 
REMARK    3  A    between atoms: C_7  and  C_9 
ROOT
ATOM      1  N   UNL d   1      53.594  30.206  53.897  0.00  0.00    -0.196 NA
ATOM      2  C   UNL d   1      53.220  30.757  53.397  0.00  0.00     0.213 A 
ATOM      3  N   UNL d   1      52.530  29.606  53.341  0.00  0.00    -0.123 NA
ATOM      4  N   UNL d   1      52.565  30.386  53.056  0.00  0.00    -0.120 NA
ATOM      5  C   UNL d   1      53.160  29.494  53.857  0.00  0.00     0.224 A 
ENDROOT
BRANCH   2   6
ATOM      6  S   UNL d   1      53.463  31.534  53.268  0.00  0.00    -0.062 SA
BRANCH   6   7
ATOM      7  C   UNL d   1      53.800  31.974  53.885  0.00  0.00     0.162 C 
BRANCH   7   8
ATOM      8  C   UNL d   1      54.059  32.747  53.757  0.00  0.00     0.197 C 
ATOM      9  O   UNL d   1      54.845  32.884  53.523  0.00  0.00    -0.647 OA
ATOM     10  O   UNL d   1      53.540  33.380  53.862  0.00  0.00    -0.647 OA
ENDBRANCH   7   8
ENDBRANCH   6   7
ENDBRANCH   2   6
TORSDOF 3
ENDMDL
MODEL 8
REMARK VINA RESULT:      -3.3     10.022     10.236
REMARK  3 active torsions:
REMARK  status: ('A' for Active; 'I' for Inactive)
REMARK    1  A    between atoms: S_6  and  C_2 
REMARK    2  A    between atoms: C_9  and  S_6 
REMARK    3  A    between atoms: C_7  and  C_9 
ROOT
ATOM      1  N   UNL d   1      45.071  28.287  57.135  0.00  0.00    -0.196 NA
ATOM      2  C   UNL d   1      45.085  28.497  57.942  0.00  0.00     0.213 A 
ATOM      3  N   UNL d   1      45.593  27.259  57.824  0.00  0.00    -0.123 NA
ATOM      4  N   UNL d   1      45.407  27.863  58.363  0.00  0.00    -0.120 NA
ATOM      5  C   UNL d   1      45.388  27.518  57.070  0.00  0.00     0.224 A 
ENDROOT
BRANCH   2   6
ATOM      6  S   UNL d   1      44.824  29.212  58.258  0.00  0.00    -0.062 SA
BRANCH   6   7
ATOM      7  C   UNL d   1      45.354  29.713  58.652  0.00  0.00     0.162 C 
BRANCH   7   8
ATOM      8  C   UNL d   1      45.108  30.451  58.927  0.00  0.00     0.197 C 
ATOM      9  O   UNL d   1      44.832  30.528  59.709  0.00  0.00    -0.647 OA
ATOM     10  O   UNL d   1      45.136  31.109  58.430  0.00  0.00    -0.647 OA
ENDBRANCH   7   8
ENDBRANCH   6   7
ENDBRANCH   2   6
TORSDOF 3
ENDMDL
MODEL 9
REMARK VINA RESULT:      -3.3     10.246     10.548
REMARK  3 active torsions:
REMARK  status: ('A' for Active; 'I' for Inactive)
REMARK    1  A    between atoms: S_6  and  C_2 
REMARK    2  A    between atoms: C_9  and  S_6 
REMARK    3  A    between atoms: C_7  and  C_9 
ROOT
ATOM      1  N   UNL d   1      44.729  29.913  57.784  0.00  0.00    -0.196 NA
ATOM      2  C   UNL d   1      45.031  29.205  58.104  0.00  0.00     0.213 A 
ATOM      3  N   UNL d   1      45.413  30.219  58.898  0.00  0.00    -0.123 NA
ATOM      4  N   UNL d   1      45.451  29.396  58.789  0.00  0.00    -0.120 NA
ATOM      5  C   UNL d   1      44.970  30.537  58.282  0.00  0.00     0.224 A 
ENDROOT
BRANCH   2   6
ATOM      6  S   UNL d   1      44.926  28.451  57.788  0.00  0.00    -0.062 SA
BRANCH   6   7
ATOM      7  C   UNL d   1      45.525  27.882  57.858  0.00  0.00     0.162 C 
BRANCH   7   8
ATOM      8  C   UNL d   1      45.450  27.146  57.493  0.00  0.00     0.197 C 
ATOM      9  O   UNL d   1      45.056  26.528  57.889  0.00  0.00    -0.647 OA
ATOM     10  O   UNL d   1      45.764  27.023  56.740  0.00  0.00    -0.647 OA
ENDBRANCH   7   8
ENDBRANCH   6   7
ENDBRANCH   2   6
TORSDOF 3
ENDMDL
