MODEL 1
REMARK VINA RESULT:      45.7      0.000      0.000
REMARK  4 active torsions:
REMARK  status: ('A' for Active; 'I' for Inactive)
REMARK    1  A    between atoms: C_7  and  C_2 
REMARK    2  A    between atoms: C_12  and  C_4 
REMARK    3  A    between atoms: C_11  and  C_7 
REMARK    4  A    between atoms: N_18  and  C_12 
ROOT
ATOM      1  C   UNL d   1     -57.938 -98.973 -44.884  0.00  0.00     0.108 A 
ATOM      2  C   UNL d   1     -59.190 -98.848 -45.345  0.00  0.00     0.141 A 
ATOM      3  C   UNL d   1     -58.443 -98.911 -44.235  0.00  0.00     0.064 A 
ATOM      4  C   UNL d   1     -57.128 -99.057 -44.769  0.00  0.00     0.079 A 
ATOM      5  O   UNL d   1     -58.397 -98.934 -45.573  0.00  0.00    -0.304 OA
ATOM      6  C   UNL d   1     -59.216 -98.834 -44.521  0.00  0.00     0.220 A 
ATOM      7  C   UNL d   1     -58.141 -98.933 -43.467  0.00  0.00     0.008 A 
ATOM      8  C   UNL d   1     -56.821 -99.079 -44.005  0.00  0.00     0.199 A 
ATOM      9  C   UNL d   1     -57.329 -99.017 -43.352  0.00  0.00     0.042 A 
ATOM     10  O   UNL d   1     -59.901 -98.756 -44.060  0.00  0.00    -0.284 OA
ATOM     11  O   UNL d   1     -56.014 -99.162 -43.886  0.00  0.00    -0.286 OA
ATOM     12  C   UNL d   1     -58.646 -98.871 -42.818  0.00  0.00     0.000 C 
ENDROOT
BRANCH   2  13
ATOM     13  C   UNL d   1     -59.836 -98.787 -45.854  0.00  0.00     0.053 C 
BRANCH  13  14
ATOM     14  C   UNL d   1     -59.808 -99.148 -46.602  0.00  0.00     0.102 A 
ATOM     15  O   UNL d   1     -59.867 -99.955 -46.751  0.00  0.00    -0.305 OA
ATOM     16  C   UNL d   1     -59.812-100.063 -47.566  0.00  0.00     0.123 A 
ATOM     17  C   UNL d   1     -59.720 -99.324 -47.915  0.00  0.00     0.029 A 
ATOM     18  C   UNL d   1     -59.718 -98.756 -47.312  0.00  0.00     0.027 A 
ENDBRANCH  13  14
ENDBRANCH   2  13
BRANCH   4  19
ATOM     19  C   UNL d   1     -56.618 -99.120 -45.416  0.00  0.00     0.086 C 
BRANCH  19  20
ATOM     20  N   UNL d   1     -55.805 -99.088 -45.305  0.00  0.00    -0.300 N 
ATOM     21  C   UNL d   1     -55.486 -99.148 -44.546  0.00  0.00     0.100 C 
ATOM     22  C   UNL d   1     -55.295 -98.995 -45.954  0.00  0.00     0.100 C 
ENDBRANCH  19  20
ENDBRANCH   4  19
TORSDOF 4
ENDMDL
