MODEL 1
REMARK VINA RESULT:      73.9      0.000      0.000
REMARK  5 active torsions:
REMARK  status: ('A' for Active; 'I' for Inactive)
REMARK    1  A    between atoms: N_2  and  S_1 
REMARK    2  A    between atoms: C_5  and  S_1 
REMARK    3  A    between atoms: S_8  and  C_3 
REMARK    4  A    between atoms: C_18  and  S_8 
REMARK    5  A    between atoms: C_17  and  C_18 
ROOT
ATOM      1  N   UNL d   1      60.975  48.734  50.569  0.00  0.00    -0.208 N 
ATOM      2  C   UNL d   1      60.570  49.367  50.207  0.00  0.00     0.189 A 
ATOM      3  N   UNL d   1      61.072  49.704  49.639  0.00  0.00    -0.219 NA
ATOM      4  C   UNL d   1      61.731  48.683  50.221  0.00  0.00     0.114 A 
ATOM      5  C   UNL d   1      61.786  49.280  49.651  0.00  0.00     0.121 A 
ENDROOT
BRANCH   1   6
ATOM      6  S   UNL d   1      60.674  48.245  51.169  0.00  0.00     0.273 S 
ATOM      7  O   UNL d   1      60.248  47.658  51.572  0.00  0.00    -0.200 OA
ATOM      8  O   UNL d   1      60.230  47.869  50.592  0.00  0.00    -0.200 OA
BRANCH   6   9
ATOM      9  C   UNL d   1      61.116  48.613  51.767  0.00  0.00     0.104 A 
ATOM     10  C   UNL d   1      60.721  49.015  52.369  0.00  0.00     0.014 A 
ATOM     11  C   UNL d   1      61.169  49.379  52.960  0.00  0.00     0.012 A 
ATOM     12  C   UNL d   1      61.993  49.340  52.948  0.00  0.00     0.058 A 
ATOM     13  C   UNL d   1      62.382  48.936  52.344  0.00  0.00     0.012 A 
ATOM     14 CL   UNL d   1      62.434  49.707  53.544  0.00  0.00    -0.082 Cl
ATOM     15  C   UNL d   1      61.929  48.571  51.749  0.00  0.00     0.014 A 
ENDBRANCH   6   9
ENDBRANCH   1   6
BRANCH   2  16
ATOM     16  S   UNL d   1      59.794  49.616  50.386  0.00  0.00    -0.049 SA
BRANCH  16  17
ATOM     17  C   UNL d   1      59.203  49.562  49.811  0.00  0.00     0.038 C 
BRANCH  17  18
ATOM     18  C   UNL d   1      58.413  49.571  50.037  0.00  0.00     0.007 A 
ATOM     19  C   UNL d   1      58.201  49.632  50.834  0.00  0.00     0.013 A 
ATOM     20  C   UNL d   1      57.410  49.641  51.057  0.00  0.00     0.068 A 
ATOM     21 CL   UNL d   1      57.221  49.702  51.853  0.00  0.00    -0.082 Cl
ATOM     22  C   UNL d   1      56.825  49.589  50.478  0.00  0.00     0.068 A 
ATOM     23  C   UNL d   1      57.017  49.529  49.689  0.00  0.00     0.012 A 
ATOM     24 CL   UNL d   1      56.033  49.599  50.710  0.00  0.00    -0.082 Cl
ATOM     25  C   UNL d   1      57.820  49.519  49.462  0.00  0.00     0.001 A 
ENDBRANCH  17  18
ENDBRANCH  16  17
ENDBRANCH   2  16
TORSDOF 5
ENDMDL
