MODEL 1
REMARK VINA RESULT:      -7.8      0.000      0.000
REMARK  2 active torsions:
REMARK  status: ('A' for Active; 'I' for Inactive)
REMARK    1  A    between atoms: N_3  and  C_1 
REMARK    2  A    between atoms: C_13  and  N_6 
ROOT
ATOM      1  C   UNL d   1     -49.165  13.131  22.697  0.00  0.00     0.143 A 
ATOM      2  C   UNL d   1     -48.444  13.478  22.462  0.00  0.00     0.297 A 
ATOM      3  C   UNL d   1     -49.002  12.495  23.170  0.00  0.00     0.102 A 
ATOM      4  N   UNL d   1     -48.176  12.431  23.241  0.00  0.00    -0.238 N 
ATOM      5  N   UNL d   1     -47.836  13.037  22.804  0.00  0.00    -0.209 N 
ATOM      6  O   UNL d   1     -48.346  14.135  21.982  0.00  0.00    -0.264 OA
ATOM      7  C   UNL d   1     -47.778  11.848  23.681  0.00  0.00     0.120 C 
ATOM      8  C   UNL d   1     -49.559  11.992  23.524  0.00  0.00     0.022 C 
ENDROOT
BRANCH   1   9
ATOM      9  N   UNL d   1     -49.916  13.406  22.474  0.00  0.00    -0.254 N 
ATOM     10  C   UNL d   1     -50.353  13.981  22.883  0.00  0.00     0.153 A 
ATOM     11  S   UNL d   1     -51.064  14.087  22.472  0.00  0.00    -0.053 SA
ATOM     12  S   UNL d   1     -50.117  14.366  23.566  0.00  0.00    -0.052 SA
ATOM     13  C   UNL d   1     -51.055  13.581  21.822  0.00  0.00     0.099 A 
ATOM     14  C   UNL d   1     -50.349  13.165  21.827  0.00  0.00     0.273 A 
ATOM     15  O   UNL d   1     -50.120  12.597  21.266  0.00  0.00    -0.266 OA
ENDBRANCH   1   9
BRANCH   5  16
ATOM     16  C   UNL d   1     -47.034  13.197  22.709  0.00  0.00     0.085 A 
ATOM     17  C   UNL d   1     -46.648  13.721  23.218  0.00  0.00     0.019 A 
ATOM     18  C   UNL d   1     -45.847  13.873  23.113  0.00  0.00     0.002 A 
ATOM     19  C   UNL d   1     -45.428  13.514  22.515  0.00  0.00     0.000 A 
ATOM     20  C   UNL d   1     -45.802  12.996  22.008  0.00  0.00     0.002 A 
ATOM     21  C   UNL d   1     -46.610  12.833  22.102  0.00  0.00     0.019 A 
ENDBRANCH   5  16
TORSDOF 2
ENDMDL
MODEL 2
REMARK VINA RESULT:      -7.7      1.227      1.607
REMARK  2 active torsions:
REMARK  status: ('A' for Active; 'I' for Inactive)
REMARK    1  A    between atoms: N_3  and  C_1 
REMARK    2  A    between atoms: C_13  and  N_6 
ROOT
ATOM      1  C   UNL d   1     -49.343  13.865  22.616  0.00  0.00     0.143 A 
ATOM      2  C   UNL d   1     -48.592  13.791  22.969  0.00  0.00     0.297 A 
ATOM      3  C   UNL d   1     -49.354  13.421  21.939  0.00  0.00     0.102 A 
ATOM      4  N   UNL d   1     -48.610  13.060  21.855  0.00  0.00    -0.238 N 
ATOM      5  N   UNL d   1     -48.144  13.290  22.491  0.00  0.00    -0.209 N 
ATOM      6  O   UNL d   1     -48.336  14.145  23.662  0.00  0.00    -0.264 OA
ATOM      7  C   UNL d   1     -48.391  12.556  21.231  0.00  0.00     0.120 C 
ATOM      8  C   UNL d   1     -49.994  13.338  21.418  0.00  0.00     0.022 C 
ENDROOT
BRANCH   1   9
ATOM      9  N   UNL d   1     -49.966  14.323  22.920  0.00  0.00    -0.254 N 
ATOM     10  C   UNL d   1     -50.562  14.041  23.423  0.00  0.00     0.153 A 
ATOM     11  S   UNL d   1     -51.064  14.676  23.591  0.00  0.00    -0.053 SA
ATOM     12  S   UNL d   1     -50.633  13.272  23.698  0.00  0.00    -0.052 SA
ATOM     13  C   UNL d   1     -50.773  15.337  23.193  0.00  0.00     0.099 A 
ATOM     14  C   UNL d   1     -50.099  15.115  22.783  0.00  0.00     0.273 A 
ATOM     15  O   UNL d   1     -49.636  15.617  22.310  0.00  0.00    -0.266 OA
ENDBRANCH   1   9
BRANCH   5  16
ATOM     16  C   UNL d   1     -47.364  13.072  22.645  0.00  0.00     0.085 A 
ATOM     17  C   UNL d   1     -47.199  12.421  23.126  0.00  0.00     0.019 A 
ATOM     18  C   UNL d   1     -46.417  12.213  23.272  0.00  0.00     0.002 A 
ATOM     19  C   UNL d   1     -45.803  12.640  22.951  0.00  0.00     0.000 A 
ATOM     20  C   UNL d   1     -45.959  13.285  22.475  0.00  0.00     0.002 A 
ATOM     21  C   UNL d   1     -46.743  13.506  22.318  0.00  0.00     0.019 A 
ENDBRANCH   5  16
TORSDOF 2
ENDMDL
MODEL 3
REMARK VINA RESULT:      -7.3      1.689      3.610
REMARK  2 active torsions:
REMARK  status: ('A' for Active; 'I' for Inactive)
REMARK    1  A    between atoms: N_3  and  C_1 
REMARK    2  A    between atoms: C_13  and  N_6 
ROOT
ATOM      1  C   UNL d   1     -48.181  13.057  22.620  0.00  0.00     0.143 A 
ATOM      2  C   UNL d   1     -48.573  13.668  23.030  0.00  0.00     0.297 A 
ATOM      3  C   UNL d   1     -48.643  12.831  21.994  0.00  0.00     0.102 A 
ATOM      4  N   UNL d   1     -49.331  13.296  21.999  0.00  0.00    -0.238 N 
ATOM      5  N   UNL d   1     -49.285  13.810  22.638  0.00  0.00    -0.209 N 
ATOM      6  O   UNL d   1     -48.309  14.061  23.698  0.00  0.00    -0.264 OA
ATOM      7  C   UNL d   1     -49.951  13.240  21.448  0.00  0.00     0.120 C 
ATOM      8  C   UNL d   1     -48.462  12.239  21.441  0.00  0.00     0.022 C 
ENDROOT
BRANCH   1   9
ATOM      9  N   UNL d   1     -47.442  12.744  22.832  0.00  0.00    -0.254 N 
ATOM     10  C   UNL d   1     -47.328  12.085  23.323  0.00  0.00     0.153 A 
ATOM     11  S   UNL d   1     -46.511  11.964  23.388  0.00  0.00    -0.053 SA
ATOM     12  S   UNL d   1     -47.920  11.641  23.674  0.00  0.00    -0.052 SA
ATOM     13  C   UNL d   1     -46.137  12.547  22.940  0.00  0.00     0.099 A 
ATOM     14  C   UNL d   1     -46.712  13.022  22.601  0.00  0.00     0.273 A 
ATOM     15  O   UNL d   1     -46.568  13.674  22.107  0.00  0.00    -0.266 OA
ENDBRANCH   1   9
BRANCH   5  16
ATOM     16  C   UNL d   1     -49.839  14.375  22.867  0.00  0.00     0.085 A 
ATOM     17  C   UNL d   1     -50.512  14.155  23.292  0.00  0.00     0.019 A 
ATOM     18  C   UNL d   1     -51.057  14.728  23.515  0.00  0.00     0.002 A 
ATOM     19  C   UNL d   1     -50.944  15.511  23.324  0.00  0.00     0.000 A 
ATOM     20  C   UNL d   1     -50.281  15.736  22.904  0.00  0.00     0.002 A 
ATOM     21  C   UNL d   1     -49.722  15.168  22.673  0.00  0.00     0.019 A 
ENDBRANCH   5  16
TORSDOF 2
ENDMDL
MODEL 4
REMARK VINA RESULT:      -5.9      8.968      9.751
REMARK  2 active torsions:
REMARK  status: ('A' for Active; 'I' for Inactive)
REMARK    1  A    between atoms: N_3  and  C_1 
REMARK    2  A    between atoms: C_13  and  N_6 
ROOT
ATOM      1  C   UNL d   1     -39.922  14.957  19.089  0.00  0.00     0.143 A 
ATOM      2  C   UNL d   1     -39.470  14.578  19.678  0.00  0.00     0.297 A 
ATOM      3  C   UNL d   1     -40.461  15.442  19.451  0.00  0.00     0.102 A 
ATOM      4  N   UNL d   1     -40.356  15.375  20.273  0.00  0.00    -0.238 N 
ATOM      5  N   UNL d   1     -39.746  14.843  20.409  0.00  0.00    -0.209 N 
ATOM      6  O   UNL d   1     -38.863  14.040  19.563  0.00  0.00    -0.264 OA
ATOM      7  C   UNL d   1     -40.800  15.783  20.846  0.00  0.00     0.120 C 
ATOM      8  C   UNL d   1     -41.020  15.922  19.071  0.00  0.00     0.022 C 
ENDROOT
BRANCH   1   9
ATOM      9  N   UNL d   1     -39.824  14.845  18.272  0.00  0.00    -0.254 N 
ATOM     10  C   UNL d   1     -39.326  15.298  17.787  0.00  0.00     0.153 A 
ATOM     11  S   UNL d   1     -39.396  15.000  17.017  0.00  0.00    -0.053 SA
ATOM     12  S   UNL d   1     -38.856  15.922  18.032  0.00  0.00    -0.052 SA
ATOM     13  C   UNL d   1     -39.931  14.374  17.039  0.00  0.00     0.099 A 
ATOM     14  C   UNL d   1     -40.191  14.282  17.811  0.00  0.00     0.273 A 
ATOM     15  O   UNL d   1     -40.735  13.712  18.072  0.00  0.00    -0.266 OA
ENDBRANCH   1   9
BRANCH   5  16
ATOM     16  C   UNL d   1     -39.445  14.601  21.137  0.00  0.00     0.085 A 
ATOM     17  C   UNL d   1     -38.856  15.040  21.513  0.00  0.00     0.019 A 
ATOM     18  C   UNL d   1     -38.563  14.789  22.239  0.00  0.00     0.002 A 
ATOM     19  C   UNL d   1     -38.846  14.112  22.593  0.00  0.00     0.000 A 
ATOM     20  C   UNL d   1     -39.428  13.673  22.226  0.00  0.00     0.002 A 
ATOM     21  C   UNL d   1     -39.733  13.915  21.493  0.00  0.00     0.019 A 
ENDBRANCH   5  16
TORSDOF 2
ENDMDL
MODEL 5
REMARK VINA RESULT:      -5.9      9.217     10.429
REMARK  2 active torsions:
REMARK  status: ('A' for Active; 'I' for Inactive)
REMARK    1  A    between atoms: N_3  and  C_1 
REMARK    2  A    between atoms: C_13  and  N_6 
ROOT
ATOM      1  C   UNL d   1     -39.476  14.644  17.864  0.00  0.00     0.143 A 
ATOM      2  C   UNL d   1     -39.384  14.634  18.692  0.00  0.00     0.297 A 
ATOM      3  C   UNL d   1     -40.162  15.037  17.687  0.00  0.00     0.102 A 
ATOM      4  N   UNL d   1     -40.512  15.280  18.400  0.00  0.00    -0.238 N 
ATOM      5  N   UNL d   1     -40.030  15.031  19.017  0.00  0.00    -0.209 N 
ATOM      6  O   UNL d   1     -38.769  14.296  19.115  0.00  0.00    -0.264 OA
ATOM      7  C   UNL d   1     -41.226  15.702  18.463  0.00  0.00     0.120 C 
ATOM      8  C   UNL d   1     -40.465  15.174  16.926  0.00  0.00     0.022 C 
ENDROOT
BRANCH   1   9
ATOM      9  N   UNL d   1     -38.945  14.303  17.324  0.00  0.00    -0.254 N 
ATOM     10  C   UNL d   1     -38.335  14.710  16.936  0.00  0.00     0.153 A 
ATOM     11  S   UNL d   1     -37.942  14.164  16.453  0.00  0.00    -0.053 SA
ATOM     12  S   UNL d   1     -38.160  15.506  17.021  0.00  0.00    -0.052 SA
ATOM     13  C   UNL d   1     -38.313  13.434  16.550  0.00  0.00     0.099 A 
ATOM     14  C   UNL d   1     -38.927  13.525  17.085  0.00  0.00     0.273 A 
ATOM     15  O   UNL d   1     -39.440  12.922  17.337  0.00  0.00    -0.266 OA
ENDBRANCH   1   9
BRANCH   5  16
ATOM     16  C   UNL d   1     -40.150  15.145  19.824  0.00  0.00     0.085 A 
ATOM     17  C   UNL d   1     -39.854  15.817  20.200  0.00  0.00     0.019 A 
ATOM     18  C   UNL d   1     -39.980  15.920  21.006  0.00  0.00     0.002 A 
ATOM     19  C   UNL d   1     -40.393  15.368  21.439  0.00  0.00     0.000 A 
ATOM     20  C   UNL d   1     -40.689  14.701  21.073  0.00  0.00     0.002 A 
ATOM     21  C   UNL d   1     -40.569  14.584  20.261  0.00  0.00     0.019 A 
ENDBRANCH   5  16
TORSDOF 2
ENDMDL
MODEL 6
REMARK VINA RESULT:      -5.4      9.341     10.183
REMARK  2 active torsions:
REMARK  status: ('A' for Active; 'I' for Inactive)
REMARK    1  A    between atoms: N_3  and  C_1 
REMARK    2  A    between atoms: C_13  and  N_6 
ROOT
ATOM      1  C   UNL d   1     -39.258  14.832  19.958  0.00  0.00     0.143 A 
ATOM      2  C   UNL d   1     -39.717  15.259  19.408  0.00  0.00     0.297 A 
ATOM      3  C   UNL d   1     -38.874  14.237  19.565  0.00  0.00     0.102 A 
ATOM      4  N   UNL d   1     -39.085  14.280  18.763  0.00  0.00    -0.238 N 
ATOM      5  N   UNL d   1     -39.603  14.909  18.670  0.00  0.00    -0.209 N 
ATOM      6  O   UNL d   1     -40.194  15.906  19.563  0.00  0.00    -0.264 OA
ATOM      7  C   UNL d   1     -38.810  13.767  18.168  0.00  0.00     0.120 C 
ATOM      8  C   UNL d   1     -38.359  13.681  19.903  0.00  0.00     0.022 C 
ENDROOT
BRANCH   1   9
ATOM      9  N   UNL d   1     -39.213  15.002  20.770  0.00  0.00    -0.254 N 
ATOM     10  C   UNL d   1     -38.657  15.509  21.120  0.00  0.00     0.153 A 
ATOM     11  S   UNL d   1     -38.811  15.520  21.933  0.00  0.00    -0.053 SA
ATOM     12  S   UNL d   1     -38.068  15.919  20.726  0.00  0.00    -0.052 SA
ATOM     13  C   UNL d   1     -39.454  15.023  22.072  0.00  0.00     0.099 A 
ATOM     14  C   UNL d   1     -39.697  14.709  21.356  0.00  0.00     0.273 A 
ATOM     15  O   UNL d   1     -40.330  14.181  21.251  0.00  0.00    -0.266 OA
ENDBRANCH   1   9
BRANCH   5  16
ATOM     16  C   UNL d   1     -39.960  15.166  17.973  0.00  0.00     0.085 A 
ATOM     17  C   UNL d   1     -39.558  15.672  17.459  0.00  0.00     0.019 A 
ATOM     18  C   UNL d   1     -39.925  15.922  16.766  0.00  0.00     0.002 A 
ATOM     19  C   UNL d   1     -40.678  15.677  16.580  0.00  0.00     0.000 A 
ATOM     20  C   UNL d   1     -41.081  15.176  17.084  0.00  0.00     0.002 A 
ATOM     21  C   UNL d   1     -40.724  14.917  17.786  0.00  0.00     0.019 A 
ENDBRANCH   5  16
TORSDOF 2
ENDMDL
MODEL 7
REMARK VINA RESULT:      -5.2      8.736     10.183
REMARK  2 active torsions:
REMARK  status: ('A' for Active; 'I' for Inactive)
REMARK    1  A    between atoms: N_3  and  C_1 
REMARK    2  A    between atoms: C_13  and  N_6 
ROOT
ATOM      1  C   UNL d   1     -39.832  14.886  19.362  0.00  0.00     0.143 A 
ATOM      2  C   UNL d   1     -39.281  14.385  18.985  0.00  0.00     0.297 A 
ATOM      3  C   UNL d   1     -40.260  15.270  18.792  0.00  0.00     0.102 A 
ATOM      4  N   UNL d   1     -39.987  15.018  18.049  0.00  0.00    -0.238 N 
ATOM      5  N   UNL d   1     -39.385  14.474  18.172  0.00  0.00    -0.209 N 
ATOM      6  O   UNL d   1     -38.735  13.893  19.347  0.00  0.00    -0.264 OA
ATOM      7  C   UNL d   1     -40.282  15.281  17.317  0.00  0.00     0.120 C 
ATOM      8  C   UNL d   1     -40.868  15.820  18.925  0.00  0.00     0.022 C 
ENDROOT
BRANCH   1   9
ATOM      9  N   UNL d   1     -39.914  14.964  20.184  0.00  0.00    -0.254 N 
ATOM     10  C   UNL d   1     -39.442  15.448  20.665  0.00  0.00     0.153 A 
ATOM     11  S   UNL d   1     -39.711  15.361  21.443  0.00  0.00    -0.053 SA
ATOM     12  S   UNL d   1     -38.824  15.922  20.409  0.00  0.00    -0.052 SA
ATOM     13  C   UNL d   1     -40.341  14.829  21.430  0.00  0.00     0.099 A 
ATOM     14  C   UNL d   1     -40.461  14.588  20.657  0.00  0.00     0.273 A 
ATOM     15  O   UNL d   1     -41.044  14.053  20.403  0.00  0.00    -0.266 OA
ENDBRANCH   1   9
BRANCH   5  16
ATOM     16  C   UNL d   1     -38.946  14.074  17.600  0.00  0.00     0.085 A 
ATOM     17  C   UNL d   1     -39.070  13.269  17.465  0.00  0.00     0.019 A 
ATOM     18  C   UNL d   1     -38.626  12.881  16.892  0.00  0.00     0.002 A 
ATOM     19  C   UNL d   1     -38.067  13.279  16.455  0.00  0.00     0.000 A 
ATOM     20  C   UNL d   1     -37.940  14.075  16.582  0.00  0.00     0.002 A 
ATOM     21  C   UNL d   1     -38.380  14.479  17.158  0.00  0.00     0.019 A 
ENDBRANCH   5  16
TORSDOF 2
ENDMDL
