MODEL 1
REMARK VINA RESULT:       0.4      0.000      0.000
REMARK  8 active torsions:
REMARK  status: ('A' for Active; 'I' for Inactive)
REMARK    1  A    between atoms: C_9  and  S_1 
REMARK    2  A    between atoms: N_10  and  S_1 
REMARK    3  A    between atoms: C_17  and  C_3 
REMARK    4  A    between atoms: C_4  and  N_14 
REMARK    5  A    between atoms: C_8  and  C_16 
REMARK       I    between atoms: N_11  and  C_8 
REMARK    6  A    between atoms: C_27  and  N_10 
REMARK    7  A    between atoms: C_28  and  N_10 
REMARK    8  A    between atoms: N_14  and  N_11 
ROOT
ATOM      1  N   UNL d   1      32.224  18.645 -23.756  0.00  0.00     0.049 NA
ENDROOT
BRANCH   1   2
ATOM      2  C   UNL d   1      32.417  19.475 -23.567  0.00  0.00     0.768 A 
ATOM      3  N   UNL d   1      32.508  19.704 -22.784  0.00  0.00    -0.058 NA
ATOM      4  C   UNL d   1      32.688  20.480 -22.612  0.00  0.00     0.101 A 
ATOM      5  C   UNL d   1      32.783  21.050 -23.205  0.00  0.00     0.037 A 
ATOM      6  C   UNL d   1      32.685  20.792 -23.995  0.00  0.00     0.101 A 
ATOM      7  C   UNL d   1      32.961  21.820 -23.040  0.00  0.00     0.010 A 
ATOM      8  N   UNL d   1      32.505  20.022 -24.185  0.00  0.00    -0.058 NA
ATOM      9  C   UNL d   1      32.771  21.334 -24.619  0.00  0.00     0.020 A 
ATOM     10  C   UNL d   1      32.950  22.104 -24.453  0.00  0.00     0.008 A 
ATOM     11  C   UNL d   1      33.051  22.368 -23.633  0.00  0.00     0.035 A 
ATOM     12 BR   UNL d   1      33.239  23.174 -23.443  0.00  0.00    -0.049 Br
BRANCH   4  13
ATOM     13  C   UNL d   1      32.787  20.744 -21.829  0.00  0.00     0.018 A 
ATOM     14  C   UNL d   1      32.608  21.502 -21.614  0.00  0.00     0.002 A 
ATOM     15  C   UNL d   1      32.711  21.760 -20.825  0.00  0.00     0.000 A 
ATOM     16  C   UNL d   1      33.009  21.203 -20.255  0.00  0.00     0.000 A 
ATOM     17  C   UNL d   1      33.181  20.440 -20.507  0.00  0.00     0.000 A 
ATOM     18  C   UNL d   1      33.079  20.210 -21.257  0.00  0.00     0.002 A 
ENDBRANCH   4  13
ENDBRANCH   1   2
BRANCH   1  19
ATOM     19  N   UNL d   1      32.829  18.083 -23.819  0.00  0.00    -0.090 NA
ATOM     20  C   UNL d   1      32.661  17.298 -23.950  0.00  0.00     0.297 C 
ATOM     21  O   UNL d   1      33.239  16.749 -24.012  0.00  0.00    -0.264 OA
BRANCH  20  22
ATOM     22  C   UNL d   1      31.888  17.062 -24.021  0.00  0.00     0.059 A 
ATOM     23  C   UNL d   1      31.530  16.683 -23.379  0.00  0.00     0.006 A 
ATOM     24  C   UNL d   1      30.751  16.447 -23.454  0.00  0.00     0.013 A 
ATOM     25  C   UNL d   1      30.352  16.589 -24.148  0.00  0.00     0.104 A 
ATOM     26  C   UNL d   1      30.706  16.975 -24.810  0.00  0.00     0.013 A 
ATOM     27  C   UNL d   1      31.496  17.209 -24.722  0.00  0.00     0.006 A 
BRANCH  25  28
ATOM     28  S   UNL d   1      29.546  16.343 -24.222  0.00  0.00     0.271 S 
ATOM     29  O   UNL d   1      29.288  16.996 -23.782  0.00  0.00    -0.200 OA
ATOM     30  O   UNL d   1      29.760  15.671 -24.670  0.00  0.00    -0.200 OA
BRANCH  28  31
ATOM     31  N   UNL d   1      28.733  16.098 -24.295  0.00  0.00    -0.229 N 
BRANCH  31  32
ATOM     32  C   UNL d   1      28.160  16.375 -23.778  0.00  0.00     0.092 C 
ATOM     33  C   UNL d   1      27.764  15.871 -23.287  0.00  0.00     0.021 C 
ENDBRANCH  31  32
BRANCH  31  34
ATOM     34  C   UNL d   1      28.504  15.574 -24.890  0.00  0.00     0.092 C 
ATOM     35  C   UNL d   1      27.709  15.507 -25.097  0.00  0.00     0.021 C 
ENDBRANCH  31  34
ENDBRANCH  28  31
ENDBRANCH  25  28
ENDBRANCH  20  22
ENDBRANCH   1  19
TORSDOF 8
ENDMDL
