MODEL 1
REMARK VINA RESULT:      29.3      0.000      0.000
REMARK  3 active torsions:
REMARK  status: ('A' for Active; 'I' for Inactive)
REMARK    1  A    between atoms: S_2  and  N_1 
REMARK    2  A    between atoms: C_7  and  S_2 
REMARK    3  A    between atoms: C_14  and  C_6 
ROOT
ATOM      1  S   UNL d   1      13.792  12.620  -2.279  0.00  0.00     0.273 S 
ATOM      2  O   UNL d   1      13.965  11.929  -2.594  0.00  0.00    -0.200 OA
ATOM      3  O   UNL d   1      13.674  13.183  -1.817  0.00  0.00    -0.200 OA
ENDROOT
BRANCH   1   4
ATOM      4  N   UNL d   1      13.951  12.354  -1.601  0.00  0.00    -0.202 N 
ATOM      5  C   UNL d   1      13.489  11.938  -1.172  0.00  0.00     0.218 A 
ATOM      6  N   UNL d   1      13.853  11.779  -0.527  0.00  0.00    -0.178 NA
ATOM      7  S   UNL d   1      12.809  11.781  -1.463  0.00  0.00    -0.037 SA
ATOM      8  C   UNL d   1      14.530  12.098  -0.567  0.00  0.00     0.298 A 
ATOM      9  C   UNL d   1      14.593  12.452  -1.226  0.00  0.00     0.135 A 
ATOM     10  O   UNL d   1      15.037  12.048  -0.014  0.00  0.00    -0.264 OA
BRANCH   9  11
ATOM     11  C   UNL d   1      15.187  12.837  -1.473  0.00  0.00     0.022 C 
ATOM     12  C   UNL d   1      15.334  13.515  -1.187  0.00  0.00     0.002 C 
ATOM     13  C   UNL d   1      15.632  12.547  -2.004  0.00  0.00     0.002 C 
ENDBRANCH   9  11
ENDBRANCH   1   4
BRANCH   1  14
ATOM     14  C   UNL d   1      13.600  12.979  -2.998  0.00  0.00     0.104 A 
ATOM     15  C   UNL d   1      13.166  12.568  -3.571  0.00  0.00     0.012 A 
ATOM     16  C   UNL d   1      12.974  12.927  -4.290  0.00  0.00     0.001 A 
ATOM     17  C   UNL d   1      12.927  11.779  -3.403  0.00  0.00     0.001 C 
ATOM     18  C   UNL d   1      13.214  13.701  -4.442  0.00  0.00     0.000 A 
ATOM     19  C   UNL d   1      13.648  14.119  -3.875  0.00  0.00     0.001 A 
ATOM     20  C   UNL d   1      13.842  13.756  -3.149  0.00  0.00     0.013 A 
ATOM     21  C   UNL d   1      13.891  14.901  -4.028  0.00  0.00     0.000 C 
ENDBRANCH   1  14
TORSDOF 3
ENDMDL
