MODEL 1
REMARK VINA RESULT:      -4.9      0.000      0.000
REMARK  5 active torsions:
REMARK  status: ('A' for Active; 'I' for Inactive)
REMARK    1  A    between atoms: N_6  and  S_1 
REMARK    2  A    between atoms: C_8  and  S_1 
REMARK    3  A    between atoms: C_12  and  C_3 
REMARK    4  A    between atoms: C_4  and  C_11 
REMARK    5  A    between atoms: C_15  and  N_6 
ROOT
ATOM      1  C   UNL d   1     -44.755  13.086  22.171  0.00  0.00     0.018 A 
ATOM      2  C   UNL d   1     -46.210  13.008  22.939  0.00  0.00     0.094 A 
ATOM      3  C   UNL d   1     -45.235  13.758  22.226  0.00  0.00     0.003 A 
ATOM      4  C   UNL d   1     -45.010  12.375  22.504  0.00  0.00     0.003 A 
ATOM      5  C   UNL d   1     -45.962  13.719  22.610  0.00  0.00     0.020 A 
ATOM      6  C   UNL d   1     -45.732  12.336  22.885  0.00  0.00     0.020 A 
ENDROOT
BRANCH   1   7
ATOM      7  C   UNL d   1     -44.028  13.125  21.787  0.00  0.00     0.088 A 
ATOM      8  N   UNL d   1     -43.051  14.125  21.608  0.00  0.00    -0.239 NA
ATOM      9  C   UNL d   1     -42.595  13.602  21.173  0.00  0.00     0.111 A 
ATOM     10  S   UNL d   1     -42.854  12.842  21.045  0.00  0.00    -0.066 SA
ATOM     11  C   UNL d   1     -43.578  12.596  21.353  0.00  0.00     0.056 A 
BRANCH   9  12
ATOM     12  C   UNL d   1     -41.873  13.844  20.864  0.00  0.00     0.024 A 
ATOM     13  C   UNL d   1     -41.795  13.949  20.052  0.00  0.00     0.002 A 
ATOM     14  C   UNL d   1     -41.070  14.192  19.749  0.00  0.00     0.000 A 
ATOM     15  C   UNL d   1     -40.430  14.329  20.244  0.00  0.00     0.000 A 
ATOM     16  C   UNL d   1     -40.516  14.221  21.061  0.00  0.00     0.000 A 
ATOM     17  C   UNL d   1     -41.246  13.977  21.372  0.00  0.00     0.002 A 
ENDBRANCH   9  12
ENDBRANCH   1   7
BRANCH   2  18
ATOM     18  N   UNL d   1     -46.942  12.963  23.327  0.00  0.00    -0.158 NA
BRANCH  18  19
ATOM     19  S   UNL d   1     -47.634  12.927  22.892  0.00  0.00     0.285 S 
ATOM     20  O   UNL d   1     -47.828  12.232  22.488  0.00  0.00    -0.198 OA
ATOM     21  O   UNL d   1     -48.141  13.580  22.855  0.00  0.00    -0.198 OA
BRANCH  19  22
ATOM     22  C   UNL d   1     -48.332  12.888  22.453  0.00  0.00     0.105 A 
ATOM     23  C   UNL d   1     -48.658  13.575  22.126  0.00  0.00     0.013 A 
ATOM     24  C   UNL d   1     -49.352  13.546  21.688  0.00  0.00     0.001 A 
ATOM     25  C   UNL d   1     -49.729  12.811  21.574  0.00  0.00     0.000 A 
ATOM     26  C   UNL d   1     -49.410  12.120  21.898  0.00  0.00     0.001 A 
ATOM     27  C   UNL d   1     -50.435  12.769  21.131  0.00  0.00     0.000 C 
ATOM     28  C   UNL d   1     -48.707  12.160  22.339  0.00  0.00     0.013 A 
ENDBRANCH  19  22
ENDBRANCH  18  19
ENDBRANCH   2  18
TORSDOF 5
ENDMDL
MODEL 2
REMARK VINA RESULT:      -4.7      2.761      6.803
REMARK  5 active torsions:
REMARK  status: ('A' for Active; 'I' for Inactive)
REMARK    1  A    between atoms: N_6  and  S_1 
REMARK    2  A    between atoms: C_8  and  S_1 
REMARK    3  A    between atoms: C_12  and  C_3 
REMARK    4  A    between atoms: C_4  and  C_11 
REMARK    5  A    between atoms: C_15  and  N_6 
ROOT
ATOM      1  C   UNL d   1     -42.859  13.574  21.308  0.00  0.00     0.018 A 
ATOM      2  C   UNL d   1     -41.379  14.059  20.774  0.00  0.00     0.094 A 
ATOM      3  C   UNL d   1     -42.679  14.380  21.252  0.00  0.00     0.003 A 
ATOM      4  C   UNL d   1     -42.292  13.013  21.095  0.00  0.00     0.003 A 
ATOM      5  C   UNL d   1     -41.939  14.622  20.985  0.00  0.00     0.020 A 
ATOM      6  C   UNL d   1     -41.557  13.253  20.830  0.00  0.00     0.020 A 
ENDROOT
BRANCH   1   7
ATOM      7  C   UNL d   1     -43.599  13.332  21.575  0.00  0.00     0.088 A 
ATOM      8  N   UNL d   1     -44.686  13.969  22.208  0.00  0.00    -0.239 NA
ATOM      9  C   UNL d   1     -45.097  13.261  22.217  0.00  0.00     0.111 A 
ATOM     10  S   UNL d   1     -44.760  12.589  21.906  0.00  0.00    -0.066 SA
ATOM     11  C   UNL d   1     -44.004  12.620  21.581  0.00  0.00     0.056 A 
BRANCH   9  12
ATOM     12  C   UNL d   1     -45.851  13.227  22.541  0.00  0.00     0.024 A 
ATOM     13  C   UNL d   1     -46.392  13.823  22.369  0.00  0.00     0.002 A 
ATOM     14  C   UNL d   1     -47.145  13.784  22.696  0.00  0.00     0.000 A 
ATOM     15  C   UNL d   1     -47.361  13.162  23.188  0.00  0.00     0.000 A 
ATOM     16  C   UNL d   1     -46.811  12.566  23.356  0.00  0.00     0.000 A 
ATOM     17  C   UNL d   1     -46.049  12.601  23.028  0.00  0.00     0.002 A 
ENDBRANCH   9  12
ENDBRANCH   1   7
BRANCH   2  18
ATOM     18  N   UNL d   1     -40.631  14.297  20.504  0.00  0.00    -0.158 NA
BRANCH  18  19
ATOM     19  S   UNL d   1     -40.530  14.523  19.724  0.00  0.00     0.285 S 
ATOM     20  O   UNL d   1     -40.536  13.950  19.128  0.00  0.00    -0.198 OA
ATOM     21  O   UNL d   1     -40.423  15.320  19.529  0.00  0.00    -0.198 OA
BRANCH  19  22
ATOM     22  C   UNL d   1     -40.429  14.749  18.937  0.00  0.00     0.105 A 
ATOM     23  C   UNL d   1     -40.496  15.544  18.719  0.00  0.00     0.013 A 
ATOM     24  C   UNL d   1     -40.397  15.778  17.938  0.00  0.00     0.001 A 
ATOM     25  C   UNL d   1     -40.225  15.201  17.361  0.00  0.00     0.000 A 
ATOM     26  C   UNL d   1     -40.156  14.404  17.571  0.00  0.00     0.001 A 
ATOM     27  C   UNL d   1     -40.122  15.427  16.564  0.00  0.00     0.000 C 
ATOM     28  C   UNL d   1     -40.259  14.178  18.363  0.00  0.00     0.013 A 
ENDBRANCH  19  22
ENDBRANCH  18  19
ENDBRANCH   2  18
TORSDOF 5
ENDMDL
MODEL 3
REMARK VINA RESULT:      -4.2      7.442      9.066
REMARK  5 active torsions:
REMARK  status: ('A' for Active; 'I' for Inactive)
REMARK    1  A    between atoms: N_6  and  S_1 
REMARK    2  A    between atoms: C_8  and  S_1 
REMARK    3  A    between atoms: C_12  and  C_3 
REMARK    4  A    between atoms: C_4  and  C_11 
REMARK    5  A    between atoms: C_15  and  N_6 
ROOT
ATOM      1  C   UNL d   1     -38.944  15.277  19.325  0.00  0.00     0.018 A 
ATOM      2  C   UNL d   1     -38.980  15.706  17.735  0.00  0.00     0.094 A 
ATOM      3  C   UNL d   1     -38.238  15.386  18.906  0.00  0.00     0.003 A 
ATOM      4  C   UNL d   1     -39.667  15.385  18.942  0.00  0.00     0.003 A 
ATOM      5  C   UNL d   1     -38.257  15.600  18.111  0.00  0.00     0.020 A 
ATOM      6  C   UNL d   1     -39.685  15.598  18.153  0.00  0.00     0.020 A 
ENDROOT
BRANCH   1   7
ATOM      7  C   UNL d   1     -38.925  15.063  20.120  0.00  0.00     0.088 A 
ATOM      8  N   UNL d   1     -38.456  13.944  20.837  0.00  0.00    -0.239 NA
ATOM      9  C   UNL d   1     -38.701  14.290  21.538  0.00  0.00     0.111 A 
ATOM     10  S   UNL d   1     -39.058  15.021  21.531  0.00  0.00    -0.066 SA
ATOM     11  C   UNL d   1     -39.173  15.416  20.816  0.00  0.00     0.056 A 
BRANCH   9  12
ATOM     12  C   UNL d   1     -38.588  13.899  22.251  0.00  0.00     0.024 A 
ATOM     13  C   UNL d   1     -39.009  14.139  22.916  0.00  0.00     0.002 A 
ATOM     14  C   UNL d   1     -38.891  13.744  23.628  0.00  0.00     0.000 A 
ATOM     15  C   UNL d   1     -38.362  13.118  23.680  0.00  0.00     0.000 A 
ATOM     16  C   UNL d   1     -37.942  12.881  23.007  0.00  0.00     0.000 A 
ATOM     17  C   UNL d   1     -38.057  13.277  22.286  0.00  0.00     0.002 A 
ENDBRANCH   9  12
ENDBRANCH   1   7
BRANCH   2  18
ATOM     18  N   UNL d   1     -39.005  15.922  16.935  0.00  0.00    -0.158 NA
BRANCH  18  19
ATOM     19  S   UNL d   1     -38.793  15.382  16.358  0.00  0.00     0.285 S 
ATOM     20  O   UNL d   1     -39.203  14.667  16.295  0.00  0.00    -0.198 OA
ATOM     21  O   UNL d   1     -38.170  15.547  15.839  0.00  0.00    -0.198 OA
BRANCH  19  22
ATOM     22  C   UNL d   1     -38.580  14.835  15.777  0.00  0.00     0.105 A 
ATOM     23  C   UNL d   1     -38.155  15.080  15.110  0.00  0.00     0.013 A 
ATOM     24  C   UNL d   1     -37.939  14.543  14.527  0.00  0.00     0.001 A 
ATOM     25  C   UNL d   1     -38.154  13.742  14.614  0.00  0.00     0.000 A 
ATOM     26  C   UNL d   1     -38.577  13.490  15.278  0.00  0.00     0.001 A 
ATOM     27  C   UNL d   1     -37.940  13.188  14.028  0.00  0.00     0.000 C 
ATOM     28  C   UNL d   1     -38.791  14.041  15.862  0.00  0.00     0.013 A 
ENDBRANCH  19  22
ENDBRANCH  18  19
ENDBRANCH   2  18
TORSDOF 5
ENDMDL
MODEL 4
REMARK VINA RESULT:      -3.9      1.757      2.804
REMARK  5 active torsions:
REMARK  status: ('A' for Active; 'I' for Inactive)
REMARK    1  A    between atoms: N_6  and  S_1 
REMARK    2  A    between atoms: C_8  and  S_1 
REMARK    3  A    between atoms: C_12  and  C_3 
REMARK    4  A    between atoms: C_4  and  C_11 
REMARK    5  A    between atoms: C_15  and  N_6 
ROOT
ATOM      1  C   UNL d   1     -42.414  13.349  21.104  0.00  0.00     0.018 A 
ATOM      2  C   UNL d   1     -43.736  12.595  21.733  0.00  0.00     0.094 A 
ATOM      3  C   UNL d   1     -43.139  13.376  20.706  0.00  0.00     0.003 A 
ATOM      4  C   UNL d   1     -42.357  12.942  21.820  0.00  0.00     0.003 A 
ATOM      5  C   UNL d   1     -43.800  12.999  21.020  0.00  0.00     0.020 A 
ATOM      6  C   UNL d   1     -43.013  12.568  22.132  0.00  0.00     0.020 A 
ENDROOT
BRANCH   1   7
ATOM      7  C   UNL d   1     -41.754  13.726  20.790  0.00  0.00     0.088 A 
ATOM      8  N   UNL d   1     -41.171  13.808  19.508  0.00  0.00    -0.239 NA
ATOM      9  C   UNL d   1     -40.580  14.290  19.807  0.00  0.00     0.111 A 
ATOM     10  S   UNL d   1     -40.576  14.491  20.595  0.00  0.00    -0.066 SA
ATOM     11  C   UNL d   1     -41.167  14.209  21.096  0.00  0.00     0.056 A 
BRANCH   9  12
ATOM     12  C   UNL d   1     -39.991  14.573  19.311  0.00  0.00     0.024 A 
ATOM     13  C   UNL d   1     -39.268  14.181  19.277  0.00  0.00     0.002 A 
ATOM     14  C   UNL d   1     -38.681  14.469  18.778  0.00  0.00     0.000 A 
ATOM     15  C   UNL d   1     -38.808  15.137  18.318  0.00  0.00     0.000 A 
ATOM     16  C   UNL d   1     -39.538  15.526  18.358  0.00  0.00     0.000 A 
ATOM     17  C   UNL d   1     -40.134  15.240  18.860  0.00  0.00     0.002 A 
ENDBRANCH   9  12
ENDBRANCH   1   7
BRANCH   2  18
ATOM     18  N   UNL d   1     -44.399  12.213  22.055  0.00  0.00    -0.158 NA
BRANCH  18  19
ATOM     19  S   UNL d   1     -45.075  12.640  22.224  0.00  0.00     0.285 S 
ATOM     20  O   UNL d   1     -45.501  12.994  21.610  0.00  0.00    -0.198 OA
ATOM     21  O   UNL d   1     -45.337  12.719  23.005  0.00  0.00    -0.198 OA
BRANCH  19  22
ATOM     22  C   UNL d   1     -45.759  13.071  22.393  0.00  0.00     0.105 A 
ATOM     23  C   UNL d   1     -45.709  13.794  22.792  0.00  0.00     0.013 A 
ATOM     24  C   UNL d   1     -46.383  14.230  22.964  0.00  0.00     0.001 A 
ATOM     25  C   UNL d   1     -47.127  13.934  22.730  0.00  0.00     0.000 A 
ATOM     26  C   UNL d   1     -47.186  13.213  22.330  0.00  0.00     0.001 A 
ATOM     27  C   UNL d   1     -47.819  14.368  22.899  0.00  0.00     0.000 C 
ATOM     28  C   UNL d   1     -46.497  12.780  22.162  0.00  0.00     0.013 A 
ENDBRANCH  19  22
ENDBRANCH  18  19
ENDBRANCH   2  18
TORSDOF 5
ENDMDL
MODEL 5
REMARK VINA RESULT:      -3.5      2.742      7.053
REMARK  5 active torsions:
REMARK  status: ('A' for Active; 'I' for Inactive)
REMARK    1  A    between atoms: N_6  and  S_1 
REMARK    2  A    between atoms: C_8  and  S_1 
REMARK    3  A    between atoms: C_12  and  C_3 
REMARK    4  A    between atoms: C_4  and  C_11 
REMARK    5  A    between atoms: C_15  and  N_6 
ROOT
ATOM      1  C   UNL d   1     -43.042  13.463  21.413  0.00  0.00     0.018 A 
ATOM      2  C   UNL d   1     -41.547  13.883  20.866  0.00  0.00     0.094 A 
ATOM      3  C   UNL d   1     -42.418  12.920  21.445  0.00  0.00     0.003 A 
ATOM      4  C   UNL d   1     -42.911  14.217  21.106  0.00  0.00     0.003 A 
ATOM      5  C   UNL d   1     -41.671  13.130  21.171  0.00  0.00     0.020 A 
ATOM      6  C   UNL d   1     -42.169  14.426  20.834  0.00  0.00     0.020 A 
ENDROOT
BRANCH   1   7
ATOM      7  C   UNL d   1     -43.789  13.252  21.687  0.00  0.00     0.088 A 
ATOM      8  N   UNL d   1     -44.902  13.961  22.184  0.00  0.00    -0.239 NA
ATOM      9  C   UNL d   1     -45.308  13.256  22.281  0.00  0.00     0.111 A 
ATOM     10  S   UNL d   1     -44.956  12.550  22.081  0.00  0.00    -0.066 SA
ATOM     11  C   UNL d   1     -44.189  12.544  21.781  0.00  0.00     0.056 A 
BRANCH   9  12
ATOM     12  C   UNL d   1     -46.073  13.260  22.580  0.00  0.00     0.024 A 
ATOM     13  C   UNL d   1     -46.381  12.573  22.912  0.00  0.00     0.002 A 
ATOM     14  C   UNL d   1     -47.148  12.583  23.210  0.00  0.00     0.000 A 
ATOM     15  C   UNL d   1     -47.603  13.265  23.180  0.00  0.00     0.000 A 
ATOM     16  C   UNL d   1     -47.286  13.953  22.845  0.00  0.00     0.000 A 
ATOM     17  C   UNL d   1     -46.513  13.948  22.542  0.00  0.00     0.002 A 
ENDBRANCH   9  12
ENDBRANCH   1   7
BRANCH   2  18
ATOM     18  N   UNL d   1     -40.796  14.101  20.589  0.00  0.00    -0.158 NA
BRANCH  18  19
ATOM     19  S   UNL d   1     -40.249  14.428  21.101  0.00  0.00     0.285 S 
ATOM     20  O   UNL d   1     -40.353  15.202  21.372  0.00  0.00    -0.198 OA
ATOM     21  O   UNL d   1     -39.593  13.990  21.351  0.00  0.00    -0.198 OA
BRANCH  19  22
ATOM     22  C   UNL d   1     -39.699  14.761  21.619  0.00  0.00     0.105 A 
ATOM     23  C   UNL d   1     -39.639  15.583  21.694  0.00  0.00     0.013 A 
ATOM     24  C   UNL d   1     -39.094  15.922  22.206  0.00  0.00     0.001 A 
ATOM     25  C   UNL d   1     -38.596  15.425  22.655  0.00  0.00     0.000 A 
ATOM     26  C   UNL d   1     -38.650  14.603  22.586  0.00  0.00     0.001 A 
ATOM     27  C   UNL d   1     -38.039  15.759  23.179  0.00  0.00     0.000 C 
ATOM     28  C   UNL d   1     -39.205  14.270  22.065  0.00  0.00     0.013 A 
ENDBRANCH  19  22
ENDBRANCH  18  19
ENDBRANCH   2  18
TORSDOF 5
ENDMDL
