MODEL 1
REMARK VINA RESULT:      -3.0      0.000      0.000
REMARK  1 active torsions:
REMARK  status: ('A' for Active; 'I' for Inactive)
REMARK    1  A    between atoms: C_2  and  N_1 
ROOT
ATOM      1  C   UNL d   1      31.819  15.902 -23.663  0.00  0.00     0.153 A 
ATOM      2  C   UNL d   1      31.796  16.669 -23.945  0.00  0.00     0.059 A 
ATOM      3  C   UNL d   1      32.490  17.171 -23.853  0.00  0.00     0.115 A 
ATOM      4  S   UNL d   1      32.289  17.900 -24.191  0.00  0.00    -0.068 SA
ATOM      5  C   UNL d   1      31.218  17.108 -24.327  0.00  0.00     0.011 A 
ATOM      6  C   UNL d   1      31.518  17.861 -24.479  0.00  0.00     0.031 A 
ATOM      7  N   UNL d   1      32.500  15.578 -23.281  0.00  0.00    -0.206 NA
ATOM      8  N   UNL d   1      33.164  16.885 -23.487  0.00  0.00    -0.217 NA
ATOM      9  C   UNL d   1      33.204  16.093 -23.189  0.00  0.00     0.201 A 
ATOM     10  C   UNL d   1      30.445  16.926 -24.565  0.00  0.00     0.001 A 
ATOM     11  C   UNL d   1      31.052  18.441 -24.868  0.00  0.00     0.006 A 
ATOM     12  C   UNL d   1      29.946  17.497 -24.963  0.00  0.00     0.000 A 
ATOM     13  C   UNL d   1      30.277  18.235 -25.097  0.00  0.00     0.001 A 
ENDROOT
BRANCH   1  14
ATOM     14  N   UNL d   1      31.047  15.776 -23.920  0.00  0.00    -0.273 N 
ATOM     15  C   UNL d   1      31.168  15.595 -24.744  0.00  0.00     0.184 A 
ATOM     16  N   UNL d   1      30.442  15.453 -25.089  0.00  0.00    -0.224 NA
ATOM     17  C   UNL d   1      29.871  15.537 -24.514  0.00  0.00     0.099 A 
ATOM     18  C   UNL d   1      30.223  15.741 -23.763  0.00  0.00     0.085 A 
ATOM     19  C   UNL d   1      29.054  15.459 -24.545  0.00  0.00     0.021 A 
ATOM     20  C   UNL d   1      29.770  15.855 -23.104  0.00  0.00     0.019 A 
ATOM     21  C   UNL d   1      28.949  15.772 -23.157  0.00  0.00     0.002 A 
ATOM     22  C   UNL d   1      28.609  15.577 -23.872  0.00  0.00     0.002 A 
ENDBRANCH   1  14
TORSDOF 1
ENDMDL
MODEL 2
REMARK VINA RESULT:      -2.6      1.445      3.455
REMARK  1 active torsions:
REMARK  status: ('A' for Active; 'I' for Inactive)
REMARK    1  A    between atoms: C_2  and  N_1 
ROOT
ATOM      1  C   UNL d   1      30.645  17.564 -24.419  0.00  0.00     0.153 A 
ATOM      2  C   UNL d   1      30.963  16.858 -24.157  0.00  0.00     0.059 A 
ATOM      3  C   UNL d   1      30.456  16.164 -24.102  0.00  0.00     0.115 A 
ATOM      4  S   UNL d   1      30.938  15.551 -23.823  0.00  0.00    -0.068 SA
ATOM      5  C   UNL d   1      31.715  16.639 -23.913  0.00  0.00     0.011 A 
ATOM      6  C   UNL d   1      31.702  15.840 -23.708  0.00  0.00     0.031 A 
ATOM      7  N   UNL d   1      29.833  17.643 -24.641  0.00  0.00    -0.206 NA
ATOM      8  N   UNL d   1      29.666  16.209 -24.309  0.00  0.00    -0.217 NA
ATOM      9  C   UNL d   1      29.321  16.933 -24.583  0.00  0.00     0.201 A 
ATOM     10  C   UNL d   1      32.425  17.061 -23.847  0.00  0.00     0.001 A 
ATOM     11  C   UNL d   1      32.395  15.453 -23.436  0.00  0.00     0.006 A 
ATOM     12  C   UNL d   1      33.148  16.693 -23.572  0.00  0.00     0.000 A 
ATOM     13  C   UNL d   1      33.098  15.898 -23.378  0.00  0.00     0.001 A 
ENDROOT
BRANCH   1  14
ATOM     14  N   UNL d   1      31.376  17.934 -24.334  0.00  0.00    -0.273 N 
ATOM     15  C   UNL d   1      31.740  17.769 -25.087  0.00  0.00     0.184 A 
ATOM     16  N   UNL d   1      32.484  18.104 -25.097  0.00  0.00    -0.224 NA
ATOM     17  C   UNL d   1      32.601  18.472 -24.379  0.00  0.00     0.099 A 
ATOM     18  C   UNL d   1      31.917  18.382 -23.875  0.00  0.00     0.085 A 
ATOM     19  C   UNL d   1      33.241  18.893 -24.084  0.00  0.00     0.021 A 
ATOM     20  C   UNL d   1      31.898  18.699 -23.132  0.00  0.00     0.019 A 
ATOM     21  C   UNL d   1      32.553  19.120 -22.854  0.00  0.00     0.002 A 
ATOM     22  C   UNL d   1      33.208  19.208 -23.332  0.00  0.00     0.002 A 
ENDBRANCH   1  14
TORSDOF 1
ENDMDL
MODEL 3
REMARK VINA RESULT:      -2.4      1.517      3.383
REMARK  1 active torsions:
REMARK  status: ('A' for Active; 'I' for Inactive)
REMARK    1  A    between atoms: C_2  and  N_1 
ROOT
ATOM      1  C   UNL d   1      30.236  17.867 -24.681  0.00  0.00     0.153 A 
ATOM      2  C   UNL d   1      30.012  17.224 -24.230  0.00  0.00     0.059 A 
ATOM      3  C   UNL d   1      29.176  17.024 -24.171  0.00  0.00     0.115 A 
ATOM      4  S   UNL d   1      29.136  16.357 -23.681  0.00  0.00    -0.068 SA
ATOM      5  C   UNL d   1      30.431  16.680 -23.782  0.00  0.00     0.011 A 
ATOM      6  C   UNL d   1      29.898  16.149 -23.446  0.00  0.00     0.031 A 
ATOM      7  N   UNL d   1      29.679  18.348 -25.097  0.00  0.00    -0.206 NA
ATOM      8  N   UNL d   1      28.613  17.471 -24.562  0.00  0.00    -0.217 NA
ATOM      9  C   UNL d   1      28.829  18.140 -25.034  0.00  0.00     0.201 A 
ATOM     10  C   UNL d   1      31.241  16.590 -23.629  0.00  0.00     0.001 A 
ATOM     11  C   UNL d   1      30.163  15.523 -22.954  0.00  0.00     0.006 A 
ATOM     12  C   UNL d   1      31.542  15.961 -23.131  0.00  0.00     0.000 A 
ATOM     13  C   UNL d   1      30.983  15.452 -22.814  0.00  0.00     0.001 A 
ENDROOT
BRANCH   1  14
ATOM     14  N   UNL d   1      31.027  17.731 -24.496  0.00  0.00    -0.273 N 
ATOM     15  C   UNL d   1      31.243  17.151 -25.082  0.00  0.00     0.184 A 
ATOM     16  N   UNL d   1      32.027  16.951 -24.975  0.00  0.00    -0.224 NA
ATOM     17  C   UNL d   1      32.311  17.383 -24.345  0.00  0.00     0.099 A 
ATOM     18  C   UNL d   1      31.701  17.885 -24.021  0.00  0.00     0.085 A 
ATOM     19  C   UNL d   1      33.053  17.406 -23.994  0.00  0.00     0.021 A 
ATOM     20  C   UNL d   1      31.847  18.369 -23.390  0.00  0.00     0.019 A 
ATOM     21  C   UNL d   1      32.601  18.377 -23.051  0.00  0.00     0.002 A 
ATOM     22  C   UNL d   1      33.186  17.899 -23.358  0.00  0.00     0.002 A 
ENDBRANCH   1  14
TORSDOF 1
ENDMDL
MODEL 4
REMARK VINA RESULT:      -2.3      1.076      2.612
REMARK  1 active torsions:
REMARK  status: ('A' for Active; 'I' for Inactive)
REMARK    1  A    between atoms: C_2  and  N_1 
ROOT
ATOM      1  C   UNL d   1      30.068  15.934 -23.970  0.00  0.00     0.153 A 
ATOM      2  C   UNL d   1      30.152  16.689 -24.272  0.00  0.00     0.059 A 
ATOM      3  C   UNL d   1      29.453  17.182 -24.369  0.00  0.00     0.115 A 
ATOM      4  S   UNL d   1      29.722  17.900 -24.681  0.00  0.00    -0.068 SA
ATOM      5  C   UNL d   1      30.801  17.122 -24.525  0.00  0.00     0.011 A 
ATOM      6  C   UNL d   1      30.540  17.863 -24.775  0.00  0.00     0.031 A 
ATOM      7  N   UNL d   1      29.318  15.614 -23.747  0.00  0.00    -0.206 NA
ATOM      8  N   UNL d   1      28.713  16.900 -24.162  0.00  0.00    -0.217 NA
ATOM      9  C   UNL d   1      28.609  16.120 -23.848  0.00  0.00     0.201 A 
ATOM     10  C   UNL d   1      31.609  16.944 -24.564  0.00  0.00     0.001 A 
ATOM     11  C   UNL d   1      31.081  18.435 -25.067  0.00  0.00     0.006 A 
ATOM     12  C   UNL d   1      32.185  17.507 -24.857  0.00  0.00     0.000 A 
ATOM     13  C   UNL d   1      31.890  18.233 -25.097  0.00  0.00     0.001 A 
ENDROOT
BRANCH   1  14
ATOM     14  N   UNL d   1      30.880  15.811 -24.030  0.00  0.00    -0.273 N 
ATOM     15  C   UNL d   1      30.960  15.597 -24.851  0.00  0.00     0.184 A 
ATOM     16  N   UNL d   1      31.748  15.453 -25.008  0.00  0.00    -0.224 NA
ATOM     17  C   UNL d   1      32.165  15.569 -24.317  0.00  0.00     0.099 A 
ATOM     18  C   UNL d   1      31.643  15.796 -23.681  0.00  0.00     0.085 A 
ATOM     19  C   UNL d   1      32.966  15.504 -24.151  0.00  0.00     0.021 A 
ATOM     20  C   UNL d   1      31.925  15.943 -22.938  0.00  0.00     0.019 A 
ATOM     21  C   UNL d   1      32.736  15.871 -22.791  0.00  0.00     0.002 A 
ATOM     22  C   UNL d   1      33.237  15.655 -23.396  0.00  0.00     0.002 A 
ENDBRANCH   1  14
TORSDOF 1
ENDMDL
MODEL 5
REMARK VINA RESULT:      -2.1      1.077      2.090
REMARK  1 active torsions:
REMARK  status: ('A' for Active; 'I' for Inactive)
REMARK    1  A    between atoms: C_2  and  N_1 
ROOT
ATOM      1  C   UNL d   1      31.623  17.783 -24.676  0.00  0.00     0.153 A 
ATOM      2  C   UNL d   1      32.137  17.465 -24.126  0.00  0.00     0.059 A 
ATOM      3  C   UNL d   1      32.844  17.906 -23.909  0.00  0.00     0.115 A 
ATOM      4  S   UNL d   1      33.239  17.440 -23.349  0.00  0.00    -0.068 SA
ATOM      5  C   UNL d   1      32.135  16.767 -23.696  0.00  0.00     0.011 A 
ATOM      6  C   UNL d   1      32.808  16.749 -23.220  0.00  0.00     0.031 A 
ATOM      7  N   UNL d   1      31.758  18.531 -25.046  0.00  0.00    -0.206 NA
ATOM      8  N   UNL d   1      33.002  18.633 -24.249  0.00  0.00    -0.217 NA
ATOM      9  C   UNL d   1      32.480  18.976 -24.821  0.00  0.00     0.201 A 
ATOM     10  C   UNL d   1      31.605  16.130 -23.668  0.00  0.00     0.001 A 
ATOM     11  C   UNL d   1      32.962  16.099 -22.712  0.00  0.00     0.006 A 
ATOM     12  C   UNL d   1      31.735  15.453 -23.160  0.00  0.00     0.000 A 
ATOM     13  C   UNL d   1      32.414  15.470 -22.702  0.00  0.00     0.001 A 
ENDROOT
BRANCH   1  14
ATOM     14  N   UNL d   1      31.132  17.125 -24.610  0.00  0.00    -0.273 N 
ATOM     15  C   UNL d   1      31.539  16.557 -25.097  0.00  0.00     0.184 A 
ATOM     16  N   UNL d   1      31.118  15.858 -25.091  0.00  0.00    -0.224 NA
ATOM     17  C   UNL d   1      30.462  15.966 -24.620  0.00  0.00     0.099 A 
ATOM     18  C   UNL d   1      30.443  16.758 -24.301  0.00  0.00     0.085 A 
ATOM     19  C   UNL d   1      29.850  15.458 -24.417  0.00  0.00     0.021 A 
ATOM     20  C   UNL d   1      29.845  17.002 -23.815  0.00  0.00     0.019 A 
ATOM     21  C   UNL d   1      29.239  16.473 -23.623  0.00  0.00     0.002 A 
ATOM     22  C   UNL d   1      29.253  15.716 -23.925  0.00  0.00     0.002 A 
ENDBRANCH   1  14
TORSDOF 1
ENDMDL
MODEL 6
REMARK VINA RESULT:      -1.7      1.214      2.069
REMARK  1 active torsions:
REMARK  status: ('A' for Active; 'I' for Inactive)
REMARK    1  A    between atoms: C_2  and  N_1 
ROOT
ATOM      1  C   UNL d   1      30.675  17.733 -24.675  0.00  0.00     0.153 A 
ATOM      2  C   UNL d   1      31.132  17.364 -24.106  0.00  0.00     0.059 A 
ATOM      3  C   UNL d   1      31.912  17.681 -23.924  0.00  0.00     0.115 A 
ATOM      4  S   UNL d   1      32.225  17.189 -23.335  0.00  0.00    -0.068 SA
ATOM      5  C   UNL d   1      31.010  16.709 -23.628  0.00  0.00     0.011 A 
ATOM      6  C   UNL d   1      31.677  16.600 -23.156  0.00  0.00     0.031 A 
ATOM      7  N   UNL d   1      30.938  18.417 -25.096  0.00  0.00    -0.206 NA
ATOM      8  N   UNL d   1      32.194  18.342 -24.315  0.00  0.00    -0.217 NA
ATOM      9  C   UNL d   1      31.733  18.735 -24.907  0.00  0.00     0.201 A 
ATOM     10  C   UNL d   1      30.373  16.183 -23.554  0.00  0.00     0.001 A 
ATOM     11  C   UNL d   1      31.718  15.968 -22.605  0.00  0.00     0.006 A 
ATOM     12  C   UNL d   1      30.386  15.529 -23.000  0.00  0.00     0.000 A 
ATOM     13  C   UNL d   1      31.065  15.453 -22.548  0.00  0.00     0.001 A 
ENDROOT
BRANCH   1  14
ATOM     14  N   UNL d   1      30.073  17.183 -24.559  0.00  0.00    -0.273 N 
ATOM     15  C   UNL d   1      30.358  16.520 -25.012  0.00  0.00     0.184 A 
ATOM     16  N   UNL d   1      29.815  15.912 -24.957  0.00  0.00    -0.224 NA
ATOM     17  C   UNL d   1      29.201  16.169 -24.486  0.00  0.00     0.099 A 
ATOM     18  C   UNL d   1      29.336  16.969 -24.220  0.00  0.00     0.085 A 
ATOM     19  C   UNL d   1      28.512  15.796 -24.243  0.00  0.00     0.021 A 
ATOM     20  C   UNL d   1      28.804  17.349 -23.744  0.00  0.00     0.019 A 
ATOM     21  C   UNL d   1      28.115  16.955 -23.511  0.00  0.00     0.002 A 
ATOM     22  C   UNL d   1      27.984  16.191 -23.764  0.00  0.00     0.002 A 
ENDBRANCH   1  14
TORSDOF 1
ENDMDL
