MODEL 1
REMARK VINA RESULT:      40.7      0.000      0.000
REMARK  6 active torsions:
REMARK  status: ('A' for Active; 'I' for Inactive)
REMARK    1  A    between atoms: C_2  and  S_1 
REMARK    2  A    between atoms: N_7  and  S_1 
REMARK    3  A    between atoms: C_15  and  N_7 
REMARK    4  A    between atoms: C_14  and  O_21 
REMARK    5  A    between atoms: C_24  and  C_15 
REMARK    6  A    between atoms: O_21  and  C_24 
ROOT
ATOM      1  S   UNL d   1     -49.919  26.698  33.390  0.00  0.00     0.285 S 
ATOM      2  O   UNL d   1     -49.377  26.071  33.320  0.00  0.00    -0.198 OA
ATOM      3  O   UNL d   1     -50.459  27.319  33.460  0.00  0.00    -0.198 OA
ENDROOT
BRANCH   1   4
ATOM      4  C   UNL d   1     -50.548  26.145  33.371  0.00  0.00     0.107 A 
ATOM      5  C   UNL d   1     -50.390  25.343  33.367  0.00  0.00     0.040 A 
ATOM      6  C   UNL d   1     -51.011  24.811  33.348  0.00  0.00     0.123 A 
ATOM      7  O   UNL d   1     -50.856  24.001  33.344  0.00  0.00    -0.301 OA
ATOM      8  C   UNL d   1     -51.791  25.082  33.333  0.00  0.00     0.123 A 
ATOM      9  C   UNL d   1     -51.480  23.460  33.324  0.00  0.00     0.149 A 
ATOM     10  C   UNL d   1     -52.260  23.732  33.309  0.00  0.00     0.149 A 
ATOM     11  O   UNL d   1     -52.415  24.542  33.313  0.00  0.00    -0.301 OA
ATOM     12  C   UNL d   1     -51.948  25.884  33.337  0.00  0.00     0.028 A 
ATOM     13  C   UNL d   1     -51.328  26.416  33.356  0.00  0.00     0.015 A 
ENDBRANCH   1   4
BRANCH   1  14
ATOM     14  N   UNL d   1     -49.291  27.236  33.409  0.00  0.00    -0.155 NA
BRANCH  14  15
ATOM     15  C   UNL d   1     -48.811  27.287  34.075  0.00  0.00     0.139 C 
BRANCH  15  16
ATOM     16  C   UNL d   1     -48.294  27.920  34.172  0.00  0.00     0.144 C 
BRANCH  16  17
ATOM     17  O   UNL d   1     -47.904  28.037  34.888  0.00  0.00    -0.303 OA
BRANCH  17  18
ATOM     18  C   UNL d   1     -47.754  28.798  35.163  0.00  0.00     0.100 A 
ATOM     19  C   UNL d   1     -47.697  29.423  34.628  0.00  0.00     0.027 A 
ATOM     20  C   UNL d   1     -47.546  30.188  34.899  0.00  0.00     0.032 A 
ATOM     21  C   UNL d   1     -47.451  30.327  35.708  0.00  0.00     0.140 A 
ATOM     22  C   UNL d   1     -47.508  29.702  36.244  0.00  0.00     0.032 A 
ATOM     23  F   UNL d   1     -47.298  31.101  35.990  0.00  0.00    -0.204 F 
ATOM     24  C   UNL d   1     -47.659  28.941  35.968  0.00  0.00     0.027 A 
ENDBRANCH  17  18
ENDBRANCH  16  17
ENDBRANCH  15  16
ENDBRANCH  14  15
ENDBRANCH   1  14
TORSDOF 6
ENDMDL
