MODEL 1
REMARK VINA RESULT:      -9.8      0.000      0.000
REMARK  4 active torsions:
REMARK  status: ('A' for Active; 'I' for Inactive)
REMARK    1  A    between atoms: N_8  and  C_1 
REMARK    2  A    between atoms: C_13  and  C_2 
REMARK    3  A    between atoms: C_6  and  C_11 
REMARK       I    between atoms: C_11  and  N_8 
REMARK    4  A    between atoms: O_20  and  C_13 
ROOT
ATOM      1  C   UNL d   1      51.829  33.762  53.042  0.00  0.00     0.119 A 
ATOM      2  C   UNL d   1      52.557  33.980  53.366  0.00  0.00     0.087 A 
ATOM      3  C   UNL d   1      53.014  33.301  53.427  0.00  0.00     0.008 A 
ATOM      4  C   UNL d   1      52.582  32.669  53.148  0.00  0.00     0.028 A 
ATOM      5  S   UNL d   1      51.842  32.948  52.905  0.00  0.00    -0.070 SA
ATOM      6  C   UNL d   1      52.908  31.905  53.142  0.00  0.00     0.104 A 
ATOM      7  N   UNL d   1      53.673  31.787  53.422  0.00  0.00    -0.294 NA
ATOM      8  C   UNL d   1      54.111  32.429  53.706  0.00  0.00     0.099 A 
ATOM      9  C   UNL d   1      53.784  33.189  53.710  0.00  0.00    -0.004 A 
ATOM     10  C   UNL d   1      53.053  31.095  53.058  0.00  0.00     0.029 C 
ATOM     11  C   UNL d   1      52.151  31.812  52.829  0.00  0.00     0.029 C 
ATOM     12  C   UNL d   1      54.549  33.071  53.990  0.00  0.00     0.029 C 
ATOM     13  C   UNL d   1      54.443  31.675  53.705  0.00  0.00     0.029 C 
ENDROOT
BRANCH   1  14
ATOM     14  N   UNL d   1      51.194  34.268  52.880  0.00  0.00    -0.200 NA
ATOM     15  C   UNL d   1      50.419  34.007  52.996  0.00  0.00     0.303 C 
ATOM     16  O   UNL d   1      50.281  33.245  53.272  0.00  0.00    -0.263 OA
BRANCH  15  17
ATOM     17  C   UNL d   1      49.794  34.505  52.837  0.00  0.00     0.169 A 
ATOM     18  N   UNL d   1      49.454  35.064  53.351  0.00  0.00    -0.234 NA
ATOM     19  C   UNL d   1      48.832  35.438  52.943  0.00  0.00     0.088 A 
ATOM     20  C   UNL d   1      48.300  36.031  53.159  0.00  0.00     0.020 A 
ATOM     21  C   UNL d   1      48.810  35.095  52.189  0.00  0.00     0.049 A 
ATOM     22  C   UNL d   1      47.738  36.286  52.619  0.00  0.00     0.002 A 
ATOM     23  C   UNL d   1      47.703  35.953  51.863  0.00  0.00     0.001 A 
ATOM     24  C   UNL d   1      48.232  35.365  51.649  0.00  0.00     0.008 A 
ATOM     25  S   UNL d   1      49.392  34.536  52.138  0.00  0.00    -0.062 SA
ENDBRANCH  15  17
ENDBRANCH   1  14
BRANCH   2  26
ATOM     26  C   UNL d   1      52.769  34.741  53.582  0.00  0.00     0.298 C 
ATOM     27  O   UNL d   1      53.051  35.259  53.001  0.00  0.00    -0.259 OA
BRANCH  26  28
ATOM     28  O   UNL d   1      52.703  34.991  54.374  0.00  0.00    -0.296 OA
ATOM     29  C   UNL d   1      52.916  35.758  54.581  0.00  0.00     0.185 C 
ENDBRANCH  26  28
ENDBRANCH   2  26
TORSDOF 4
ENDMDL
MODEL 2
REMARK VINA RESULT:      -8.9      1.285      2.264
REMARK  4 active torsions:
REMARK  status: ('A' for Active; 'I' for Inactive)
REMARK    1  A    between atoms: N_8  and  C_1 
REMARK    2  A    between atoms: C_13  and  C_2 
REMARK    3  A    between atoms: C_6  and  C_11 
REMARK       I    between atoms: C_11  and  N_8 
REMARK    4  A    between atoms: O_20  and  C_13 
ROOT
ATOM      1  C   UNL d   1      52.146  33.767  53.279  0.00  0.00     0.119 A 
ATOM      2  C   UNL d   1      52.591  33.080  53.379  0.00  0.00     0.087 A 
ATOM      3  C   UNL d   1      53.203  33.254  53.898  0.00  0.00     0.008 A 
ATOM      4  C   UNL d   1      53.143  34.036  54.119  0.00  0.00     0.028 A 
ATOM      5  S   UNL d   1      52.486  34.364  53.738  0.00  0.00    -0.070 SA
ATOM      6  C   UNL d   1      53.693  34.369  54.645  0.00  0.00     0.104 A 
ATOM      7  N   UNL d   1      54.302  33.905  54.944  0.00  0.00    -0.294 NA
ATOM      8  C   UNL d   1      54.363  33.110  54.719  0.00  0.00     0.099 A 
ATOM      9  C   UNL d   1      53.814  32.782  54.196  0.00  0.00    -0.004 A 
ATOM     10  C   UNL d   1      54.128  34.867  55.141  0.00  0.00     0.029 C 
ATOM     11  C   UNL d   1      53.175  34.985  54.466  0.00  0.00     0.029 C 
ATOM     12  C   UNL d   1      54.424  32.316  54.495  0.00  0.00     0.029 C 
ATOM     13  C   UNL d   1      54.914  33.432  55.242  0.00  0.00     0.029 C 
ENDROOT
BRANCH   1  14
ATOM     14  N   UNL d   1      51.473  33.850  52.803  0.00  0.00    -0.200 NA
ATOM     15  C   UNL d   1      50.923  34.443  52.965  0.00  0.00     0.303 C 
ATOM     16  O   UNL d   1      51.045  34.951  53.600  0.00  0.00    -0.263 OA
BRANCH  15  17
ATOM     17  C   UNL d   1      50.262  34.526  52.496  0.00  0.00     0.169 A 
ATOM     18  N   UNL d   1      50.164  34.258  51.714  0.00  0.00    -0.234 NA
ATOM     19  C   UNL d   1      49.398  34.469  51.468  0.00  0.00     0.088 A 
ATOM     20  C   UNL d   1      48.989  34.356  50.760  0.00  0.00     0.020 A 
ATOM     21  C   UNL d   1      49.048  34.861  52.108  0.00  0.00     0.049 A 
ATOM     22  C   UNL d   1      48.221  34.636  50.688  0.00  0.00     0.002 A 
ATOM     23  C   UNL d   1      47.858  35.029  51.319  0.00  0.00     0.001 A 
ATOM     24  C   UNL d   1      48.265  35.141  52.021  0.00  0.00     0.008 A 
ATOM     25  S   UNL d   1      49.577  34.888  52.720  0.00  0.00    -0.062 SA
ENDBRANCH  15  17
ENDBRANCH   1  14
BRANCH   2  26
ATOM     26  C   UNL d   1      52.438  32.360  53.019  0.00  0.00     0.298 C 
ATOM     27  O   UNL d   1      52.739  32.218  52.261  0.00  0.00    -0.259 OA
BRANCH  26  28
ATOM     28  O   UNL d   1      51.986  31.778  53.409  0.00  0.00    -0.296 OA
ATOM     29  C   UNL d   1      51.895  31.034  53.071  0.00  0.00     0.185 C 
ENDBRANCH  26  28
ENDBRANCH   2  26
TORSDOF 4
ENDMDL
