MODEL 1
REMARK VINA RESULT:      18.4      0.000      0.000
REMARK  4 active torsions:
REMARK  status: ('A' for Active; 'I' for Inactive)
REMARK    1  A    between atoms: N_3  and  S_1 
REMARK    2  A    between atoms: C_13  and  S_1 
REMARK    3  A    between atoms: C_2  and  N_3 
REMARK    4  A    between atoms: N_8  and  C_4 
REMARK       I    between atoms: C_10  and  N_9 
ROOT
ATOM      1  C   UNL d   1     -41.486-122.436 -52.906  0.00  0.00     0.110 A 
ATOM      2  C   UNL d   1     -41.654-121.409 -53.131  0.00  0.00     0.083 A 
ATOM      3  C   UNL d   1     -41.762-122.803 -53.587  0.00  0.00     0.020 A 
ATOM      4  C   UNL d   1     -41.986-121.434 -53.887  0.00  0.00     0.018 A 
ATOM      5  C   UNL d   1     -42.026-122.230 -54.100  0.00  0.00     0.003 A 
ATOM      6  C   UNL d   1     -42.336-122.446 -54.834  0.00  0.00     0.000 A 
ATOM      7  C   UNL d   1     -41.796-123.609 -53.787  0.00  0.00     0.002 A 
ATOM      8  C   UNL d   1     -42.250-120.861 -54.400  0.00  0.00     0.002 A 
ATOM      9  C   UNL d   1     -42.567-121.063 -55.150  0.00  0.00     0.000 A 
ATOM     10  C   UNL d   1     -42.112-123.814 -54.533  0.00  0.00     0.000 A 
ATOM     11  C   UNL d   1     -42.603-121.867 -55.353  0.00  0.00     0.000 A 
ATOM     12  C   UNL d   1     -42.379-123.236 -55.052  0.00  0.00     0.000 A 
ENDROOT
BRANCH   1  13
ATOM     13  N   UNL d   1     -41.182-122.864 -52.282  0.00  0.00    -0.157 NA
BRANCH  13  14
ATOM     14  S   UNL d   1     -41.625-123.012 -51.602  0.00  0.00     0.285 S 
ATOM     15  O   UNL d   1     -42.113-123.514 -52.041  0.00  0.00    -0.198 OA
ATOM     16  O   UNL d   1     -41.138-122.512 -51.172  0.00  0.00    -0.198 OA
BRANCH  14  17
ATOM     17  C   UNL d   1     -42.069-123.162 -50.932  0.00  0.00     0.105 A 
ATOM     18  C   UNL d   1     -41.698-123.412 -50.243  0.00  0.00     0.013 A 
ATOM     19  C   UNL d   1     -42.129-123.569 -49.555  0.00  0.00     0.001 A 
ATOM     20  C   UNL d   1     -42.964-123.464 -49.581  0.00  0.00     0.000 A 
ATOM     21  C   UNL d   1     -43.333-123.215 -50.266  0.00  0.00     0.001 A 
ATOM     22  C   UNL d   1     -42.892-123.064 -50.940  0.00  0.00     0.013 A 
ENDBRANCH  14  17
ENDBRANCH  13  14
ENDBRANCH   1  13
BRANCH   2  23
ATOM     23  N   UNL d   1     -41.539-120.688 -52.761  0.00  0.00    -0.300 N 
ATOM     24  C   UNL d   1     -41.480-120.003 -53.217  0.00  0.00     0.100 A 
ATOM     25  C   UNL d   1     -41.368-119.306 -52.850  0.00  0.00     0.102 A 
ATOM     26  N   UNL d   1     -41.305-119.227 -52.007  0.00  0.00    -0.269 N 
ATOM     27  C   UNL d   1     -41.363-119.907 -51.558  0.00  0.00     0.102 A 
ATOM     28  C   UNL d   1     -41.189-118.506 -51.622  0.00  0.00     0.265 C 
ATOM     29  C   UNL d   1     -41.486-120.675 -51.953  0.00  0.00     0.100 A 
ATOM     30  O   UNL d   1     -41.123-117.785 -52.027  0.00  0.00    -0.267 OA
ATOM     31  C   UNL d   1     -41.127-118.424 -50.805  0.00  0.00     0.066 C 
ENDBRANCH   2  23
TORSDOF 4
ENDMDL
MODEL 2
REMARK VINA RESULT:      20.4      0.908      1.371
REMARK  4 active torsions:
REMARK  status: ('A' for Active; 'I' for Inactive)
REMARK    1  A    between atoms: N_3  and  S_1 
REMARK    2  A    between atoms: C_13  and  S_1 
REMARK    3  A    between atoms: C_2  and  N_3 
REMARK    4  A    between atoms: N_8  and  C_4 
REMARK       I    between atoms: C_10  and  N_9 
ROOT
ATOM      1  C   UNL d   1     -41.324-121.798 -52.077  0.00  0.00     0.110 A 
ATOM      2  C   UNL d   1     -41.373-121.009 -52.789  0.00  0.00     0.083 A 
ATOM      3  C   UNL d   1     -41.427-122.458 -52.554  0.00  0.00     0.020 A 
ATOM      4  C   UNL d   1     -41.492-121.405 -53.504  0.00  0.00     0.018 A 
ATOM      5  C   UNL d   1     -41.516-122.210 -53.323  0.00  0.00     0.003 A 
ATOM      6  C   UNL d   1     -41.630-122.765 -53.924  0.00  0.00     0.000 A 
ATOM      7  C   UNL d   1     -41.449-123.266 -52.357  0.00  0.00     0.002 A 
ATOM      8  C   UNL d   1     -41.581-121.157 -54.273  0.00  0.00     0.002 A 
ATOM      9  C   UNL d   1     -41.697-121.707 -54.895  0.00  0.00     0.000 A 
ATOM     10  C   UNL d   1     -41.565-123.816 -52.975  0.00  0.00     0.000 A 
ATOM     11  C   UNL d   1     -41.720-122.514 -54.702  0.00  0.00     0.000 A 
ATOM     12  C   UNL d   1     -41.655-123.567 -53.752  0.00  0.00     0.000 A 
ENDROOT
BRANCH   1  13
ATOM     13  N   UNL d   1     -41.219-121.864 -51.270  0.00  0.00    -0.157 NA
BRANCH  13  14
ATOM     14  S   UNL d   1     -41.796-122.201 -50.786  0.00  0.00     0.285 S 
ATOM     15  O   UNL d   1     -41.213-122.668 -50.433  0.00  0.00    -0.198 OA
ATOM     16  O   UNL d   1     -42.369-121.735 -51.139  0.00  0.00    -0.198 OA
BRANCH  14  17
ATOM     17  C   UNL d   1     -42.363-122.538 -50.303  0.00  0.00     0.105 A 
ATOM     18  C   UNL d   1     -43.022-122.102 -50.079  0.00  0.00     0.013 A 
ATOM     19  C   UNL d   1     -43.606-122.426 -49.591  0.00  0.00     0.001 A 
ATOM     20  C   UNL d   1     -43.506-123.220 -49.329  0.00  0.00     0.000 A 
ATOM     21  C   UNL d   1     -42.849-123.654 -49.552  0.00  0.00     0.001 A 
ATOM     22  C   UNL d   1     -42.279-123.318 -50.036  0.00  0.00     0.013 A 
ENDBRANCH  14  17
ENDBRANCH  13  14
ENDBRANCH   1  13
BRANCH   2  23
ATOM     23  N   UNL d   1     -41.323-120.191 -52.782  0.00  0.00    -0.300 N 
ATOM     24  C   UNL d   1     -41.279-119.794 -52.059  0.00  0.00     0.100 A 
ATOM     25  C   UNL d   1     -41.230-119.000 -52.061  0.00  0.00     0.102 A 
ATOM     26  N   UNL d   1     -41.222-118.533 -52.770  0.00  0.00    -0.269 N 
ATOM     27  C   UNL d   1     -41.266-118.929 -53.483  0.00  0.00     0.102 A 
ATOM     28  C   UNL d   1     -41.172-117.709 -52.776  0.00  0.00     0.265 C 
ATOM     29  C   UNL d   1     -41.319-119.800 -53.490  0.00  0.00     0.100 A 
ATOM     30  O   UNL d   1     -41.125-117.257 -52.082  0.00  0.00    -0.267 OA
ATOM     31  C   UNL d   1     -41.164-117.253 -53.461  0.00  0.00     0.066 C 
ENDBRANCH   2  23
TORSDOF 4
ENDMDL
