MODEL 1
REMARK VINA RESULT:      -3.0      0.000      0.000
REMARK  3 active torsions:
REMARK  status: ('A' for Active; 'I' for Inactive)
REMARK    1  A    between atoms: N_5  and  C_2 
REMARK    2  A    between atoms: C_8  and  C_3 
REMARK       I    between atoms: C_7  and  N_5 
REMARK    3  A    between atoms: C_10  and  C_7 
ROOT
ATOM      1  N   UNL d   1      30.891  16.794 -24.608  0.00  0.00    -0.200 NA
ATOM      2  C   UNL d   1      30.527  16.075 -24.441  0.00  0.00     0.216 A 
ATOM      3  C   UNL d   1      31.481  16.918 -24.032  0.00  0.00     0.172 A 
ATOM      4  N   UNL d   1      31.464  16.264 -23.519  0.00  0.00    -0.187 NA
ATOM      5  S   UNL d   1      30.872  15.750 -23.780  0.00  0.00     0.054 SA
ENDROOT
BRANCH   2   6
ATOM      6  N   UNL d   1      29.901  15.731 -24.878  0.00  0.00    -0.181 NA
ATOM      7  C   UNL d   1      29.122  15.797 -24.628  0.00  0.00     0.281 C 
ATOM      8  O   UNL d   1      28.518  15.453 -25.071  0.00  0.00    -0.265 OA
BRANCH   7   9
ATOM      9  C   UNL d   1      28.947  16.208 -23.935  0.00  0.00     0.058 C 
ATOM     10  C   UNL d   1      28.977  15.825 -23.206  0.00  0.00     0.005 C 
ATOM     11  C   UNL d   1      28.742  17.006 -23.974  0.00  0.00     0.005 C 
ENDBRANCH   7   9
ENDBRANCH   2   6
BRANCH   3  12
ATOM     12  C   UNL d   1      31.999  17.555 -23.956  0.00  0.00     0.036 A 
ATOM     13  C   UNL d   1      32.170  18.036 -24.612  0.00  0.00     0.003 A 
ATOM     14  C   UNL d   1      32.689  18.673 -24.535  0.00  0.00     0.000 A 
ATOM     15  C   UNL d   1      33.042  18.836 -23.802  0.00  0.00     0.000 A 
ATOM     16  C   UNL d   1      32.872  18.355 -23.146  0.00  0.00     0.000 A 
ATOM     17  C   UNL d   1      32.353  17.718 -23.222  0.00  0.00     0.003 A 
ENDBRANCH   3  12
TORSDOF 3
ENDMDL
MODEL 2
REMARK VINA RESULT:      -3.0      1.679      3.726
REMARK  3 active torsions:
REMARK  status: ('A' for Active; 'I' for Inactive)
REMARK    1  A    between atoms: N_5  and  C_2 
REMARK    2  A    between atoms: C_8  and  C_3 
REMARK       I    between atoms: C_7  and  N_5 
REMARK    3  A    between atoms: C_10  and  C_7 
ROOT
ATOM      1  N   UNL d   1      30.737  17.580 -24.404  0.00  0.00    -0.200 NA
ATOM      2  C   UNL d   1      31.426  17.590 -24.853  0.00  0.00     0.216 A 
ATOM      3  C   UNL d   1      30.471  16.790 -24.368  0.00  0.00     0.172 A 
ATOM      4  N   UNL d   1      31.012  16.329 -24.802  0.00  0.00    -0.187 NA
ATOM      5  S   UNL d   1      31.597  16.833 -25.097  0.00  0.00     0.054 SA
ENDROOT
BRANCH   2   6
ATOM      6  N   UNL d   1      31.882  18.270 -25.032  0.00  0.00    -0.181 NA
ATOM      7  C   UNL d   1      32.545  18.466 -24.589  0.00  0.00     0.281 C 
ATOM      8  O   UNL d   1      32.982  19.138 -24.779  0.00  0.00    -0.265 OA
BRANCH   7   9
ATOM      9  C   UNL d   1      32.770  17.988 -23.956  0.00  0.00     0.058 C 
ATOM     10  C   UNL d   1      33.240  17.323 -24.084  0.00  0.00     0.005 C 
ATOM     11  C   UNL d   1      32.524  18.179 -23.192  0.00  0.00     0.005 C 
ENDBRANCH   7   9
ENDBRANCH   2   6
BRANCH   3  12
ATOM     12  C   UNL d   1      29.806  16.488 -23.986  0.00  0.00     0.036 A 
ATOM     13  C   UNL d   1      29.879  15.842 -23.468  0.00  0.00     0.003 A 
ATOM     14  C   UNL d   1      29.213  15.540 -23.086  0.00  0.00     0.000 A 
ATOM     15  C   UNL d   1      28.467  15.880 -23.217  0.00  0.00     0.000 A 
ATOM     16  C   UNL d   1      28.394  16.526 -23.735  0.00  0.00     0.000 A 
ATOM     17  C   UNL d   1      29.060  16.829 -24.118  0.00  0.00     0.003 A 
ENDBRANCH   3  12
TORSDOF 3
ENDMDL
MODEL 3
REMARK VINA RESULT:      -2.9      0.700      1.134
REMARK  3 active torsions:
REMARK  status: ('A' for Active; 'I' for Inactive)
REMARK    1  A    between atoms: N_5  and  C_2 
REMARK    2  A    between atoms: C_8  and  C_3 
REMARK       I    between atoms: C_7  and  N_5 
REMARK    3  A    between atoms: C_10  and  C_7 
ROOT
ATOM      1  N   UNL d   1      30.950  16.795 -23.494  0.00  0.00    -0.200 NA
ATOM      2  C   UNL d   1      30.588  16.108 -23.764  0.00  0.00     0.216 A 
ATOM      3  C   UNL d   1      31.567  16.980 -24.024  0.00  0.00     0.172 A 
ATOM      4  N   UNL d   1      31.568  16.394 -24.614  0.00  0.00    -0.187 NA
ATOM      5  S   UNL d   1      30.960  15.860 -24.444  0.00  0.00     0.054 SA
ENDROOT
BRANCH   2   6
ATOM      6  N   UNL d   1      29.940  15.721 -23.400  0.00  0.00    -0.181 NA
ATOM      7  C   UNL d   1      29.172  15.840 -23.665  0.00  0.00     0.281 C 
ATOM      8  O   UNL d   1      28.545  15.453 -23.295  0.00  0.00    -0.265 OA
BRANCH   7   9
ATOM      9  C   UNL d   1      29.031  16.347 -24.299  0.00  0.00     0.058 C 
ATOM     10  C   UNL d   1      29.086  16.069 -25.073  0.00  0.00     0.005 C 
ATOM     11  C   UNL d   1      28.833  17.135 -24.158  0.00  0.00     0.005 C 
ENDBRANCH   7   9
ENDBRANCH   2   6
BRANCH   3  12
ATOM     12  C   UNL d   1      32.094  17.614 -23.999  0.00  0.00     0.036 A 
ATOM     13  C   UNL d   1      32.489  17.802 -23.292  0.00  0.00     0.003 A 
ATOM     14  C   UNL d   1      33.016  18.436 -23.267  0.00  0.00     0.000 A 
ATOM     15  C   UNL d   1      33.153  18.890 -23.949  0.00  0.00     0.000 A 
ATOM     16  C   UNL d   1      32.759  18.703 -24.656  0.00  0.00     0.000 A 
ATOM     17  C   UNL d   1      32.231  18.068 -24.681  0.00  0.00     0.003 A 
ENDBRANCH   3  12
TORSDOF 3
ENDMDL
MODEL 4
REMARK VINA RESULT:      -2.5      1.668      3.781
REMARK  3 active torsions:
REMARK  status: ('A' for Active; 'I' for Inactive)
REMARK    1  A    between atoms: N_5  and  C_2 
REMARK    2  A    between atoms: C_8  and  C_3 
REMARK       I    between atoms: C_7  and  N_5 
REMARK    3  A    between atoms: C_10  and  C_7 
ROOT
ATOM      1  N   UNL d   1      30.989  16.717 -23.440  0.00  0.00    -0.200 NA
ATOM      2  C   UNL d   1      31.806  16.638 -23.491  0.00  0.00     0.216 A 
ATOM      3  C   UNL d   1      30.649  16.028 -23.766  0.00  0.00     0.172 A 
ATOM      4  N   UNL d   1      31.274  15.538 -24.011  0.00  0.00    -0.187 NA
ATOM      5  S   UNL d   1      31.984  15.924 -23.837  0.00  0.00     0.054 SA
ENDROOT
BRANCH   2   6
ATOM      6  N   UNL d   1      32.368  17.202 -23.229  0.00  0.00    -0.181 NA
ATOM      7  C   UNL d   1      32.682  17.759 -23.744  0.00  0.00     0.281 C 
ATOM      8  O   UNL d   1      33.234  18.306 -23.471  0.00  0.00    -0.265 OA
BRANCH   7   9
ATOM      9  C   UNL d   1      32.443  17.768 -24.533  0.00  0.00     0.058 C 
ATOM     10  C   UNL d   1      32.830  17.301 -25.091  0.00  0.00     0.005 C 
ATOM     11  C   UNL d   1      31.814  18.249 -24.764  0.00  0.00     0.005 C 
ENDBRANCH   7   9
ENDBRANCH   2   6
BRANCH   3  12
ATOM     12  C   UNL d   1      29.850  15.837 -23.845  0.00  0.00     0.036 A 
ATOM     13  C   UNL d   1      29.354  15.827 -23.178  0.00  0.00     0.003 A 
ATOM     14  C   UNL d   1      28.556  15.636 -23.257  0.00  0.00     0.000 A 
ATOM     15  C   UNL d   1      28.245  15.452 -24.005  0.00  0.00     0.000 A 
ATOM     16  C   UNL d   1      28.740  15.462 -24.672  0.00  0.00     0.000 A 
ATOM     17  C   UNL d   1      29.539  15.654 -24.593  0.00  0.00     0.003 A 
ENDBRANCH   3  12
TORSDOF 3
ENDMDL
MODEL 5
REMARK VINA RESULT:      -2.1      2.396      3.348
REMARK  3 active torsions:
REMARK  status: ('A' for Active; 'I' for Inactive)
REMARK    1  A    between atoms: N_5  and  C_2 
REMARK    2  A    between atoms: C_8  and  C_3 
REMARK       I    between atoms: C_7  and  N_5 
REMARK    3  A    between atoms: C_10  and  C_7 
ROOT
ATOM      1  N   UNL d   1      33.241  18.398 -22.942  0.00  0.00    -0.200 NA
ATOM      2  C   UNL d   1      33.233  18.059 -23.692  0.00  0.00     0.216 A 
ATOM      3  C   UNL d   1      33.229  19.226 -23.040  0.00  0.00     0.172 A 
ATOM      4  N   UNL d   1      33.214  19.376 -23.858  0.00  0.00    -0.187 NA
ATOM      5  S   UNL d   1      33.217  18.649 -24.251  0.00  0.00     0.054 SA
ENDROOT
BRANCH   2   6
ATOM      6  N   UNL d   1      33.241  17.237 -23.856  0.00  0.00    -0.181 NA
ATOM      7  C   UNL d   1      32.565  16.850 -24.114  0.00  0.00     0.281 C 
ATOM      8  O   UNL d   1      32.589  16.041 -24.272  0.00  0.00    -0.265 OA
BRANCH   7   9
ATOM      9  C   UNL d   1      31.863  17.272 -24.215  0.00  0.00     0.058 C 
ATOM     10  C   UNL d   1      31.309  17.307 -23.606  0.00  0.00     0.005 C 
ATOM     11  C   UNL d   1      31.718  17.659 -24.928  0.00  0.00     0.005 C 
ENDBRANCH   7   9
ENDBRANCH   2   6
BRANCH   3  12
ATOM     12  C   UNL d   1      33.230  19.812 -22.460  0.00  0.00     0.036 A 
ATOM     13  C   UNL d   1      33.232  20.615 -22.676  0.00  0.00     0.003 A 
ATOM     14  C   UNL d   1      33.233  21.201 -22.096  0.00  0.00     0.000 A 
ATOM     15  C   UNL d   1      33.234  20.991 -21.293  0.00  0.00     0.000 A 
ATOM     16  C   UNL d   1      33.233  20.189 -21.075  0.00  0.00     0.000 A 
ATOM     17  C   UNL d   1      33.231  19.602 -21.656  0.00  0.00     0.003 A 
ENDBRANCH   3  12
TORSDOF 3
ENDMDL
MODEL 6
REMARK VINA RESULT:      -1.5      1.767      2.117
REMARK  3 active torsions:
REMARK  status: ('A' for Active; 'I' for Inactive)
REMARK    1  A    between atoms: N_5  and  C_2 
REMARK    2  A    between atoms: C_8  and  C_3 
REMARK       I    between atoms: C_7  and  N_5 
REMARK    3  A    between atoms: C_10  and  C_7 
ROOT
ATOM      1  N   UNL d   1      30.654  17.153 -24.215  0.00  0.00    -0.200 NA
ATOM      2  C   UNL d   1      29.916  17.236 -24.567  0.00  0.00     0.216 A 
ATOM      3  C   UNL d   1      31.012  16.472 -24.536  0.00  0.00     0.172 A 
ATOM      4  N   UNL d   1      30.477  16.149 -25.086  0.00  0.00    -0.187 NA
ATOM      5  S   UNL d   1      29.803  16.629 -25.097  0.00  0.00     0.054 SA
ENDROOT
BRANCH   2   6
ATOM      6  N   UNL d   1      29.365  17.847 -24.408  0.00  0.00    -0.181 NA
ATOM      7  C   UNL d   1      28.635  17.683 -24.069  0.00  0.00     0.281 C 
ATOM      8  O   UNL d   1      28.105  18.296 -23.919  0.00  0.00    -0.265 OA
BRANCH   7   9
ATOM      9  C   UNL d   1      28.437  16.905 -23.879  0.00  0.00     0.058 C 
ATOM     10  C   UNL d   1      28.577  16.614 -23.121  0.00  0.00     0.005 C 
ATOM     11  C   UNL d   1      28.097  16.419 -24.451  0.00  0.00     0.005 C 
ENDBRANCH   7   9
ENDBRANCH   2   6
BRANCH   3  12
ATOM     12  C   UNL d   1      31.752  16.150 -24.366  0.00  0.00     0.036 A 
ATOM     13  C   UNL d   1      31.946  15.937 -23.586  0.00  0.00     0.003 A 
ATOM     14  C   UNL d   1      32.687  15.616 -23.416  0.00  0.00     0.000 A 
ATOM     15  C   UNL d   1      33.241  15.503 -24.024  0.00  0.00     0.000 A 
ATOM     16  C   UNL d   1      33.048  15.716 -24.804  0.00  0.00     0.000 A 
ATOM     17  C   UNL d   1      32.307  16.038 -24.974  0.00  0.00     0.003 A 
ENDBRANCH   3  12
TORSDOF 3
ENDMDL
