MODEL 1
REMARK VINA RESULT:      14.8      0.000      0.000
REMARK  8 active torsions:
REMARK  status: ('A' for Active; 'I' for Inactive)
REMARK    1  A    between atoms: C_7  and  N_1 
REMARK    2  A    between atoms: C_23  and  C_5 
REMARK    3  A    between atoms: C_22  and  C_6 
REMARK    4  A    between atoms: C_8  and  C_7 
REMARK       I    between atoms: N_10  and  C_8 
REMARK    5  A    between atoms: C_9  and  C_13 
REMARK    6  A    between atoms: O_19  and  C_9 
REMARK    7  A    between atoms: C_18  and  N_10 
REMARK    8  A    between atoms: C_24  and  O_19 
ROOT
ATOM      1  C   UNL d   1      46.384 -16.751  44.268  0.00  0.00     0.297 C 
ATOM      2  N   UNL d   1      46.045 -16.282  44.860  0.00  0.00    -0.207 NA
ATOM      3  O   UNL d   1      46.502 -16.437  43.514  0.00  0.00    -0.264 OA
ENDROOT
BRANCH   1   4
ATOM      4  C   UNL d   1      46.602 -17.523  44.422  0.00  0.00     0.148 C 
BRANCH   4   5
ATOM      5  N   UNL d   1      46.433 -18.117  43.875  0.00  0.00    -0.235 N 
ATOM      6  C   UNL d   1      46.241 -18.878  44.140  0.00  0.00     0.273 A 
ATOM      7  C   UNL d   1      46.075 -19.467  43.599  0.00  0.00     0.086 A 
ATOM      8  O   UNL d   1      46.219 -19.038  44.952  0.00  0.00    -0.266 OA
ATOM      9  S   UNL d   1      46.094 -19.317  42.794  0.00  0.00    -0.077 SA
ATOM     10  C   UNL d   1      46.284 -18.565  42.527  0.00  0.00     0.086 A 
ATOM     11  C   UNL d   1      46.455 -17.960  43.061  0.00  0.00     0.273 A 
ATOM     12  O   UNL d   1      46.645 -17.204  42.796  0.00  0.00    -0.266 OA
BRANCH   7  13
ATOM     13  C   UNL d   1      45.882 -20.230  43.868  0.00  0.00     0.011 C 
ATOM     14  C   UNL d   1      45.339 -20.327  44.481  0.00  0.00     0.001 C 
ENDBRANCH   7  13
BRANCH  10  15
ATOM     15  C   UNL d   1      46.305 -18.407  41.718  0.00  0.00     0.011 C 
ATOM     16  C   UNL d   1      46.190 -19.020  41.177  0.00  0.00     0.001 C 
ENDBRANCH  10  15
ENDBRANCH   4   5
ENDBRANCH   1   4
BRANCH   2  17
ATOM     17  C   UNL d   1      45.827 -15.501  44.697  0.00  0.00     0.085 A 
ATOM     18  C   UNL d   1      46.396 -14.904  44.700  0.00  0.00     0.019 A 
ATOM     19  C   UNL d   1      46.163 -14.133  44.536  0.00  0.00     0.007 A 
ATOM     20  C   UNL d   1      45.383 -13.951  44.372  0.00  0.00     0.064 A 
ATOM     21  C   UNL d   1      44.816 -14.551  44.370  0.00  0.00     0.007 A 
ATOM     22  C   UNL d   1      45.035 -15.332  44.533  0.00  0.00     0.019 A 
BRANCH  20  23
ATOM     23  C   UNL d   1      45.159 -13.171  44.208  0.00  0.00     0.300 C 
ATOM     24  O   UNL d   1      45.317 -12.577  44.758  0.00  0.00    -0.259 OA
BRANCH  23  25
ATOM     25  O   UNL d   1      44.784 -12.989  43.508  0.00  0.00    -0.271 OA
BRANCH  25  26
ATOM     26  C   UNL d   1      44.847 -12.240  43.175  0.00  0.00     0.126 C 
ATOM     27  C   UNL d   1      44.858 -12.138  42.367  0.00  0.00     0.029 C 
ENDBRANCH  25  26
ENDBRANCH  23  25
ENDBRANCH  20  23
ENDBRANCH   2  17
TORSDOF 8
ENDMDL
