MODEL 1
REMARK VINA RESULT:      46.9      0.000      0.000
REMARK  6 active torsions:
REMARK  status: ('A' for Active; 'I' for Inactive)
REMARK    1  A    between atoms: C_8  and  C_3 
REMARK    2  A    between atoms: C_7  and  O_15 
REMARK    3  A    between atoms: S_9  and  C_8 
REMARK    4  A    between atoms: C_18  and  S_9 
REMARK    5  A    between atoms: O_15  and  C_19 
REMARK    6  A    between atoms: C_19  and  C_18 
ROOT
ATOM      1  S   UNL d   1      60.151  49.061  50.570  0.00  0.00    -0.081 SA
ENDROOT
BRANCH   1   2
ATOM      2  C   UNL d   1      59.765  49.683  50.946  0.00  0.00     0.074 C 
BRANCH   2   3
ATOM      3  C   UNL d   1      58.944  49.685  50.998  0.00  0.00     0.169 A 
ATOM      4  N   UNL d   1      58.207  49.704  51.394  0.00  0.00    -0.225 NA
ATOM      5  C   UNL d   1      57.602  49.674  50.815  0.00  0.00     0.101 A 
ATOM      6  C   UNL d   1      57.972  49.637  50.070  0.00  0.00     0.101 A 
ATOM      7  C   UNL d   1      56.772  49.675  50.855  0.00  0.00     0.021 A 
ATOM      8  N   UNL d   1      58.800  49.643  50.174  0.00  0.00    -0.225 NA
ATOM      9  C   UNL d   1      57.506  49.601  49.379  0.00  0.00     0.021 A 
ATOM     10  C   UNL d   1      56.693  49.603  49.435  0.00  0.00     0.002 A 
ATOM     11  C   UNL d   1      56.325  49.640  50.173  0.00  0.00     0.002 A 
ENDBRANCH   2   3
ENDBRANCH   1   2
BRANCH   1  12
ATOM     12  C   UNL d   1      60.828  48.735  50.906  0.00  0.00     0.062 C 
BRANCH  12  13
ATOM     13  C   UNL d   1      61.098  47.999  50.654  0.00  0.00     0.130 C 
BRANCH  13  14
ATOM     14  O   UNL d   1      61.652  47.593  51.112  0.00  0.00    -0.305 OA
BRANCH  14  15
ATOM     15  C   UNL d   1      61.645  46.983  50.556  0.00  0.00     0.100 A 
ATOM     16  C   UNL d   1      61.165  46.334  50.675  0.00  0.00     0.026 A 
ATOM     17  C   UNL d   1      61.155  45.722  50.122  0.00  0.00     0.013 A 
ATOM     18  C   UNL d   1      61.631  45.768  49.446  0.00  0.00     0.058 A 
ATOM     19  C   UNL d   1      62.111  46.423  49.332  0.00  0.00     0.013 A 
ATOM     20 CL   UNL d   1      61.623  45.158  48.890  0.00  0.00    -0.082 Cl
ATOM     21  C   UNL d   1      62.115  47.031  49.890  0.00  0.00     0.026 A 
ENDBRANCH  14  15
ENDBRANCH  13  14
ENDBRANCH  12  13
ENDBRANCH   1  12
TORSDOF 6
ENDMDL
