MODEL 1
REMARK VINA RESULT:      -3.4      0.000      0.000
REMARK  6 active torsions:
REMARK  status: ('A' for Active; 'I' for Inactive)
REMARK       I    between atoms: C_2  and  N_1 
REMARK    1  A    between atoms: C_3  and  C_2 
REMARK    2  A    between atoms: C_12  and  C_4 
REMARK       I    between atoms: C_5  and  N_8 
REMARK    3  A    between atoms: C_6  and  C_5 
REMARK       I    between atoms: N_9  and  C_6 
REMARK    4  A    between atoms: N_8  and  C_12 
REMARK    5  A    between atoms: C_19  and  N_9 
REMARK    6  A    between atoms: C_20  and  C_19 
ROOT
ATOM      1  C   UNL d   1      32.947  19.290 -23.718  0.00  0.00     0.337 C 
ATOM      2  N   UNL d   1      32.683  18.599 -24.071  0.00  0.00    -0.199 NA
ATOM      3  O   UNL d   1      33.232  19.905 -24.184  0.00  0.00    -0.260 OA
ENDROOT
BRANCH   2   4
ATOM      4  C   UNL d   1      32.398  17.984 -23.604  0.00  0.00     0.146 C 
BRANCH   4   5
ATOM      5  C   UNL d   1      32.398  17.208 -23.902  0.00  0.00     0.190 A 
ATOM      6  N   UNL d   1      31.724  16.758 -24.043  0.00  0.00    -0.250 N 
ATOM      7  C   UNL d   1      30.917  16.918 -23.944  0.00  0.00     0.272 C 
ATOM      8  C   UNL d   1      31.980  16.028 -24.336  0.00  0.00     0.112 A 
ATOM      9  O   UNL d   1      30.677  17.654 -23.651  0.00  0.00    -0.266 OA
ATOM     10  C   UNL d   1      32.801  16.035 -24.371  0.00  0.00     0.144 A 
ATOM     11  O   UNL d   1      33.054  16.776 -24.098  0.00  0.00    -0.285 OA
BRANCH   7  12
ATOM     12  C   UNL d   1      30.353  16.351 -24.136  0.00  0.00     0.086 A 
ATOM     13  S   UNL d   1      30.163  15.991 -24.858  0.00  0.00    -0.082 SA
ATOM     14  C   UNL d   1      29.538  15.453 -24.714  0.00  0.00     0.036 A 
ATOM     15  C   UNL d   1      29.357  15.492 -23.910  0.00  0.00     0.008 A 
ATOM     16  C   UNL d   1      29.853  16.041 -23.551  0.00  0.00     0.012 A 
ENDBRANCH   7  12
ENDBRANCH   4   5
ENDBRANCH   2   4
BRANCH   1  17
ATOM     17  C   UNL d   1      32.930  19.378 -22.893  0.00  0.00     0.337 C 
ATOM     18  N   UNL d   1      32.880  20.122 -22.552  0.00  0.00    -0.202 NA
ATOM     19  O   UNL d   1      32.964  18.710 -22.414  0.00  0.00    -0.260 OA
BRANCH  18  20
ATOM     20  C   UNL d   1      32.863  20.228 -21.744  0.00  0.00     0.102 C 
BRANCH  20  21
ATOM     21  C   UNL d   1      32.728  20.974 -21.407  0.00  0.00     0.019 A 
ATOM     22  C   UNL d   1      33.207  21.599 -21.598  0.00  0.00     0.002 A 
ATOM     23  C   UNL d   1      33.081  22.340 -21.270  0.00  0.00     0.000 A 
ATOM     24  C   UNL d   1      32.452  22.458 -20.732  0.00  0.00     0.000 A 
ATOM     25  C   UNL d   1      31.971  21.824 -20.542  0.00  0.00     0.000 A 
ATOM     26  C   UNL d   1      32.330  23.220 -20.400  0.00  0.00     0.000 C 
ATOM     27  C   UNL d   1      32.115  21.086 -20.884  0.00  0.00     0.002 A 
ENDBRANCH  20  21
ENDBRANCH  18  20
ENDBRANCH   1  17
TORSDOF 6
ENDMDL
