MODEL 1
REMARK VINA RESULT:      14.4      0.000      0.000
REMARK  1 active torsions:
REMARK  status: ('A' for Active; 'I' for Inactive)
REMARK       I    between atoms: C_2  and  N_1 
REMARK    1  A    between atoms: C_4  and  C_2 
ROOT
ATOM      1  N   UNL d   1      44.054 -15.434  36.750  0.00  0.00    -0.273 N 
ATOM      2  C   UNL d   1      44.525 -14.773  36.990  0.00  0.00     0.271 C 
ATOM      3  C   UNL d   1      43.233 -15.476  36.696  0.00  0.00     0.067 A 
ATOM      4  C   UNL d   1      44.342 -16.188  36.518  0.00  0.00     0.083 A 
ATOM      5  O   UNL d   1      44.134 -14.070  37.201  0.00  0.00    -0.266 OA
ATOM      6  C   UNL d   1      43.015 -16.228  36.439  0.00  0.00     0.018 A 
ATOM      7  C   UNL d   1      43.712 -16.665  36.330  0.00  0.00     0.021 A 
ATOM      8  C   UNL d   1      42.665 -14.901  36.856  0.00  0.00     0.018 A 
ATOM      9  C   UNL d   1      42.227 -16.413  36.339  0.00  0.00     0.002 A 
ATOM     10  C   UNL d   1      41.872 -15.085  36.756  0.00  0.00     0.002 A 
ATOM     11  C   UNL d   1      41.637 -15.860  36.491  0.00  0.00     0.000 A 
ENDROOT
BRANCH   2  12
ATOM     12  C   UNL d   1      45.357 -14.833  37.012  0.00  0.00     0.086 A 
ATOM     13  S   UNL d   1      45.884 -15.362  36.675  0.00  0.00    -0.082 SA
ATOM     14  C   UNL d   1      46.646 -15.128  36.901  0.00  0.00     0.036 A 
ATOM     15  C   UNL d   1      46.606 -14.463  37.373  0.00  0.00     0.008 A 
ATOM     16  C   UNL d   1      45.804 -14.271  37.448  0.00  0.00     0.012 A 
ENDBRANCH   2  12
TORSDOF 1
ENDMDL
MODEL 2
REMARK VINA RESULT:      14.4      0.939      3.274
REMARK  1 active torsions:
REMARK  status: ('A' for Active; 'I' for Inactive)
REMARK       I    between atoms: C_2  and  N_1 
REMARK    1  A    between atoms: C_4  and  C_2 
ROOT
ATOM      1  N   UNL d   1      44.363 -15.322  36.832  0.00  0.00    -0.273 N 
ATOM      2  C   UNL d   1      43.583 -15.063  37.032  0.00  0.00     0.271 C 
ATOM      3  C   UNL d   1      45.078 -14.953  37.008  0.00  0.00     0.067 A 
ATOM      4  C   UNL d   1      44.559 -16.019  36.405  0.00  0.00     0.083 A 
ATOM      5  O   UNL d   1      43.502 -14.354  37.459  0.00  0.00    -0.266 OA
ATOM      6  C   UNL d   1      45.699 -15.401  36.704  0.00  0.00     0.018 A 
ATOM      7  C   UNL d   1      45.366 -16.063  36.331  0.00  0.00     0.021 A 
ATOM      8  C   UNL d   1      45.222 -14.251  37.417  0.00  0.00     0.018 A 
ATOM      9  C   UNL d   1      46.469 -15.154  36.806  0.00  0.00     0.002 A 
ATOM     10  C   UNL d   1      45.995 -14.001  37.519  0.00  0.00     0.002 A 
ATOM     11  C   UNL d   1      46.644 -14.458  37.209  0.00  0.00     0.000 A 
ENDROOT
BRANCH   2  12
ATOM     12  C   UNL d   1      42.917 -15.513  36.805  0.00  0.00     0.086 A 
ATOM     13  S   UNL d   1      42.835 -16.200  36.365  0.00  0.00    -0.082 SA
ATOM     14  C   UNL d   1      42.026 -16.375  36.330  0.00  0.00     0.036 A 
ATOM     15  C   UNL d   1      41.601 -15.811  36.739  0.00  0.00     0.008 A 
ATOM     16  C   UNL d   1      42.149 -15.269  37.039  0.00  0.00     0.012 A 
ENDBRANCH   2  12
TORSDOF 1
ENDMDL
MODEL 3
REMARK VINA RESULT:      16.0      7.514      8.021
REMARK  1 active torsions:
REMARK  status: ('A' for Active; 'I' for Inactive)
REMARK       I    between atoms: C_2  and  N_1 
REMARK    1  A    between atoms: C_4  and  C_2 
ROOT
ATOM      1  N   UNL d   1      46.140 -18.084  43.528  0.00  0.00    -0.273 N 
ATOM      2  C   UNL d   1      46.099 -17.745  44.303  0.00  0.00     0.271 C 
ATOM      3  C   UNL d   1      46.315 -18.864  43.328  0.00  0.00     0.067 A 
ATOM      4  C   UNL d   1      46.008 -17.680  42.804  0.00  0.00     0.083 A 
ATOM      5  O   UNL d   1      46.249 -18.237  44.955  0.00  0.00    -0.266 OA
ATOM      6  C   UNL d   1      46.293 -18.946  42.508  0.00  0.00     0.018 A 
ATOM      7  C   UNL d   1      46.101 -18.204  42.190  0.00  0.00     0.021 A 
ATOM      8  C   UNL d   1      46.492 -19.505  43.814  0.00  0.00     0.018 A 
ATOM      9  C   UNL d   1      46.447 -19.669  42.166  0.00  0.00     0.002 A 
ATOM     10  C   UNL d   1      46.647 -20.234  43.471  0.00  0.00     0.002 A 
ATOM     11  C   UNL d   1      46.627 -20.329  42.625  0.00  0.00     0.000 A 
ENDROOT
BRANCH   2  12
ATOM     12  C   UNL d   1      45.913 -16.937  44.401  0.00  0.00     0.086 A 
ATOM     13  S   UNL d   1      46.200 -16.255  44.049  0.00  0.00    -0.082 SA
ATOM     14  C   UNL d   1      45.791 -15.615  44.381  0.00  0.00     0.036 A 
ATOM     15  C   UNL d   1      45.255 -15.884  44.934  0.00  0.00     0.008 A 
ATOM     16  C   UNL d   1      45.323 -16.709  44.953  0.00  0.00     0.012 A 
ENDBRANCH   2  12
TORSDOF 1
ENDMDL
MODEL 4
REMARK VINA RESULT:      17.2      7.453      8.135
REMARK  1 active torsions:
REMARK  status: ('A' for Active; 'I' for Inactive)
REMARK       I    between atoms: C_2  and  N_1 
REMARK    1  A    between atoms: C_4  and  C_2 
ROOT
ATOM      1  N   UNL d   1      45.639 -14.518  44.357  0.00  0.00    -0.273 N 
ATOM      2  C   UNL d   1      45.223 -15.204  44.088  0.00  0.00     0.271 C 
ATOM      3  C   UNL d   1      45.443 -13.728  44.231  0.00  0.00     0.067 A 
ATOM      4  C   UNL d   1      46.344 -14.514  44.813  0.00  0.00     0.083 A 
ATOM      5  O   UNL d   1      44.531 -15.094  43.641  0.00  0.00    -0.266 OA
ATOM      6  C   UNL d   1      46.004 -13.247  44.594  0.00  0.00     0.018 A 
ATOM      7  C   UNL d   1      46.562 -13.745  44.955  0.00  0.00     0.021 A 
ATOM      8  C   UNL d   1      44.807 -13.402  43.820  0.00  0.00     0.018 A 
ATOM      9  C   UNL d   1      45.936 -12.435  44.551  0.00  0.00     0.002 A 
ATOM     10  C   UNL d   1      44.737 -12.587  43.775  0.00  0.00     0.002 A 
ATOM     11  C   UNL d   1      45.312 -12.081  44.148  0.00  0.00     0.000 A 
ENDROOT
BRANCH   2  12
ATOM     12  C   UNL d   1      45.506 -15.968  44.270  0.00  0.00     0.086 A 
ATOM     13  S   UNL d   1      45.481 -16.421  44.953  0.00  0.00    -0.082 SA
ATOM     14  C   UNL d   1      45.860 -17.138  44.787  0.00  0.00     0.036 A 
ATOM     15  C   UNL d   1      46.122 -17.143  44.014  0.00  0.00     0.008 A 
ATOM     16  C   UNL d   1      45.905 -16.416  43.684  0.00  0.00     0.012 A 
ENDBRANCH   2  12
TORSDOF 1
ENDMDL
