MODEL 1
REMARK VINA RESULT:      -7.7      0.000      0.000
REMARK  3 active torsions:
REMARK  status: ('A' for Active; 'I' for Inactive)
REMARK    1  A    between atoms: C_8  and  C_1 
REMARK    2  A    between atoms: C_9  and  C_8 
REMARK    3  A    between atoms: O_16  and  C_13 
ROOT
ATOM      1  C   UNL d   1     -47.468  12.767  22.677  0.00  0.00     0.013 A 
ATOM      2  C   UNL d   1     -48.791  12.232  22.501  0.00  0.00     0.105 A 
ATOM      3  O   UNL d   1     -48.580  11.575  22.939  0.00  0.00    -0.273 OA
ATOM      4  C   UNL d   1     -48.232  12.839  22.365  0.00  0.00     0.023 A 
ATOM      5  C   UNL d   1     -47.818  11.508  23.249  0.00  0.00     0.300 A 
ATOM      6  C   UNL d   1     -47.264  12.103  23.117  0.00  0.00     0.069 A 
ATOM      7  C   UNL d   1     -49.542  12.303  22.194  0.00  0.00     0.049 A 
ATOM      8  C   UNL d   1     -48.439  13.498  21.926  0.00  0.00     0.004 A 
ATOM      9  O   UNL d   1     -47.611  10.829  23.698  0.00  0.00    -0.259 OA
ATOM     10  C   UNL d   1     -49.755  12.972  21.748  0.00  0.00     0.096 A 
ATOM     11  C   UNL d   1     -49.206  13.566  21.615  0.00  0.00     0.024 A 
ENDROOT
BRANCH   1  12
ATOM     12  C   UNL d   1     -46.921  13.367  22.541  0.00  0.00     0.070 C 
BRANCH  12  13
ATOM     13  C   UNL d   1     -46.203  13.360  22.952  0.00  0.00     0.211 C 
ATOM     14  O   UNL d   1     -45.533  12.999  22.610  0.00  0.00    -0.644 OA
ATOM     15  O   UNL d   1     -46.144  13.707  23.698  0.00  0.00    -0.644 OA
ENDBRANCH  12  13
ENDBRANCH   1  12
BRANCH  10  16
ATOM     16  O   UNL d   1     -50.517  13.037  21.440  0.00  0.00    -0.328 OA
ATOM     17  C   UNL d   1     -50.963  13.721  21.578  0.00  0.00     0.181 C 
ENDBRANCH  10  16
TORSDOF 3
ENDMDL
MODEL 2
REMARK VINA RESULT:      -7.6      1.606      3.323
REMARK  3 active torsions:
REMARK  status: ('A' for Active; 'I' for Inactive)
REMARK    1  A    between atoms: C_8  and  C_1 
REMARK    2  A    between atoms: C_9  and  C_8 
REMARK    3  A    between atoms: O_16  and  C_13 
ROOT
ATOM      1  C   UNL d   1     -48.751  14.326  22.909  0.00  0.00     0.013 A 
ATOM      2  C   UNL d   1     -47.857  13.200  22.945  0.00  0.00     0.105 A 
ATOM      3  O   UNL d   1     -48.496  12.700  23.033  0.00  0.00    -0.273 OA
ATOM      4  C   UNL d   1     -47.980  14.026  22.883  0.00  0.00     0.023 A 
ATOM      5  C   UNL d   1     -49.264  13.003  23.059  0.00  0.00     0.300 A 
ATOM      6  C   UNL d   1     -49.389  13.815  22.997  0.00  0.00     0.069 A 
ATOM      7  C   UNL d   1     -47.099  12.906  22.919  0.00  0.00     0.049 A 
ATOM      8  C   UNL d   1     -47.341  14.531  22.795  0.00  0.00     0.004 A 
ATOM      9  O   UNL d   1     -49.914  12.480  23.149  0.00  0.00    -0.259 OA
ATOM     10  C   UNL d   1     -46.448  13.418  22.830  0.00  0.00     0.096 A 
ATOM     11  C   UNL d   1     -46.570  14.225  22.769  0.00  0.00     0.024 A 
ENDROOT
BRANCH   1  12
ATOM     12  C   UNL d   1     -48.867  15.139  22.847  0.00  0.00     0.070 C 
BRANCH  12  13
ATOM     13  C   UNL d   1     -49.629  15.447  22.947  0.00  0.00     0.211 C 
ATOM     14  O   UNL d   1     -50.123  15.553  22.283  0.00  0.00    -0.644 OA
ATOM     15  O   UNL d   1     -49.904  15.649  23.697  0.00  0.00    -0.644 OA
ENDBRANCH  12  13
ENDBRANCH   1  12
BRANCH  10  16
ATOM     16  O   UNL d   1     -45.684  13.111  22.804  0.00  0.00    -0.328 OA
ATOM     17  C   UNL d   1     -45.217  13.217  22.127  0.00  0.00     0.181 C 
ENDBRANCH  10  16
TORSDOF 3
ENDMDL
MODEL 3
REMARK VINA RESULT:      -7.5      1.314      2.054
REMARK  3 active torsions:
REMARK  status: ('A' for Active; 'I' for Inactive)
REMARK    1  A    between atoms: C_8  and  C_1 
REMARK    2  A    between atoms: C_9  and  C_8 
REMARK    3  A    between atoms: O_16  and  C_13 
ROOT
ATOM      1  C   UNL d   1     -47.519  13.398  22.726  0.00  0.00     0.013 A 
ATOM      2  C   UNL d   1     -48.955  13.459  22.747  0.00  0.00     0.105 A 
ATOM      3  O   UNL d   1     -48.919  14.269  22.656  0.00  0.00    -0.273 OA
ATOM      4  C   UNL d   1     -48.249  13.012  22.784  0.00  0.00     0.023 A 
ATOM      5  C   UNL d   1     -48.189  14.651  22.598  0.00  0.00     0.300 A 
ATOM      6  C   UNL d   1     -47.491  14.215  22.633  0.00  0.00     0.069 A 
ATOM      7  C   UNL d   1     -49.673  13.078  22.805  0.00  0.00     0.049 A 
ATOM      8  C   UNL d   1     -48.281  12.198  22.876  0.00  0.00     0.004 A 
ATOM      9  O   UNL d   1     -48.162  15.484  22.504  0.00  0.00    -0.259 OA
ATOM     10  C   UNL d   1     -49.708  12.252  22.898  0.00  0.00     0.096 A 
ATOM     11  C   UNL d   1     -49.015  11.815  22.933  0.00  0.00     0.024 A 
ENDROOT
BRANCH   1  12
ATOM     12  C   UNL d   1     -46.826  12.953  22.762  0.00  0.00     0.070 C 
BRANCH  12  13
ATOM     13  C   UNL d   1     -46.110  13.335  22.923  0.00  0.00     0.211 C 
ATOM     14  O   UNL d   1     -45.595  13.530  22.296  0.00  0.00    -0.644 OA
ATOM     15  O   UNL d   1     -45.901  13.525  23.698  0.00  0.00    -0.644 OA
ENDBRANCH  12  13
ENDBRANCH   1  12
BRANCH  10  16
ATOM     16  O   UNL d   1     -50.438  11.874  22.955  0.00  0.00    -0.328 OA
ATOM     17  C   UNL d   1     -50.737  11.659  23.698  0.00  0.00     0.181 C 
ENDBRANCH  10  16
TORSDOF 3
ENDMDL
MODEL 4
REMARK VINA RESULT:      -7.3      1.362      3.631
REMARK  3 active torsions:
REMARK  status: ('A' for Active; 'I' for Inactive)
REMARK    1  A    between atoms: C_8  and  C_1 
REMARK    2  A    between atoms: C_9  and  C_8 
REMARK    3  A    between atoms: O_16  and  C_13 
ROOT
ATOM      1  C   UNL d   1     -48.845  13.139  23.021  0.00  0.00     0.013 A 
ATOM      2  C   UNL d   1     -47.691  13.989  22.911  0.00  0.00     0.105 A 
ATOM      3  O   UNL d   1     -48.179  14.643  22.884  0.00  0.00    -0.273 OA
ATOM      4  C   UNL d   1     -48.022  13.224  22.980  0.00  0.00     0.023 A 
ATOM      5  C   UNL d   1     -48.999  14.553  22.925  0.00  0.00     0.300 A 
ATOM      6  C   UNL d   1     -49.330  13.802  22.994  0.00  0.00     0.069 A 
ATOM      7  C   UNL d   1     -46.882  14.073  22.870  0.00  0.00     0.049 A 
ATOM      8  C   UNL d   1     -47.535  12.566  23.007  0.00  0.00     0.004 A 
ATOM      9  O   UNL d   1     -49.493  15.232  22.897  0.00  0.00    -0.259 OA
ATOM     10  C   UNL d   1     -46.385  13.405  22.898  0.00  0.00     0.096 A 
ATOM     11  C   UNL d   1     -46.711  12.656  22.966  0.00  0.00     0.024 A 
ENDROOT
BRANCH   1  12
ATOM     12  C   UNL d   1     -49.167  12.383  23.089  0.00  0.00     0.070 C 
BRANCH  12  13
ATOM     13  C   UNL d   1     -49.985  12.285  23.015  0.00  0.00     0.211 C 
ATOM     14  O   UNL d   1     -50.464  12.276  23.698  0.00  0.00    -0.644 OA
ATOM     15  O   UNL d   1     -50.331  12.196  22.272  0.00  0.00    -0.644 OA
ENDBRANCH  12  13
ENDBRANCH   1  12
BRANCH  10  16
ATOM     16  O   UNL d   1     -45.567  13.498  22.856  0.00  0.00    -0.328 OA
ATOM     17  C   UNL d   1     -45.161  13.288  22.165  0.00  0.00     0.181 C 
ENDBRANCH  10  16
TORSDOF 3
ENDMDL
MODEL 5
REMARK VINA RESULT:      -7.2      1.578      2.560
REMARK  3 active torsions:
REMARK  status: ('A' for Active; 'I' for Inactive)
REMARK    1  A    between atoms: C_8  and  C_1 
REMARK    2  A    between atoms: C_9  and  C_8 
REMARK    3  A    between atoms: O_16  and  C_13 
ROOT
ATOM      1  C   UNL d   1     -48.500  12.858  22.983  0.00  0.00     0.013 A 
ATOM      2  C   UNL d   1     -48.433  14.294  22.952  0.00  0.00     0.105 A 
ATOM      3  O   UNL d   1     -47.619  14.252  22.905  0.00  0.00    -0.273 OA
ATOM      4  C   UNL d   1     -48.885  13.590  22.992  0.00  0.00     0.023 A 
ATOM      5  C   UNL d   1     -47.239  13.519  22.897  0.00  0.00     0.300 A 
ATOM      6  C   UNL d   1     -47.679  12.824  22.936  0.00  0.00     0.069 A 
ATOM      7  C   UNL d   1     -48.813  15.014  22.961  0.00  0.00     0.049 A 
ATOM      8  C   UNL d   1     -49.702  13.628  23.038  0.00  0.00     0.004 A 
ATOM      9  O   UNL d   1     -46.401  13.487  22.849  0.00  0.00    -0.259 OA
ATOM     10  C   UNL d   1     -49.643  15.054  23.008  0.00  0.00     0.096 A 
ATOM     11  C   UNL d   1     -50.084  14.365  23.047  0.00  0.00     0.024 A 
ENDROOT
BRANCH   1  12
ATOM     12  C   UNL d   1     -48.949  12.168  23.022  0.00  0.00     0.070 C 
BRANCH  12  13
ATOM     13  C   UNL d   1     -48.566  11.435  22.992  0.00  0.00     0.211 C 
ATOM     14  O   UNL d   1     -48.308  11.073  23.698  0.00  0.00    -0.644 OA
ATOM     15  O   UNL d   1     -48.437  11.059  22.269  0.00  0.00    -0.644 OA
ENDBRANCH  12  13
ENDBRANCH   1  12
BRANCH  10  16
ATOM     16  O   UNL d   1     -50.019  15.788  23.016  0.00  0.00    -0.328 OA
ATOM     17  C   UNL d   1     -50.655  15.922  23.531  0.00  0.00     0.181 C 
ENDBRANCH  10  16
TORSDOF 3
ENDMDL
MODEL 6
REMARK VINA RESULT:      -6.0      8.599      9.401
REMARK  3 active torsions:
REMARK  status: ('A' for Active; 'I' for Inactive)
REMARK    1  A    between atoms: C_8  and  C_1 
REMARK    2  A    between atoms: C_9  and  C_8 
REMARK    3  A    between atoms: O_16  and  C_13 
ROOT
ATOM      1  C   UNL d   1     -40.509  15.094  18.107  0.00  0.00     0.013 A 
ATOM      2  C   UNL d   1     -40.045  14.524  19.343  0.00  0.00     0.105 A 
ATOM      3  O   UNL d   1     -39.744  13.886  18.932  0.00  0.00    -0.273 OA
ATOM      4  C   UNL d   1     -40.434  15.140  18.930  0.00  0.00     0.023 A 
ATOM      5  C   UNL d   1     -39.821  13.844  18.111  0.00  0.00     0.300 A 
ATOM      6  C   UNL d   1     -40.203  14.447  17.701  0.00  0.00     0.069 A 
ATOM      7  C   UNL d   1     -39.971  14.570  20.152  0.00  0.00     0.049 A 
ATOM      8  C   UNL d   1     -40.737  15.782  19.339  0.00  0.00     0.004 A 
ATOM      9  O   UNL d   1     -39.508  13.184  17.698  0.00  0.00    -0.259 OA
ATOM     10  C   UNL d   1     -40.279  15.221  20.570  0.00  0.00     0.096 A 
ATOM     11  C   UNL d   1     -40.659  15.823  20.164  0.00  0.00     0.024 A 
ENDROOT
BRANCH   1  12
ATOM     12  C   UNL d   1     -40.892  15.702  17.705  0.00  0.00     0.070 C 
BRANCH  12  13
ATOM     13  C   UNL d   1     -40.995  15.642  16.886  0.00  0.00     0.211 C 
ATOM     14  O   UNL d   1     -41.690  15.297  16.580  0.00  0.00    -0.644 OA
ATOM     15  O   UNL d   1     -40.416  15.922  16.369  0.00  0.00    -0.644 OA
ENDBRANCH  12  13
ENDBRANCH   1  12
BRANCH  10  16
ATOM     16  O   UNL d   1     -40.200  15.260  21.389  0.00  0.00    -0.328 OA
ATOM     17  C   UNL d   1     -39.825  15.910  21.740  0.00  0.00     0.181 C 
ENDBRANCH  10  16
TORSDOF 3
ENDMDL
MODEL 7
REMARK VINA RESULT:      -5.6      8.573      9.592
REMARK  3 active torsions:
REMARK  status: ('A' for Active; 'I' for Inactive)
REMARK    1  A    between atoms: C_8  and  C_1 
REMARK    2  A    between atoms: C_9  and  C_8 
REMARK    3  A    between atoms: O_16  and  C_13 
ROOT
ATOM      1  C   UNL d   1     -39.731  14.226  18.313  0.00  0.00     0.013 A 
ATOM      2  C   UNL d   1     -40.566  15.170  19.006  0.00  0.00     0.105 A 
ATOM      3  O   UNL d   1     -40.972  15.314  18.312  0.00  0.00    -0.273 OA
ATOM      4  C   UNL d   1     -39.935  14.620  19.012  0.00  0.00     0.023 A 
ATOM      5  C   UNL d   1     -40.766  14.919  17.617  0.00  0.00     0.300 A 
ATOM      6  C   UNL d   1     -40.146  14.376  17.619  0.00  0.00     0.069 A 
ATOM      7  C   UNL d   1     -40.766  15.557  19.693  0.00  0.00     0.049 A 
ATOM      8  C   UNL d   1     -39.525  14.473  19.706  0.00  0.00     0.004 A 
ATOM      9  O   UNL d   1     -41.190  15.074  16.910  0.00  0.00    -0.259 OA
ATOM     10  C   UNL d   1     -40.350  15.409  20.399  0.00  0.00     0.096 A 
ATOM     11  C   UNL d   1     -39.733  14.870  20.404  0.00  0.00     0.024 A 
ENDROOT
BRANCH   1  12
ATOM     12  C   UNL d   1     -39.110  13.685  18.325  0.00  0.00     0.070 C 
BRANCH  12  13
ATOM     13  C   UNL d   1     -38.871  13.330  17.616  0.00  0.00     0.211 C 
ATOM     14  O   UNL d   1     -38.317  13.716  17.126  0.00  0.00    -0.644 OA
ATOM     15  O   UNL d   1     -39.176  12.598  17.390  0.00  0.00    -0.644 OA
ENDBRANCH  12  13
ENDBRANCH   1  12
BRANCH  10  16
ATOM     16  O   UNL d   1     -40.559  15.806  21.091  0.00  0.00    -0.328 OA
ATOM     17  C   UNL d   1     -39.997  15.920  21.689  0.00  0.00     0.181 C 
ENDBRANCH  10  16
TORSDOF 3
ENDMDL
