MODEL 1
REMARK VINA RESULT:     159.2      0.000      0.000
REMARK  5 active torsions:
REMARK  status: ('A' for Active; 'I' for Inactive)
REMARK    1  A    between atoms: C_23  and  N_10 
REMARK    2  A    between atoms: C_14  and  N_13 
REMARK    3  A    between atoms: N_15  and  C_28 
REMARK    4  A    between atoms: C_27  and  C_23 
REMARK    5  A    between atoms: C_28  and  C_27 
ROOT
ATOM      1  C   UNL d   1     -56.559-100.572 -44.813  0.00  0.00     0.173 A 
ATOM      2  C   UNL d   1     -56.770-100.397 -44.055  0.00  0.00     0.191 A 
ATOM      3  C   UNL d   1     -55.909-101.420 -43.558  0.00  0.00     0.722 A 
ATOM      4  N   UNL d   1     -55.685-101.609 -44.334  0.00  0.00    -0.131 N 
ATOM      5  N   UNL d   1     -56.450-100.815 -43.419  0.00  0.00    -0.042 NA
ATOM      6  N   UNL d   1     -57.308 -99.796 -43.901  0.00  0.00    -0.240 N 
ATOM      7  N   UNL d   1     -57.394 -99.575 -45.345  0.00  0.00    -0.223 N 
ATOM      8  C   UNL d   1     -57.623 -99.381 -44.547  0.00  0.00     0.343 A 
ATOM      9  C   UNL d   1     -56.855-100.178 -45.474  0.00  0.00     0.288 A 
ATOM     10  N   UNL d   1     -55.589-101.838 -42.922  0.00  0.00    -0.139 N 
ATOM     11  C   UNL d   1     -54.817-102.641 -43.833  0.00  0.00     0.116 A 
ATOM     12  C   UNL d   1     -55.040-102.453 -43.057  0.00  0.00     0.100 A 
ATOM     13  O   UNL d   1     -58.185 -98.757 -44.369  0.00  0.00    -0.245 OA
ATOM     14  O   UNL d   1     -56.632-100.367 -46.248  0.00  0.00    -0.265 OA
ATOM     15  C   UNL d   1     -57.531 -99.608 -43.126  0.00  0.00     0.105 C 
ATOM     16  C   UNL d   1     -57.713 -99.157 -45.981  0.00  0.00     0.107 C 
ATOM     17  C   UNL d   1     -54.734-102.857 -42.404  0.00  0.00     0.021 C 
ENDROOT
BRANCH  10  18
ATOM     18  C   UNL d   1     -55.808-101.655 -42.145  0.00  0.00     0.100 C 
BRANCH  18  19
ATOM     19  C   UNL d   1     -55.237-101.610 -41.543  0.00  0.00     0.039 C 
BRANCH  19  20
ATOM     20  C   UNL d   1     -55.154-102.223 -41.009  0.00  0.00     0.082 C 
BRANCH  20  21
ATOM     21  N   UNL d   1     -55.395-102.127 -40.226  0.00  0.00    -0.300 N 
ATOM     22  C   UNL d   1     -56.016-102.585 -39.931  0.00  0.00     0.100 A 
ATOM     23  C   UNL d   1     -56.254-102.485 -39.143  0.00  0.00     0.100 A 
ATOM     24  N   UNL d   1     -55.879-101.937 -38.660  0.00  0.00    -0.301 N 
ATOM     25  C   UNL d   1     -55.259-101.480 -38.960  0.00  0.00     0.100 A 
ATOM     26  C   UNL d   1     -55.018-101.574 -39.738  0.00  0.00     0.100 A 
BRANCH  24  27
ATOM     27  C   UNL d   1     -56.122-101.841 -37.877  0.00  0.00     0.065 A 
ATOM     28  C   UNL d   1     -55.720-102.221 -37.275  0.00  0.00     0.029 A 
ATOM     29  C   UNL d   1     -55.957-102.128 -36.501  0.00  0.00     0.059 A 
ATOM     30 CL   UNL d   1     -55.547-102.515 -35.885  0.00  0.00    -0.082 Cl
ATOM     31  C   UNL d   1     -56.609-101.648 -36.323  0.00  0.00     0.011 A 
ATOM     32  C   UNL d   1     -57.018-101.263 -36.928  0.00  0.00     0.002 A 
ATOM     33  C   UNL d   1     -56.775-101.359 -37.710  0.00  0.00     0.018 A 
ENDBRANCH  24  27
ENDBRANCH  20  21
ENDBRANCH  19  20
ENDBRANCH  18  19
ENDBRANCH  10  18
TORSDOF 5
ENDMDL
