MODEL 1
REMARK VINA RESULT:      71.8      0.000      0.000
REMARK  3 active torsions:
REMARK  status: ('A' for Active; 'I' for Inactive)
REMARK    1  A    between atoms: C_7  and  C_3 
REMARK       I    between atoms: N_10  and  C_7 
REMARK    2  A    between atoms: C_18  and  C_9 
REMARK    3  A    between atoms: C_12  and  N_10 
ROOT
ATOM      1  C   UNL d   1      58.419  49.486  54.719  0.00  0.00     0.059 A 
ATOM      2  C   UNL d   1      59.019  49.558  55.283  0.00  0.00     0.013 A 
ATOM      3  C   UNL d   1      59.393  49.511  53.680  0.00  0.00     0.088 A 
ATOM      4  S   UNL d   1      58.606  49.463  53.920  0.00  0.00    -0.075 SA
ATOM      5  S   UNL d   1      57.632  49.439  54.959  0.00  0.00    -0.080 SA
ATOM      6  C   UNL d   1      59.993  49.582  54.244  0.00  0.00     0.012 A 
ATOM      7  C   UNL d   1      58.049  49.534  56.318  0.00  0.00     0.007 A 
ATOM      8  C   UNL d   1      57.450  49.462  55.755  0.00  0.00     0.030 A 
ENDROOT
BRANCH   3   9
ATOM      9  C   UNL d   1      59.579  49.487  52.881  0.00  0.00     0.285 C 
ATOM     10  N   UNL d   1      60.332  49.243  52.638  0.00  0.00    -0.208 NA
ATOM     11  O   UNL d   1      59.017  49.706  52.318  0.00  0.00    -0.265 OA
BRANCH  10  12
ATOM     12  C   UNL d   1      60.521  49.219  51.835  0.00  0.00     0.085 A 
ATOM     13  C   UNL d   1      59.968  48.953  51.296  0.00  0.00     0.019 A 
ATOM     14  C   UNL d   1      60.159  48.929  50.499  0.00  0.00     0.002 A 
ATOM     15  C   UNL d   1      60.913  49.176  50.242  0.00  0.00     0.000 A 
ATOM     16  C   UNL d   1      61.462  49.442  50.795  0.00  0.00     0.002 A 
ATOM     17  C   UNL d   1      61.107  49.153  49.438  0.00  0.00     0.000 C 
ATOM     18  C   UNL d   1      61.269  49.464  51.589  0.00  0.00     0.019 A 
ENDBRANCH  10  12
ENDBRANCH   3   9
BRANCH   8  19
ATOM     19  C   UNL d   1      56.663  49.415  56.002  0.00  0.00     0.006 C 
ATOM     20  C   UNL d   1      56.280  48.690  56.029  0.00  0.00     0.001 C 
ENDBRANCH   8  19
TORSDOF 3
ENDMDL
MODEL 2
REMARK VINA RESULT:      73.9      2.880      3.704
REMARK  3 active torsions:
REMARK  status: ('A' for Active; 'I' for Inactive)
REMARK    1  A    between atoms: C_7  and  C_3 
REMARK       I    between atoms: N_10  and  C_7 
REMARK    2  A    between atoms: C_18  and  C_9 
REMARK    3  A    between atoms: C_12  and  N_10 
ROOT
ATOM      1  C   UNL d   1      58.469  48.997  51.019  0.00  0.00     0.059 A 
ATOM      2  C   UNL d   1      58.572  49.451  51.702  0.00  0.00     0.013 A 
ATOM      3  C   UNL d   1      59.869  48.741  50.978  0.00  0.00     0.088 A 
ATOM      4  S   UNL d   1      59.116  48.643  50.658  0.00  0.00    -0.075 SA
ATOM      5  S   UNL d   1      57.716  48.899  50.699  0.00  0.00    -0.080 SA
ATOM      6  C   UNL d   1      59.973  49.194  51.661  0.00  0.00     0.012 A 
ATOM      7  C   UNL d   1      57.177  49.706  51.743  0.00  0.00     0.007 A 
ATOM      8  C   UNL d   1      57.074  49.252  51.060  0.00  0.00     0.030 A 
ENDROOT
BRANCH   3   9
ATOM      9  C   UNL d   1      60.516  48.387  50.617  0.00  0.00     0.285 C 
ATOM     10  N   UNL d   1      60.569  47.562  50.579  0.00  0.00    -0.208 NA
ATOM     11  O   UNL d   1      61.114  48.852  50.291  0.00  0.00    -0.265 OA
BRANCH  10  12
ATOM     12  C   UNL d   1      61.218  47.204  50.217  0.00  0.00     0.085 A 
ATOM     13  C   UNL d   1      61.886  47.645  50.054  0.00  0.00     0.019 A 
ATOM     14  C   UNL d   1      62.530  47.286  49.694  0.00  0.00     0.002 A 
ATOM     15  C   UNL d   1      62.502  46.477  49.496  0.00  0.00     0.000 A 
ATOM     16  C   UNL d   1      61.822  46.043  49.665  0.00  0.00     0.002 A 
ATOM     17  C   UNL d   1      63.150  46.114  49.132  0.00  0.00     0.000 C 
ATOM     18  C   UNL d   1      61.182  46.402  50.024  0.00  0.00     0.019 A 
ENDBRANCH  10  12
ENDBRANCH   3   9
BRANCH   8  19
ATOM     19  C   UNL d   1      56.316  49.158  50.745  0.00  0.00     0.006 C 
ATOM     20  C   UNL d   1      56.045  49.665  50.160  0.00  0.00     0.001 C 
ENDBRANCH   8  19
TORSDOF 3
ENDMDL
