MODEL 1
REMARK VINA RESULT:      -2.5      0.000      0.000
REMARK  4 active torsions:
REMARK  status: ('A' for Active; 'I' for Inactive)
REMARK    1  A    between atoms: C_6  and  C_1 
REMARK    2  A    between atoms: S_7  and  C_3 
REMARK    3  A    between atoms: C_17  and  S_7 
REMARK    4  A    between atoms: C_18  and  C_17 
ROOT
ATOM      1  C   UNL d   1      32.821  21.373 -21.519  0.00  0.00     0.087 A 
ATOM      2  N   UNL d   1      32.685  20.570 -21.370  0.00  0.00    -0.245 NA
ATOM      3  C   UNL d   1      33.051  21.454 -22.310  0.00  0.00     0.049 A 
ATOM      4  C   UNL d   1      33.060  20.707 -22.657  0.00  0.00     0.025 A 
ATOM      5  C   UNL d   1      32.832  20.159 -22.073  0.00  0.00     0.082 A 
ATOM      6  C   UNL d   1      33.240  20.450 -23.412  0.00  0.00     0.002 A 
ATOM      7  C   UNL d   1      32.788  19.357 -22.257  0.00  0.00     0.019 A 
ATOM      8  C   UNL d   1      33.196  19.647 -23.596  0.00  0.00     0.000 A 
ATOM      9  C   UNL d   1      32.971  19.104 -23.020  0.00  0.00     0.002 A 
ENDROOT
BRANCH   1  10
ATOM     10  C   UNL d   1      32.731  21.947 -20.951  0.00  0.00     0.018 A 
ATOM     11  C   UNL d   1      33.229  21.948 -20.283  0.00  0.00     0.004 A 
ATOM     12  C   UNL d   1      33.137  22.530 -19.707  0.00  0.00     0.030 A 
ATOM     13  C   UNL d   1      32.554  23.111 -19.787  0.00  0.00     0.140 A 
ATOM     14  C   UNL d   1      32.055  23.113 -20.451  0.00  0.00     0.030 A 
ATOM     15  F   UNL d   1      32.455  23.702 -19.209  0.00  0.00    -0.204 F 
ATOM     16  C   UNL d   1      32.148  22.530 -21.027  0.00  0.00     0.004 A 
ENDBRANCH   1  10
BRANCH   3  17
ATOM     17  S   UNL d   1      33.240  22.162 -22.688  0.00  0.00    -0.083 SA
BRANCH  17  18
ATOM     18  C   UNL d   1      32.907  22.322 -23.440  0.00  0.00     0.058 C 
BRANCH  18  19
ATOM     19  C   UNL d   1      33.209  22.961 -23.882  0.00  0.00     0.129 C 
ATOM     20  N   UNL d   1      32.710  23.352 -24.395  0.00  0.00    -0.146 N 
ENDBRANCH  18  19
ENDBRANCH  17  18
ENDBRANCH   3  17
TORSDOF 4
ENDMDL
MODEL 2
REMARK VINA RESULT:      -2.4      5.075      6.469
REMARK  4 active torsions:
REMARK  status: ('A' for Active; 'I' for Inactive)
REMARK    1  A    between atoms: C_6  and  C_1 
REMARK    2  A    between atoms: S_7  and  C_3 
REMARK    3  A    between atoms: C_17  and  S_7 
REMARK    4  A    between atoms: C_18  and  C_17 
ROOT
ATOM      1  C   UNL d   1      30.795  17.222 -24.552  0.00  0.00     0.087 A 
ATOM      2  N   UNL d   1      30.810  18.000 -24.836  0.00  0.00    -0.245 NA
ATOM      3  C   UNL d   1      31.574  16.984 -24.406  0.00  0.00     0.049 A 
ATOM      4  C   UNL d   1      32.077  17.608 -24.597  0.00  0.00     0.025 A 
ATOM      5  C   UNL d   1      31.602  18.237 -24.863  0.00  0.00     0.082 A 
ATOM      6  C   UNL d   1      32.890  17.692 -24.566  0.00  0.00     0.002 A 
ATOM      7  C   UNL d   1      31.953  18.946 -25.097  0.00  0.00     0.019 A 
ATOM      8  C   UNL d   1      33.241  18.402 -24.800  0.00  0.00     0.000 A 
ATOM      9  C   UNL d   1      32.773  19.025 -25.064  0.00  0.00     0.002 A 
ENDROOT
BRANCH   1  10
ATOM     10  C   UNL d   1      30.104  16.805 -24.451  0.00  0.00     0.018 A 
ATOM     11  C   UNL d   1      29.877  16.239 -25.020  0.00  0.00     0.004 A 
ATOM     12  C   UNL d   1      29.177  15.817 -24.917  0.00  0.00     0.030 A 
ATOM     13  C   UNL d   1      28.700  15.951 -24.255  0.00  0.00     0.140 A 
ATOM     14  C   UNL d   1      28.923  16.514 -23.687  0.00  0.00     0.030 A 
ATOM     15  F   UNL d   1      27.992  15.529 -24.145  0.00  0.00    -0.204 F 
ATOM     16  C   UNL d   1      29.623  16.936 -23.790  0.00  0.00     0.004 A 
ENDBRANCH   1  10
BRANCH   3  17
ATOM     17  S   UNL d   1      31.809  16.248 -24.118  0.00  0.00    -0.083 SA
BRANCH  17  18
ATOM     18  C   UNL d   1      32.466  16.205 -23.601  0.00  0.00     0.058 C 
BRANCH  18  19
ATOM     19  C   UNL d   1      32.663  15.468 -23.266  0.00  0.00     0.129 C 
ATOM     20  N   UNL d   1      33.150  15.453 -22.612  0.00  0.00    -0.146 N 
ENDBRANCH  18  19
ENDBRANCH  17  18
ENDBRANCH   3  17
TORSDOF 4
ENDMDL
MODEL 3
REMARK VINA RESULT:      -1.9      1.860      3.774
REMARK  4 active torsions:
REMARK  status: ('A' for Active; 'I' for Inactive)
REMARK    1  A    between atoms: C_6  and  C_1 
REMARK    2  A    between atoms: S_7  and  C_3 
REMARK    3  A    between atoms: C_17  and  S_7 
REMARK    4  A    between atoms: C_18  and  C_17 
ROOT
ATOM      1  C   UNL d   1      32.749  23.102 -21.297  0.00  0.00     0.087 A 
ATOM      2  N   UNL d   1      32.577  23.690 -20.741  0.00  0.00    -0.245 NA
ATOM      3  C   UNL d   1      33.011  22.430 -20.890  0.00  0.00     0.049 A 
ATOM      4  C   UNL d   1      33.004  22.594 -20.083  0.00  0.00     0.025 A 
ATOM      5  C   UNL d   1      32.734  23.377 -19.992  0.00  0.00     0.082 A 
ATOM      6  C   UNL d   1      33.202  22.150 -19.426  0.00  0.00     0.002 A 
ATOM      7  C   UNL d   1      32.667  23.702 -19.237  0.00  0.00     0.019 A 
ATOM      8  C   UNL d   1      33.135  22.476 -18.671  0.00  0.00     0.000 A 
ATOM      9  C   UNL d   1      32.868  23.249 -18.579  0.00  0.00     0.002 A 
ENDROOT
BRANCH   1  10
ATOM     10  C   UNL d   1      32.659  23.214 -22.097  0.00  0.00     0.018 A 
ATOM     11  C   UNL d   1      31.974  23.589 -22.387  0.00  0.00     0.004 A 
ATOM     12  C   UNL d   1      31.884  23.702 -23.198  0.00  0.00     0.030 A 
ATOM     13  C   UNL d   1      32.468  23.446 -23.725  0.00  0.00     0.140 A 
ATOM     14  C   UNL d   1      33.151  23.071 -23.439  0.00  0.00     0.030 A 
ATOM     15  F   UNL d   1      32.383  23.557 -24.545  0.00  0.00    -0.204 F 
ATOM     16  C   UNL d   1      33.241  22.958 -22.628  0.00  0.00     0.004 A 
ENDBRANCH   1  10
BRANCH   3  17
ATOM     17  S   UNL d   1      33.241  21.716 -21.233  0.00  0.00    -0.083 SA
BRANCH  17  18
ATOM     18  C   UNL d   1      32.763  21.038 -21.119  0.00  0.00     0.058 C 
BRANCH  18  19
ATOM     19  C   UNL d   1      33.071  20.293 -21.326  0.00  0.00     0.129 C 
ATOM     20  N   UNL d   1      32.596  19.773 -21.738  0.00  0.00    -0.146 N 
ENDBRANCH  18  19
ENDBRANCH  17  18
ENDBRANCH   3  17
TORSDOF 4
ENDMDL
MODEL 4
REMARK VINA RESULT:      -1.6      1.734      3.352
REMARK  4 active torsions:
REMARK  status: ('A' for Active; 'I' for Inactive)
REMARK    1  A    between atoms: C_6  and  C_1 
REMARK    2  A    between atoms: S_7  and  C_3 
REMARK    3  A    between atoms: C_17  and  S_7 
REMARK    4  A    between atoms: C_18  and  C_17 
ROOT
ATOM      1  C   UNL d   1      32.640  20.845 -21.827  0.00  0.00     0.087 A 
ATOM      2  N   UNL d   1      32.340  20.943 -21.061  0.00  0.00    -0.245 NA
ATOM      3  C   UNL d   1      32.892  21.583 -22.103  0.00  0.00     0.049 A 
ATOM      4  C   UNL d   1      32.753  22.143 -21.515  0.00  0.00     0.025 A 
ATOM      5  C   UNL d   1      32.410  21.744 -20.869  0.00  0.00     0.082 A 
ATOM      6  C   UNL d   1      32.887  22.948 -21.476  0.00  0.00     0.002 A 
ATOM      7  C   UNL d   1      32.206  22.164 -20.189  0.00  0.00     0.019 A 
ATOM      8  C   UNL d   1      32.682  23.368 -20.794  0.00  0.00     0.000 A 
ATOM      9  C   UNL d   1      32.344  22.976 -20.155  0.00  0.00     0.002 A 
ENDROOT
BRANCH   1  10
ATOM     10  C   UNL d   1      32.661  20.123 -22.202  0.00  0.00     0.018 A 
ATOM     11  C   UNL d   1      33.220  19.552 -21.966  0.00  0.00     0.004 A 
ATOM     12  C   UNL d   1      33.240  18.821 -22.346  0.00  0.00     0.030 A 
ATOM     13  C   UNL d   1      32.710  18.652 -22.958  0.00  0.00     0.140 A 
ATOM     14  C   UNL d   1      32.152  19.218 -23.195  0.00  0.00     0.030 A 
ATOM     15  F   UNL d   1      32.725  17.916 -23.346  0.00  0.00    -0.204 F 
ATOM     16  C   UNL d   1      32.132  19.949 -22.815  0.00  0.00     0.004 A 
ENDBRANCH   1  10
BRANCH   3  17
ATOM     17  S   UNL d   1      33.227  21.735 -22.841  0.00  0.00    -0.083 SA
BRANCH  17  18
ATOM     18  C   UNL d   1      32.963  22.399 -23.278  0.00  0.00     0.058 C 
BRANCH  18  19
ATOM     19  C   UNL d   1      33.240  22.500 -24.057  0.00  0.00     0.129 C 
ATOM     20  N   UNL d   1      32.810  22.968 -24.568  0.00  0.00    -0.146 N 
ENDBRANCH  18  19
ENDBRANCH  17  18
ENDBRANCH   3  17
TORSDOF 4
ENDMDL
MODEL 5
REMARK VINA RESULT:      -0.5      2.261      4.092
REMARK  4 active torsions:
REMARK  status: ('A' for Active; 'I' for Inactive)
REMARK    1  A    between atoms: C_6  and  C_1 
REMARK    2  A    between atoms: S_7  and  C_3 
REMARK    3  A    between atoms: C_17  and  S_7 
REMARK    4  A    between atoms: C_18  and  C_17 
ROOT
ATOM      1  C   UNL d   1      32.877  19.993 -23.632  0.00  0.00     0.087 A 
ATOM      2  N   UNL d   1      32.918  20.297 -24.401  0.00  0.00    -0.245 NA
ATOM      3  C   UNL d   1      32.962  20.621 -23.100  0.00  0.00     0.049 A 
ATOM      4  C   UNL d   1      33.056  21.317 -23.531  0.00  0.00     0.025 A 
ATOM      5  C   UNL d   1      33.028  21.115 -24.338  0.00  0.00     0.082 A 
ATOM      6  C   UNL d   1      33.161  22.096 -23.307  0.00  0.00     0.002 A 
ATOM      7  C   UNL d   1      33.107  21.702 -24.911  0.00  0.00     0.019 A 
ATOM      8  C   UNL d   1      33.240  22.684 -23.881  0.00  0.00     0.000 A 
ATOM      9  C   UNL d   1      33.213  22.486 -24.680  0.00  0.00     0.002 A 
ENDROOT
BRANCH   1  10
ATOM     10  C   UNL d   1      32.771  19.202 -23.478  0.00  0.00     0.018 A 
ATOM     11  C   UNL d   1      32.182  18.777 -23.888  0.00  0.00     0.004 A 
ATOM     12  C   UNL d   1      32.075  17.975 -23.731  0.00  0.00     0.030 A 
ATOM     13  C   UNL d   1      32.547  17.591 -23.171  0.00  0.00     0.140 A 
ATOM     14  C   UNL d   1      33.134  18.010 -22.761  0.00  0.00     0.030 A 
ATOM     15  F   UNL d   1      32.444  16.781 -23.008  0.00  0.00    -0.204 F 
ATOM     16  C   UNL d   1      33.241  18.812 -22.918  0.00  0.00     0.004 A 
ENDBRANCH   1  10
BRANCH   3  17
ATOM     17  S   UNL d   1      32.955  20.562 -22.278  0.00  0.00    -0.083 SA
BRANCH  17  18
ATOM     18  C   UNL d   1      32.405  21.022 -21.843  0.00  0.00     0.058 C 
BRANCH  18  19
ATOM     19  C   UNL d   1      32.404  20.961 -21.012  0.00  0.00     0.129 C 
ATOM     20  N   UNL d   1      31.731  21.179 -20.605  0.00  0.00    -0.146 N 
ENDBRANCH  18  19
ENDBRANCH  17  18
ENDBRANCH   3  17
TORSDOF 4
ENDMDL
