MODEL 1
REMARK VINA RESULT:       4.5      0.000      0.000
REMARK  6 active torsions:
REMARK  status: ('A' for Active; 'I' for Inactive)
REMARK    1  A    between atoms: C_5  and  N_1 
REMARK    2  A    between atoms: C_2  and  C_4 
REMARK       I    between atoms: N_3  and  C_2 
REMARK    3  A    between atoms: C_7  and  N_3 
REMARK       I    between atoms: C_4  and  N_8 
REMARK    4  A    between atoms: C_10  and  C_5 
REMARK    5  A    between atoms: C_14  and  C_5 
REMARK    6  A    between atoms: N_8  and  C_10 
ROOT
ATOM      1  C   UNL d   1     -41.390-121.704 -52.757  0.00  0.00     0.085 C 
ENDROOT
BRANCH   1   2
ATOM      2  N   UNL d   1     -41.750-121.729 -53.516  0.00  0.00    -0.302 N 
ATOM      3  C   UNL d   1     -41.316-121.965 -54.177  0.00  0.00     0.080 A 
ATOM      4  C   UNL d   1     -41.674-121.987 -54.918  0.00  0.00     0.018 A 
ATOM      5  C   UNL d   1     -41.238-122.224 -55.583  0.00  0.00     0.002 A 
ATOM      6  C   UNL d   1     -42.465-121.775 -54.999  0.00  0.00     0.003 A 
ATOM      7  C   UNL d   1     -41.590-122.249 -56.330  0.00  0.00     0.000 A 
ATOM      8  C   UNL d   1     -42.389-122.034 -56.407  0.00  0.00     0.000 A 
ATOM      9  C   UNL d   1     -42.826-121.797 -55.742  0.00  0.00     0.000 A 
ATOM     10  C   UNL d   1     -42.899-121.539 -54.338  0.00  0.00     0.019 A 
ATOM     11  C   UNL d   1     -42.542-121.516 -53.596  0.00  0.00     0.080 A 
ENDBRANCH   1   2
BRANCH   1  12
ATOM     12  C   UNL d   1     -41.126-122.400 -52.401  0.00  0.00     0.120 C 
BRANCH  12  13
ATOM     13  N   UNL d   1     -41.250-122.530 -51.597  0.00  0.00    -0.201 NA
ATOM     14  C   UNL d   1     -41.612-123.234 -51.339  0.00  0.00     0.337 C 
ATOM     15  O   UNL d   1     -41.847-123.804 -51.891  0.00  0.00    -0.260 OA
BRANCH  14  16
ATOM     16  C   UNL d   1     -41.736-123.363 -50.536  0.00  0.00     0.337 C 
ATOM     17  N   UNL d   1     -42.475-123.197 -50.197  0.00  0.00    -0.202 NA
ATOM     18  O   UNL d   1     -41.123-123.660 -50.061  0.00  0.00    -0.260 OA
BRANCH  17  19
ATOM     19  C   UNL d   1     -42.596-123.329 -49.386  0.00  0.00     0.112 A 
ATOM     20  C   UNL d   1     -43.306-123.098 -49.035  0.00  0.00     0.160 A 
ATOM     21  C   UNL d   1     -43.433-123.224 -48.239  0.00  0.00     0.061 A 
ATOM     22  F   UNL d   1     -43.907-122.731 -49.494  0.00  0.00    -0.203 F 
ATOM     23  C   UNL d   1     -42.844-123.586 -47.779  0.00  0.00     0.142 A 
ATOM     24  C   UNL d   1     -42.133-123.816 -48.130  0.00  0.00     0.031 A 
ATOM     25  F   UNL d   1     -42.977-123.712 -46.966  0.00  0.00    -0.204 F 
ATOM     26  C   UNL d   1     -42.013-123.685 -48.941  0.00  0.00     0.024 A 
ENDBRANCH  17  19
ENDBRANCH  14  16
ENDBRANCH  12  13
ENDBRANCH   1  12
BRANCH   1  27
ATOM     27  C   UNL d   1     -41.302-120.982 -52.373  0.00  0.00     0.037 A 
ATOM     28  C   UNL d   1     -41.290-120.954 -51.550  0.00  0.00     0.100 A 
ATOM     29  N   UNL d   1     -41.202-120.231 -51.166  0.00  0.00    -0.242 NA
ATOM     30  C   UNL d   1     -41.125-119.533 -51.607  0.00  0.00     0.099 A 
ATOM     31  C   UNL d   1     -41.136-119.561 -52.429  0.00  0.00     0.021 A 
ATOM     32  C   UNL d   1     -41.225-120.284 -52.814  0.00  0.00     0.005 A 
ENDBRANCH   1  27
TORSDOF 6
ENDMDL
