MODEL 1
REMARK VINA RESULT:      -3.0      0.000      0.000
REMARK  3 active torsions:
REMARK  status: ('A' for Active; 'I' for Inactive)
REMARK    1  A    between atoms: C_10  and  C_3 
REMARK    2  A    between atoms: C_13  and  C_7 
REMARK    3  A    between atoms: C_12  and  C_13 
ROOT
ATOM      1  C   UNL d   1      29.879  16.413 -23.778  0.00  0.00     0.171 A 
ATOM      2  N   UNL d   1      30.558  16.113 -23.420  0.00  0.00    -0.212 N 
ATOM      3  C   UNL d   1      29.227  16.004 -23.467  0.00  0.00     0.121 A 
ATOM      4  N   UNL d   1      29.935  17.013 -24.335  0.00  0.00    -0.227 NA
ATOM      5  N   UNL d   1      30.330  15.517 -22.886  0.00  0.00    -0.162 NA
ATOM      6  C   UNL d   1      31.296  16.412 -23.618  0.00  0.00     0.086 A 
ATOM      7  C   UNL d   1      31.355  17.015 -24.177  0.00  0.00     0.035 A 
ATOM      8  C   UNL d   1      30.676  17.315 -24.535  0.00  0.00     0.085 A 
ATOM      9  C   UNL d   1      29.502  15.453 -22.919  0.00  0.00     0.130 A 
ATOM     10  C   UNL d   1      31.977  16.111 -23.259  0.00  0.00     0.021 C 
ATOM     11  C   UNL d   1      30.736  17.919 -25.096  0.00  0.00     0.021 C 
ENDROOT
BRANCH   3  12
ATOM     12  C   UNL d   1      28.438  16.129 -23.673  0.00  0.00     0.215 C 
ATOM     13  O   UNL d   1      27.993  16.709 -23.283  0.00  0.00    -0.644 OA
ATOM     14  O   UNL d   1      28.084  15.678 -24.271  0.00  0.00    -0.644 OA
ENDBRANCH   3  12
BRANCH   7  15
ATOM     15  C   UNL d   1      32.096  17.316 -24.377  0.00  0.00     0.003 C 
BRANCH  15  16
ATOM     16  C   UNL d   1      32.385  17.982 -23.986  0.00  0.00     0.000 C 
ATOM     17  C   UNL d   1      33.133  18.278 -24.177  0.00  0.00     0.000 C 
ENDBRANCH  15  16
ENDBRANCH   7  15
TORSDOF 3
ENDMDL
MODEL 2
REMARK VINA RESULT:      -2.7      0.734      1.622
REMARK  3 active torsions:
REMARK  status: ('A' for Active; 'I' for Inactive)
REMARK    1  A    between atoms: C_10  and  C_3 
REMARK    2  A    between atoms: C_13  and  C_7 
REMARK    3  A    between atoms: C_12  and  C_13 
ROOT
ATOM      1  C   UNL d   1      29.705  16.640 -24.092  0.00  0.00     0.171 A 
ATOM      2  N   UNL d   1      30.051  17.292 -24.459  0.00  0.00    -0.212 N 
ATOM      3  C   UNL d   1      28.890  16.662 -24.250  0.00  0.00     0.121 A 
ATOM      4  N   UNL d   1      30.166  16.112 -23.665  0.00  0.00    -0.227 NA
ATOM      5  N   UNL d   1      29.452  17.721 -24.846  0.00  0.00    -0.162 NA
ATOM      6  C   UNL d   1      30.860  17.418 -24.401  0.00  0.00     0.086 A 
ATOM      7  C   UNL d   1      31.325  16.890 -23.973  0.00  0.00     0.035 A 
ATOM      8  C   UNL d   1      30.979  16.238 -23.605  0.00  0.00     0.085 A 
ATOM      9  C   UNL d   1      28.733  17.327 -24.713  0.00  0.00     0.130 A 
ATOM     10  C   UNL d   1      31.206  18.072 -24.769  0.00  0.00     0.021 C 
ATOM     11  C   UNL d   1      31.447  15.708 -23.176  0.00  0.00     0.021 C 
ENDROOT
BRANCH   3  12
ATOM     12  C   UNL d   1      28.334  16.113 -23.986  0.00  0.00     0.215 C 
ATOM     13  O   UNL d   1      27.958  16.219 -23.255  0.00  0.00    -0.644 OA
ATOM     14  O   UNL d   1      28.146  15.453 -24.449  0.00  0.00    -0.644 OA
ENDBRANCH   3  12
BRANCH   7  15
ATOM     15  C   UNL d   1      32.137  17.015 -23.913  0.00  0.00     0.003 C 
BRANCH  15  16
ATOM     16  C   UNL d   1      32.438  17.454 -23.283  0.00  0.00     0.000 C 
ATOM     17  C   UNL d   1      33.241  17.647 -23.263  0.00  0.00     0.000 C 
ENDBRANCH  15  16
ENDBRANCH   7  15
TORSDOF 3
ENDMDL
MODEL 3
REMARK VINA RESULT:      -2.0      4.887      5.986
REMARK  3 active torsions:
REMARK  status: ('A' for Active; 'I' for Inactive)
REMARK    1  A    between atoms: C_10  and  C_3 
REMARK    2  A    between atoms: C_13  and  C_7 
REMARK    3  A    between atoms: C_12  and  C_13 
ROOT
ATOM      1  C   UNL d   1      32.755  21.740 -21.746  0.00  0.00     0.171 A 
ATOM      2  N   UNL d   1      32.755  21.103 -21.223  0.00  0.00    -0.212 N 
ATOM      3  C   UNL d   1      32.575  22.424 -21.312  0.00  0.00     0.121 A 
ATOM      4  N   UNL d   1      32.916  21.622 -22.542  0.00  0.00    -0.227 NA
ATOM      5  N   UNL d   1      32.576  21.389 -20.463  0.00  0.00    -0.162 NA
ATOM      6  C   UNL d   1      32.917  20.345 -21.494  0.00  0.00     0.086 A 
ATOM      7  C   UNL d   1      33.078  20.225 -22.293  0.00  0.00     0.035 A 
ATOM      8  C   UNL d   1      33.078  20.861 -22.816  0.00  0.00     0.085 A 
ATOM      9  C   UNL d   1      32.465  22.210 -20.523  0.00  0.00     0.130 A 
ATOM     10  C   UNL d   1      32.917  19.707 -20.970  0.00  0.00     0.021 C 
ATOM     11  C   UNL d   1      33.240  20.739 -23.618  0.00  0.00     0.021 C 
ENDROOT
BRANCH   3  12
ATOM     12  C   UNL d   1      32.517  23.187 -21.620  0.00  0.00     0.215 C 
ATOM     13  O   UNL d   1      33.196  23.656 -21.701  0.00  0.00    -0.644 OA
ATOM     14  O   UNL d   1      31.782  23.492 -21.850  0.00  0.00    -0.644 OA
ENDBRANCH   3  12
BRANCH   7  15
ATOM     15  C   UNL d   1      33.241  19.464 -22.567  0.00  0.00     0.003 C 
BRANCH  15  16
ATOM     16  C   UNL d   1      32.656  19.039 -22.963  0.00  0.00     0.000 C 
ATOM     17  C   UNL d   1      32.778  18.241 -23.141  0.00  0.00     0.000 C 
ENDBRANCH  15  16
ENDBRANCH   7  15
TORSDOF 3
ENDMDL
MODEL 4
REMARK VINA RESULT:      -1.7      2.125      3.242
REMARK  3 active torsions:
REMARK  status: ('A' for Active; 'I' for Inactive)
REMARK    1  A    between atoms: C_10  and  C_3 
REMARK    2  A    between atoms: C_13  and  C_7 
REMARK    3  A    between atoms: C_12  and  C_13 
ROOT
ATOM      1  C   UNL d   1      32.224  17.556 -23.926  0.00  0.00     0.171 A 
ATOM      2  N   UNL d   1      32.223  18.255 -24.363  0.00  0.00    -0.212 N 
ATOM      3  C   UNL d   1      31.849  16.972 -24.380  0.00  0.00     0.121 A 
ATOM      4  N   UNL d   1      32.562  17.537 -23.178  0.00  0.00    -0.227 NA
ATOM      5  N   UNL d   1      31.847  18.107 -25.091  0.00  0.00    -0.162 NA
ATOM      6  C   UNL d   1      32.559  18.937 -24.055  0.00  0.00     0.086 A 
ATOM      7  C   UNL d   1      32.899  18.920 -23.303  0.00  0.00     0.035 A 
ATOM      8  C   UNL d   1      32.900  18.221 -22.866  0.00  0.00     0.085 A 
ATOM      9  C   UNL d   1      31.616  17.309 -25.097  0.00  0.00     0.130 A 
ATOM     10  C   UNL d   1      32.558  19.637 -24.493  0.00  0.00     0.021 C 
ATOM     11  C   UNL d   1      33.241  18.205 -22.113  0.00  0.00     0.021 C 
ENDROOT
BRANCH   3  12
ATOM     12  C   UNL d   1      31.730  16.188 -24.152  0.00  0.00     0.215 C 
ATOM     13  O   UNL d   1      32.250  15.596 -24.410  0.00  0.00    -0.644 OA
ATOM     14  O   UNL d   1      31.092  15.985 -23.665  0.00  0.00    -0.644 OA
ENDBRANCH   3  12
BRANCH   7  15
ATOM     15  C   UNL d   1      33.237  19.604 -22.992  0.00  0.00     0.003 C 
BRANCH  15  16
ATOM     16  C   UNL d   1      32.868  19.993 -22.365  0.00  0.00     0.000 C 
ATOM     17  C   UNL d   1      33.236  20.644 -22.013  0.00  0.00     0.000 C 
ENDBRANCH  15  16
ENDBRANCH   7  15
TORSDOF 3
ENDMDL
MODEL 5
REMARK VINA RESULT:      -1.4      3.441      4.457
REMARK  3 active torsions:
REMARK  status: ('A' for Active; 'I' for Inactive)
REMARK    1  A    between atoms: C_10  and  C_3 
REMARK    2  A    between atoms: C_13  and  C_7 
REMARK    3  A    between atoms: C_12  and  C_13 
ROOT
ATOM      1  C   UNL d   1      32.857  19.267 -23.398  0.00  0.00     0.171 A 
ATOM      2  N   UNL d   1      32.982  19.131 -22.595  0.00  0.00    -0.212 N 
ATOM      3  C   UNL d   1      32.747  18.532 -23.766  0.00  0.00     0.121 A 
ATOM      4  N   UNL d   1      32.859  20.033 -23.693  0.00  0.00    -0.227 NA
ATOM      5  N   UNL d   1      32.950  18.311 -22.461  0.00  0.00    -0.162 NA
ATOM      6  C   UNL d   1      33.110  19.761 -22.083  0.00  0.00     0.086 A 
ATOM      7  C   UNL d   1      33.112  20.531 -22.378  0.00  0.00     0.035 A 
ATOM      8  C   UNL d   1      32.987  20.667 -23.181  0.00  0.00     0.085 A 
ATOM      9  C   UNL d   1      32.804  17.943 -23.191  0.00  0.00     0.130 A 
ATOM     10  C   UNL d   1      33.235  19.624 -21.278  0.00  0.00     0.021 C 
ATOM     11  C   UNL d   1      32.989  21.440 -23.475  0.00  0.00     0.021 C 
ENDROOT
BRANCH   3  12
ATOM     12  C   UNL d   1      32.605  18.412 -24.569  0.00  0.00     0.215 C 
ATOM     13  O   UNL d   1      31.827  18.394 -24.856  0.00  0.00    -0.644 OA
ATOM     14  O   UNL d   1      33.235  18.310 -25.096  0.00  0.00    -0.644 OA
ENDBRANCH   3  12
BRANCH   7  15
ATOM     15  C   UNL d   1      33.239  21.164 -21.866  0.00  0.00     0.003 C 
BRANCH  15  16
ATOM     16  C   UNL d   1      32.636  21.408 -21.359  0.00  0.00     0.000 C 
ATOM     17  C   UNL d   1      32.774  22.021 -20.822  0.00  0.00     0.000 C 
ENDBRANCH  15  16
ENDBRANCH   7  15
TORSDOF 3
ENDMDL
MODEL 6
REMARK VINA RESULT:      -1.2      4.136      5.426
REMARK  3 active torsions:
REMARK  status: ('A' for Active; 'I' for Inactive)
REMARK    1  A    between atoms: C_10  and  C_3 
REMARK    2  A    between atoms: C_13  and  C_7 
REMARK    3  A    between atoms: C_12  and  C_13 
ROOT
ATOM      1  C   UNL d   1      32.868  20.893 -22.355  0.00  0.00     0.171 A 
ATOM      2  N   UNL d   1      32.993  21.160 -23.124  0.00  0.00    -0.212 N 
ATOM      3  C   UNL d   1      32.762  21.558 -21.870  0.00  0.00     0.121 A 
ATOM      4  N   UNL d   1      32.866  20.089 -22.190  0.00  0.00    -0.227 NA
ATOM      5  N   UNL d   1      32.964  21.991 -23.121  0.00  0.00    -0.162 NA
ATOM      6  C   UNL d   1      33.116  20.623 -23.733  0.00  0.00     0.086 A 
ATOM      7  C   UNL d   1      33.115  19.815 -23.570  0.00  0.00     0.035 A 
ATOM      8  C   UNL d   1      32.990  19.548 -22.800  0.00  0.00     0.085 A 
ATOM      9  C   UNL d   1      32.821  22.234 -22.339  0.00  0.00     0.130 A 
ATOM     10  C   UNL d   1      33.241  20.890 -24.505  0.00  0.00     0.021 C 
ATOM     11  C   UNL d   1      32.989  18.737 -22.638  0.00  0.00     0.021 C 
ENDROOT
BRANCH   3  12
ATOM     12  C   UNL d   1      32.621  21.544 -21.057  0.00  0.00     0.215 C 
ATOM     13  O   UNL d   1      31.857  21.677 -20.765  0.00  0.00    -0.644 OA
ATOM     14  O   UNL d   1      33.240  21.397 -20.527  0.00  0.00    -0.644 OA
ENDBRANCH   3  12
BRANCH   7  15
ATOM     15  C   UNL d   1      33.239  19.274 -24.180  0.00  0.00     0.003 C 
BRANCH  15  16
ATOM     16  C   UNL d   1      32.619  18.790 -24.429  0.00  0.00     0.000 C 
ATOM     17  C   UNL d   1      32.775  18.148 -24.925  0.00  0.00     0.000 C 
ENDBRANCH  15  16
ENDBRANCH   7  15
TORSDOF 3
ENDMDL
MODEL 7
REMARK VINA RESULT:      -1.1      4.661      5.902
REMARK  3 active torsions:
REMARK  status: ('A' for Active; 'I' for Inactive)
REMARK    1  A    between atoms: C_10  and  C_3 
REMARK    2  A    between atoms: C_13  and  C_7 
REMARK    3  A    between atoms: C_12  and  C_13 
ROOT
ATOM      1  C   UNL d   1      33.016  20.457 -22.290  0.00  0.00     0.171 A 
ATOM      2  N   UNL d   1      33.128  21.186 -22.658  0.00  0.00    -0.212 N 
ATOM      3  C   UNL d   1      33.057  19.868 -22.873  0.00  0.00     0.121 A 
ATOM      4  N   UNL d   1      32.891  20.418 -21.479  0.00  0.00    -0.227 NA
ATOM      5  N   UNL d   1      33.240  21.052 -23.472  0.00  0.00    -0.162 NA
ATOM      6  C   UNL d   1      33.116  21.878 -22.217  0.00  0.00     0.086 A 
ATOM      7  C   UNL d   1      32.991  21.841 -21.403  0.00  0.00     0.035 A 
ATOM      8  C   UNL d   1      32.879  21.112 -21.035  0.00  0.00     0.085 A 
ATOM      9  C   UNL d   1      33.195  20.233 -23.600  0.00  0.00     0.130 A 
ATOM     10  C   UNL d   1      33.229  22.609 -22.587  0.00  0.00     0.021 C 
ATOM     11  C   UNL d   1      32.753  21.076 -20.219  0.00  0.00     0.021 C 
ENDROOT
BRANCH   3  12
ATOM     12  C   UNL d   1      32.975  19.058 -22.746  0.00  0.00     0.215 C 
ATOM     13  O   UNL d   1      32.624  18.579 -23.324  0.00  0.00    -0.644 OA
ATOM     14  O   UNL d   1      33.240  18.715 -22.040  0.00  0.00    -0.644 OA
ENDBRANCH   3  12
BRANCH   7  15
ATOM     15  C   UNL d   1      32.979  22.535 -20.959  0.00  0.00     0.003 C 
BRANCH  15  16
ATOM     16  C   UNL d   1      32.289  22.986 -20.925  0.00  0.00     0.000 C 
ATOM     17  C   UNL d   1      32.236  23.614 -20.390  0.00  0.00     0.000 C 
ENDBRANCH  15  16
ENDBRANCH   7  15
TORSDOF 3
ENDMDL
MODEL 8
REMARK VINA RESULT:      -0.3      3.357      4.597
REMARK  3 active torsions:
REMARK  status: ('A' for Active; 'I' for Inactive)
REMARK    1  A    between atoms: C_10  and  C_3 
REMARK    2  A    between atoms: C_13  and  C_7 
REMARK    3  A    between atoms: C_12  and  C_13 
ROOT
ATOM      1  C   UNL d   1      33.097  19.440 -22.937  0.00  0.00     0.171 A 
ATOM      2  N   UNL d   1      33.092  19.579 -23.750  0.00  0.00    -0.212 N 
ATOM      3  C   UNL d   1      33.189  20.171 -22.555  0.00  0.00     0.121 A 
ATOM      4  N   UNL d   1      33.018  18.676 -22.647  0.00  0.00    -0.227 NA
ATOM      5  N   UNL d   1      33.181  20.397 -23.875  0.00  0.00    -0.162 NA
ATOM      6  C   UNL d   1      33.009  18.954 -24.276  0.00  0.00     0.086 A 
ATOM      7  C   UNL d   1      32.930  18.186 -23.986  0.00  0.00     0.035 A 
ATOM      8  C   UNL d   1      32.935  18.048 -23.174  0.00  0.00     0.085 A 
ATOM      9  C   UNL d   1      33.241  20.760 -23.131  0.00  0.00     0.130 A 
ATOM     10  C   UNL d   1      33.004  19.093 -25.090  0.00  0.00     0.021 C 
ATOM     11  C   UNL d   1      32.855  17.277 -22.885  0.00  0.00     0.021 C 
ENDROOT
BRANCH   3  12
ATOM     12  C   UNL d   1      33.222  20.287 -21.739  0.00  0.00     0.215 C 
ATOM     13  O   UNL d   1      33.240  21.055 -21.429  0.00  0.00    -0.644 OA
ATOM     14  O   UNL d   1      33.239  19.639 -21.225  0.00  0.00    -0.644 OA
ENDBRANCH   3  12
BRANCH   7  15
ATOM     15  C   UNL d   1      32.846  17.558 -24.513  0.00  0.00     0.003 C 
BRANCH  15  16
ATOM     16  C   UNL d   1      32.092  17.305 -24.732  0.00  0.00     0.000 C 
ATOM     17  C   UNL d   1      31.991  16.556 -25.066  0.00  0.00     0.000 C 
ENDBRANCH  15  16
ENDBRANCH   7  15
TORSDOF 3
ENDMDL
