MODEL 1
REMARK VINA RESULT:      26.6      0.000      0.000
REMARK  2 active torsions:
REMARK  status: ('A' for Active; 'I' for Inactive)
REMARK    1  A    between atoms: C_9  and  N_1 
REMARK    2  A    between atoms: C_8  and  N_2 
ROOT
ATOM      1  N   UNL d   1      44.406 -13.148  43.707  0.00  0.00    -0.208 N 
ATOM      2  N   UNL d   1      44.429 -13.809  44.204  0.00  0.00    -0.208 N 
ATOM      3  C   UNL d   1      43.663 -13.980  44.456  0.00  0.00     0.284 A 
ATOM      4  C   UNL d   1      43.617 -12.907  43.649  0.00  0.00     0.284 A 
ATOM      5  C   UNL d   1      43.159 -13.420  44.112  0.00  0.00     0.125 A 
ATOM      6  O   UNL d   1      43.439 -14.590  44.954  0.00  0.00    -0.265 OA
ATOM      7  O   UNL d   1      43.334 -12.263  43.206  0.00  0.00    -0.265 OA
ENDROOT
BRANCH   1   8
ATOM      8  C   UNL d   1      45.049 -12.795  43.336  0.00  0.00     0.085 A 
ATOM      9  C   UNL d   1      45.663 -12.467  43.791  0.00  0.00     0.019 A 
ATOM     10  C   UNL d   1      46.309 -12.113  43.422  0.00  0.00     0.002 A 
ATOM     11  C   UNL d   1      46.346 -12.082  42.588  0.00  0.00     0.000 A 
ATOM     12  C   UNL d   1      45.730 -12.411  42.137  0.00  0.00     0.002 A 
ATOM     13  C   UNL d   1      45.084 -12.766  42.515  0.00  0.00     0.019 A 
ENDBRANCH   1   8
BRANCH   2  14
ATOM     14  C   UNL d   1      45.110 -14.226  44.412  0.00  0.00     0.085 A 
ATOM     15  C   UNL d   1      45.753 -13.833  44.748  0.00  0.00     0.019 A 
ATOM     16  C   UNL d   1      46.429 -14.248  44.954  0.00  0.00     0.002 A 
ATOM     17  C   UNL d   1      46.468 -15.070  44.824  0.00  0.00     0.000 A 
ATOM     18  C   UNL d   1      45.825 -15.463  44.488  0.00  0.00     0.002 A 
ATOM     19  C   UNL d   1      45.150 -15.039  44.284  0.00  0.00     0.019 A 
ENDBRANCH   2  14
TORSDOF 2
ENDMDL
