MODEL 1
REMARK VINA RESULT:      -5.6      0.000      0.000
REMARK  4 active torsions:
REMARK  status: ('A' for Active; 'I' for Inactive)
REMARK    1  A    between atoms: C_10  and  N_1 
REMARK       I    between atoms: C_3  and  N_9 
REMARK    2  A    between atoms: C_6  and  C_3 
REMARK    3  A    between atoms: N_9  and  C_11 
REMARK    4  A    between atoms: C_11  and  C_10 
ROOT
ATOM      1  N   UNL d   1     -41.472-122.649 -53.189  0.00  0.00    -0.303 N 
ATOM      2  C   UNL d   1     -41.123-123.389 -53.314  0.00  0.00     0.080 A 
ATOM      3  C   UNL d   1     -41.771-122.387 -53.918  0.00  0.00     0.064 A 
ATOM      4  C   UNL d   1     -41.205-123.580 -54.111  0.00  0.00     0.021 A 
ATOM      5  C   UNL d   1     -41.604-122.963 -54.486  0.00  0.00     0.018 A 
ATOM      6  C   UNL d   1     -42.169-121.697 -54.122  0.00  0.00     0.018 A 
ATOM      7  C   UNL d   1     -41.842-122.841 -55.264  0.00  0.00     0.002 A 
ATOM      8  C   UNL d   1     -42.407-121.575 -54.900  0.00  0.00     0.002 A 
ATOM      9  C   UNL d   1     -42.246-122.149 -55.485  0.00  0.00     0.000 A 
ENDROOT
BRANCH   1  10
ATOM     10  C   UNL d   1     -41.514-122.250 -52.468  0.00  0.00     0.101 C 
BRANCH  10  11
ATOM     11  C   UNL d   1     -41.677-122.667 -51.775  0.00  0.00     0.121 C 
BRANCH  11  12
ATOM     12  N   UNL d   1     -42.236-122.377 -51.243  0.00  0.00    -0.209 NA
ATOM     13  C   UNL d   1     -42.241-122.639 -50.462  0.00  0.00     0.255 C 
ATOM     14  O   UNL d   1     -42.800-122.349 -49.929  0.00  0.00    -0.270 OA
BRANCH  13  15
ATOM     15  C   UNL d   1     -41.682-123.199 -50.212  0.00  0.00     0.073 C 
ATOM     16  C   UNL d   1     -42.242-123.803 -50.310  0.00  0.00     0.009 C 
ATOM     17  C   UNL d   1     -41.124-123.750 -49.963  0.00  0.00     0.009 C 
ATOM     18  C   UNL d   1     -41.133-122.593 -50.117  0.00  0.00     0.009 C 
ENDBRANCH  13  15
ENDBRANCH  11  12
ENDBRANCH  10  11
ENDBRANCH   1  10
TORSDOF 4
ENDMDL
MODEL 2
REMARK VINA RESULT:      -4.9      1.604      4.175
REMARK  4 active torsions:
REMARK  status: ('A' for Active; 'I' for Inactive)
REMARK    1  A    between atoms: C_10  and  N_1 
REMARK       I    between atoms: C_3  and  N_9 
REMARK    2  A    between atoms: C_6  and  C_3 
REMARK    3  A    between atoms: N_9  and  C_11 
REMARK    4  A    between atoms: C_11  and  C_10 
ROOT
ATOM      1  N   UNL d   1     -41.412-122.296 -52.077  0.00  0.00    -0.303 N 
ATOM      2  C   UNL d   1     -41.738-121.555 -51.905  0.00  0.00     0.080 A 
ATOM      3  C   UNL d   1     -41.417-122.741 -51.376  0.00  0.00     0.064 A 
ATOM      4  C   UNL d   1     -41.943-121.543 -51.107  0.00  0.00     0.021 A 
ATOM      5  C   UNL d   1     -41.746-122.274 -50.778  0.00  0.00     0.018 A 
ATOM      6  C   UNL d   1     -41.163-123.507 -51.220  0.00  0.00     0.018 A 
ATOM      7  C   UNL d   1     -41.818-122.584 -50.020  0.00  0.00     0.002 A 
ATOM      8  C   UNL d   1     -41.235-123.817 -50.462  0.00  0.00     0.002 A 
ATOM      9  C   UNL d   1     -41.565-123.358 -49.847  0.00  0.00     0.000 A 
ENDROOT
BRANCH   1  10
ATOM     10  C   UNL d   1     -41.132-122.542 -52.813  0.00  0.00     0.101 C 
BRANCH  10  11
ATOM     11  C   UNL d   1     -41.550-122.347 -53.497  0.00  0.00     0.121 C 
BRANCH  11  12
ATOM     12  N   UNL d   1     -41.140-122.161 -54.189  0.00  0.00    -0.209 NA
ATOM     13  C   UNL d   1     -41.535-122.140 -54.912  0.00  0.00     0.255 C 
ATOM     14  O   UNL d   1     -41.126-121.954 -55.604  0.00  0.00    -0.270 OA
BRANCH  13  15
ATOM     15  C   UNL d   1     -42.347-122.306 -54.943  0.00  0.00     0.073 C 
ATOM     16  C   UNL d   1     -42.180-123.119 -54.974  0.00  0.00     0.009 C 
ATOM     17  C   UNL d   1     -43.153-122.466 -54.974  0.00  0.00     0.009 C 
ATOM     18  C   UNL d   1     -42.504-121.499 -54.912  0.00  0.00     0.009 C 
ENDBRANCH  13  15
ENDBRANCH  11  12
ENDBRANCH  10  11
ENDBRANCH   1  10
TORSDOF 4
ENDMDL
MODEL 3
REMARK VINA RESULT:      -3.8      1.350      4.250
REMARK  4 active torsions:
REMARK  status: ('A' for Active; 'I' for Inactive)
REMARK    1  A    between atoms: C_10  and  N_1 
REMARK       I    between atoms: C_3  and  N_9 
REMARK    2  A    between atoms: C_6  and  C_3 
REMARK    3  A    between atoms: N_9  and  C_11 
REMARK    4  A    between atoms: C_11  and  C_10 
ROOT
ATOM      1  N   UNL d   1     -41.899-122.457 -50.852  0.00  0.00    -0.303 N 
ATOM      2  C   UNL d   1     -42.662-122.136 -50.843  0.00  0.00     0.080 A 
ATOM      3  C   UNL d   1     -41.780-122.841 -50.125  0.00  0.00     0.064 A 
ATOM      4  C   UNL d   1     -43.010-122.320 -50.120  0.00  0.00     0.021 A 
ATOM      5  C   UNL d   1     -42.468-122.755 -49.675  0.00  0.00     0.018 A 
ATOM      6  C   UNL d   1     -41.132-123.252 -49.831  0.00  0.00     0.018 A 
ATOM      7  C   UNL d   1     -42.499-123.087 -48.923  0.00  0.00     0.002 A 
ATOM      8  C   UNL d   1     -41.164-123.584 -49.079  0.00  0.00     0.002 A 
ATOM      9  C   UNL d   1     -41.852-123.506 -48.611  0.00  0.00     0.000 A 
ENDROOT
BRANCH   1  10
ATOM     10  C   UNL d   1     -41.359-122.402 -51.473  0.00  0.00     0.101 C 
BRANCH  10  11
ATOM     11  C   UNL d   1     -41.619-122.472 -52.252  0.00  0.00     0.121 C 
BRANCH  11  12
ATOM     12  N   UNL d   1     -41.330-121.959 -52.830  0.00  0.00    -0.209 NA
ATOM     13  C   UNL d   1     -41.411-122.144 -53.628  0.00  0.00     0.255 C 
ATOM     14  O   UNL d   1     -41.123-121.630 -54.206  0.00  0.00    -0.270 OA
BRANCH  13  15
ATOM     15  C   UNL d   1     -41.785-122.850 -53.851  0.00  0.00     0.073 C 
ATOM     16  C   UNL d   1     -41.123-123.281 -53.596  0.00  0.00     0.009 C 
ATOM     17  C   UNL d   1     -42.159-123.548 -54.074  0.00  0.00     0.009 C 
ATOM     18  C   UNL d   1     -42.437-122.415 -54.101  0.00  0.00     0.009 C 
ENDBRANCH  13  15
ENDBRANCH  11  12
ENDBRANCH  10  11
ENDBRANCH   1  10
TORSDOF 4
ENDMDL
