MODEL 1
REMARK VINA RESULT:      25.5      0.000      0.000
REMARK  4 active torsions:
REMARK  status: ('A' for Active; 'I' for Inactive)
REMARK    1  A    between atoms: N_7  and  C_1 
REMARK    2  A    between atoms: C_8  and  C_2 
REMARK    3  A    between atoms: C_11  and  N_7 
REMARK    4  A    between atoms: C_19  and  C_12 
ROOT
ATOM      1  C   UNL d   1      14.254  13.095  -1.603  0.00  0.00     0.189 A 
ATOM      2  C   UNL d   1      14.741  13.004  -0.943  0.00  0.00     0.119 A 
ATOM      3  C   UNL d   1      15.203  13.638  -0.683  0.00  0.00     0.204 A 
ATOM      4  O   UNL d   1      14.230  13.819  -1.999  0.00  0.00    -0.289 OA
ATOM      5  C   UNL d   1      15.176  14.354  -1.079  0.00  0.00     0.067 A 
ATOM      6  C   UNL d   1      14.689  14.444  -1.738  0.00  0.00     0.105 A 
ATOM      7  O   UNL d   1      15.692  13.547  -0.021  0.00  0.00    -0.286 OA
ATOM      8  C   UNL d   1      14.651  15.170  -2.153  0.00  0.00     0.027 C 
ENDROOT
BRANCH   1   9
ATOM      9  N   UNL d   1      13.773  12.446  -1.880  0.00  0.00    -0.222 NA
BRANCH   9  10
ATOM     10  C   UNL d   1      13.554  12.397  -2.669  0.00  0.00     0.084 A 
ATOM     11  C   UNL d   1      12.989  12.918  -2.980  0.00  0.00     0.019 A 
ATOM     12  C   UNL d   1      12.769  12.868  -3.773  0.00  0.00     0.002 A 
ATOM     13  C   UNL d   1      13.113  12.297  -4.260  0.00  0.00     0.000 A 
ATOM     14  C   UNL d   1      13.671  11.781  -3.955  0.00  0.00     0.002 A 
ATOM     15  C   UNL d   1      13.891  11.831  -3.162  0.00  0.00     0.019 A 
BRANCH  13  16
ATOM     16  C   UNL d   1      12.891  12.246  -5.057  0.00  0.00     0.000 C 
ATOM     17  C   UNL d   1      13.449  12.062  -5.627  0.00  0.00     0.000 C 
ENDBRANCH  13  16
ENDBRANCH   9  10
ENDBRANCH   1   9
BRANCH   2  18
ATOM     18  C   UNL d   1      14.760  12.263  -0.544  0.00  0.00     0.202 C 
ATOM     19  O   UNL d   1      15.429  11.781  -0.619  0.00  0.00    -0.286 OA
ATOM     20  C   UNL d   1      14.126  12.018  -0.088  0.00  0.00     0.046 C 
ENDBRANCH   2  18
TORSDOF 4
ENDMDL
