MODEL 1
REMARK VINA RESULT:      62.2      0.000      0.000
REMARK  4 active torsions:
REMARK  status: ('A' for Active; 'I' for Inactive)
REMARK    1  A    between atoms: S_2  and  C_1 
REMARK    2  A    between atoms: C_10  and  S_2 
REMARK    3  A    between atoms: N_7  and  C_4 
REMARK    4  A    between atoms: C_8  and  N_7 
ROOT
ATOM      1  C   UNL d   1      60.423  48.476  50.744  0.00  0.00     0.187 A 
ATOM      2  N   UNL d   1      59.618  48.603  50.882  0.00  0.00    -0.208 NA
ATOM      3  C   UNL d   1      59.529  49.361  51.175  0.00  0.00     0.198 A 
ATOM      4  C   UNL d   1      60.826  49.162  50.954  0.00  0.00     0.118 A 
ATOM      5  S   UNL d   1      60.271  49.708  51.221  0.00  0.00    -0.035 SA
ATOM      6 CL   UNL d   1      61.657  49.287  50.907  0.00  0.00    -0.073 Cl
ENDROOT
BRANCH   1   7
ATOM      7  S   UNL d   1      60.839  47.826  50.454  0.00  0.00     0.228 S 
ATOM      8  O   UNL d   1      60.483  47.345  51.022  0.00  0.00    -0.216 OA
ATOM      9  O   UNL d   1      61.195  48.306  49.886  0.00  0.00    -0.216 OA
BRANCH   7  10
ATOM     10  C   UNL d   1      61.254  47.175  50.163  0.00  0.00     0.089 A 
ATOM     11  C   UNL d   1      61.954  47.291  49.732  0.00  0.00     0.011 A 
ATOM     12  C   UNL d   1      62.374  46.633  49.439  0.00  0.00     0.001 A 
ATOM     13  C   UNL d   1      62.090  45.866  49.580  0.00  0.00     0.000 A 
ATOM     14  C   UNL d   1      61.396  45.755  50.008  0.00  0.00     0.001 A 
ATOM     15  C   UNL d   1      62.506  45.216  49.290  0.00  0.00     0.000 C 
ATOM     16  C   UNL d   1      60.976  46.412  50.301  0.00  0.00     0.011 A 
ENDBRANCH   7  10
ENDBRANCH   1   7
BRANCH   3  17
ATOM     17  N   UNL d   1      58.806  49.707  51.387  0.00  0.00    -0.196 NA
BRANCH  17  18
ATOM     18  C   UNL d   1      58.175  49.690  50.859  0.00  0.00     0.196 A 
ATOM     19  N   UNL d   1      58.144  49.707  50.034  0.00  0.00    -0.219 NA
ATOM     20  C   UNL d   1      57.352  49.676  49.811  0.00  0.00     0.108 A 
ATOM     21  C   UNL d   1      56.894  49.641  50.492  0.00  0.00     0.059 A 
ATOM     22  S   UNL d   1      57.399  49.649  51.138  0.00  0.00    -0.046 SA
ENDBRANCH  17  18
ENDBRANCH   3  17
TORSDOF 4
ENDMDL
MODEL 2
REMARK VINA RESULT:      62.8      1.345      4.309
REMARK  4 active torsions:
REMARK  status: ('A' for Active; 'I' for Inactive)
REMARK    1  A    between atoms: S_2  and  C_1 
REMARK    2  A    between atoms: C_10  and  S_2 
REMARK    3  A    between atoms: N_7  and  C_4 
REMARK    4  A    between atoms: C_8  and  N_7 
ROOT
ATOM      1  C   UNL d   1      60.104  48.812  50.512  0.00  0.00     0.187 A 
ATOM      2  N   UNL d   1      60.590  48.316  50.064  0.00  0.00    -0.208 NA
ATOM      3  C   UNL d   1      61.346  48.359  50.371  0.00  0.00     0.198 A 
ATOM      4  C   UNL d   1      60.569  49.161  51.094  0.00  0.00     0.118 A 
ATOM      5  S   UNL d   1      61.337  48.879  51.005  0.00  0.00    -0.035 SA
ATOM      6 CL   UNL d   1      60.308  49.708  51.678  0.00  0.00    -0.073 Cl
ENDROOT
BRANCH   1   7
ATOM      7  S   UNL d   1      59.300  48.991  50.462  0.00  0.00     0.228 S 
ATOM      8  O   UNL d   1      59.142  48.444  51.059  0.00  0.00    -0.216 OA
ATOM      9  O   UNL d   1      59.459  49.539  49.865  0.00  0.00    -0.216 OA
BRANCH   7  10
ATOM     10  C   UNL d   1      58.496  49.170  50.413  0.00  0.00     0.089 A 
ATOM     11  C   UNL d   1      58.122  49.186  49.672  0.00  0.00     0.011 A 
ATOM     12  C   UNL d   1      57.310  49.367  49.622  0.00  0.00     0.001 A 
ATOM     13  C   UNL d   1      56.880  49.529  50.313  0.00  0.00     0.000 A 
ATOM     14  C   UNL d   1      57.255  49.513  51.047  0.00  0.00     0.001 A 
ATOM     15  C   UNL d   1      56.077  49.708  50.264  0.00  0.00     0.000 C 
ATOM     16  C   UNL d   1      58.067  49.332  51.097  0.00  0.00     0.011 A 
ENDBRANCH   7  10
ENDBRANCH   1   7
BRANCH   3  17
ATOM     17  N   UNL d   1      62.002  47.944  50.080  0.00  0.00    -0.196 NA
BRANCH  17  18
ATOM     18  C   UNL d   1      61.925  47.151  49.873  0.00  0.00     0.196 A 
ATOM     19  N   UNL d   1      61.430  46.552  50.153  0.00  0.00    -0.219 NA
ATOM     20  C   UNL d   1      61.603  45.866  49.733  0.00  0.00     0.108 A 
ATOM     21  C   UNL d   1      62.201  46.036  49.196  0.00  0.00     0.059 A 
ATOM     22  S   UNL d   1      62.400  46.827  49.281  0.00  0.00    -0.046 SA
ENDBRANCH  17  18
ENDBRANCH   3  17
TORSDOF 4
ENDMDL
