MODEL 1
REMARK VINA RESULT:      20.9      0.000      0.000
REMARK  1 active torsions:
REMARK  status: ('A' for Active; 'I' for Inactive)
REMARK    1  A    between atoms: C_13  and  N_3 
ROOT
ATOM      1  C   UNL d   1     -50.920  25.214  33.309  0.00  0.00     0.166 A 
ATOM      2  C   UNL d   1     -51.717  25.412  33.308  0.00  0.00     0.117 A 
ATOM      3  N   UNL d   1     -50.887  24.386  33.310  0.00  0.00    -0.289 N 
ATOM      4  C   UNL d   1     -52.162  24.736  33.308  0.00  0.00     0.038 A 
ATOM      5  N   UNL d   1     -50.329  25.798  33.309  0.00  0.00    -0.225 NA
ATOM      6  C   UNL d   1     -51.644  24.096  33.309  0.00  0.00     0.067 A 
ATOM      7  N   UNL d   1     -51.908  26.218  33.307  0.00  0.00    -0.241 NA
ATOM      8  C   UNL d   1     -50.534  26.579  33.308  0.00  0.00     0.101 A 
ATOM      9  C   UNL d   1     -51.337  26.784  33.307  0.00  0.00     0.099 A 
ATOM     10  C   UNL d   1     -51.941  23.323  33.309  0.00  0.00     0.018 A 
ATOM     11  C   UNL d   1     -52.976  24.601  33.306  0.00  0.00     0.015 A 
ATOM     12  C   UNL d   1     -53.275  23.834  33.307  0.00  0.00     0.058 A 
ATOM     13  C   UNL d   1     -52.758  23.194  33.308  0.00  0.00     0.013 A 
ATOM     14 CL   UNL d   1     -54.089  23.700  33.306  0.00  0.00    -0.082 Cl
ATOM     15  C   UNL d   1     -49.966  27.153  33.309  0.00  0.00     0.021 A 
ATOM     16  C   UNL d   1     -51.547  27.573  33.306  0.00  0.00     0.021 A 
ATOM     17  C   UNL d   1     -50.197  27.960  33.308  0.00  0.00     0.002 A 
ATOM     18  C   UNL d   1     -50.975  28.180  33.306  0.00  0.00     0.002 A 
ENDROOT
BRANCH   3  19
ATOM     19  C   UNL d   1     -50.208  23.947  33.311  0.00  0.00     0.082 C 
ATOM     20  C   UNL d   1     -50.219  23.196  33.699  0.00  0.00     0.021 C 
ENDBRANCH   3  19
TORSDOF 1
ENDMDL
