MODEL 1
REMARK VINA RESULT:      64.5      0.000      0.000
REMARK  4 active torsions:
REMARK  status: ('A' for Active; 'I' for Inactive)
REMARK    1  A    between atoms: S_2  and  N_1 
REMARK    2  A    between atoms: C_10  and  S_2 
REMARK    3  A    between atoms: C_7  and  C_4 
REMARK    4  A    between atoms: C_12  and  C_5 
ROOT
ATOM      1  N   UNL d   1     -57.827 -99.153 -43.879  0.00  0.00    -0.152 N 
ATOM      2  N   UNL d   1     -57.935 -99.151 -43.074  0.00  0.00    -0.155 NA
ATOM      3  C   UNL d   1     -58.726 -98.974 -42.923  0.00  0.00     0.110 A 
ATOM      4  C   UNL d   1     -58.548 -98.977 -44.244  0.00  0.00     0.096 A 
ATOM      5  C   UNL d   1     -59.121 -98.863 -43.634  0.00  0.00     0.041 A 
ENDROOT
BRANCH   1   6
ATOM      6  S   UNL d   1     -57.137 -99.301 -44.262  0.00  0.00     0.286 S 
ATOM      7  O   UNL d   1     -57.711 -99.902 -44.309  0.00  0.00    -0.198 OA
ATOM      8  O   UNL d   1     -56.929 -99.981 -44.698  0.00  0.00    -0.198 OA
BRANCH   6   9
ATOM      9  C   UNL d   1     -56.383 -99.296 -44.596  0.00  0.00     0.105 A 
ATOM     10  C   UNL d   1     -55.814 -98.765 -44.321  0.00  0.00     0.013 A 
ATOM     11  C   UNL d   1     -55.055 -98.758 -44.656  0.00  0.00     0.001 A 
ATOM     12  C   UNL d   1     -54.870 -99.283 -45.265  0.00  0.00     0.000 A 
ATOM     13  C   UNL d   1     -55.443 -99.815 -45.539  0.00  0.00     0.001 A 
ATOM     14  C   UNL d   1     -56.198 -99.821 -45.205  0.00  0.00     0.013 A 
ENDBRANCH   6   9
ENDBRANCH   1   6
BRANCH   4  15
ATOM     15  C   UNL d   1     -58.690 -98.922 -45.055  0.00  0.00     0.019 A 
ATOM     16  C   UNL d   1     -59.470 -98.949 -45.340  0.00  0.00     0.002 A 
ATOM     17  C   UNL d   1     -59.607 -98.895 -46.122  0.00  0.00     0.007 A 
ATOM     18  C   UNL d   1     -58.973 -98.811 -46.676  0.00  0.00     0.035 A 
ATOM     19  C   UNL d   1     -58.195 -98.786 -46.361  0.00  0.00     0.007 A 
ATOM     20 BR   UNL d   1     -59.114 -98.755 -47.487  0.00  0.00    -0.049 Br
ATOM     21  C   UNL d   1     -58.058 -98.840 -45.579  0.00  0.00     0.002 A 
ENDBRANCH   4  15
BRANCH   3  22
ATOM     22  C   UNL d   1     -59.087 -98.912 -42.187  0.00  0.00     0.049 A 
ATOM     23  S   UNL d   1     -59.898 -98.764 -42.054  0.00  0.00    -0.085 SA
ATOM     24  C   UNL d   1     -59.956 -98.757 -41.252  0.00  0.00     0.035 A 
ATOM     25  C   UNL d   1     -59.315 -98.877 -40.871  0.00  0.00     0.007 A 
ATOM     26  C   UNL d   1     -58.747 -98.978 -41.437  0.00  0.00     0.009 A 
ENDBRANCH   3  22
TORSDOF 4
ENDMDL
