MODEL 1
REMARK VINA RESULT:      -2.8      0.000      0.000
REMARK  3 active torsions:
REMARK  status: ('A' for Active; 'I' for Inactive)
REMARK    1  A    between atoms: C_2  and  C_1 
REMARK    2  A    between atoms: N_3  and  C_1 
REMARK    3  A    between atoms: C_13  and  N_3 
ROOT
ATOM      1  C   UNL d   1      31.403  17.418 -24.363  0.00  0.00     0.030 A 
ATOM      2  C   UNL d   1      32.309  18.143 -23.518  0.00  0.00     0.119 A 
ATOM      3  C   UNL d   1      31.732  17.563 -23.612  0.00  0.00     0.029 A 
ATOM      4  C   UNL d   1      32.557  18.578 -24.177  0.00  0.00     0.119 A 
ATOM      5  O   UNL d   1      32.743  18.417 -22.833  0.00  0.00    -0.300 OA
ATOM      6  O   UNL d   1      33.152  19.126 -23.892  0.00  0.00    -0.300 OA
ATOM      7  C   UNL d   1      33.235  19.004 -23.106  0.00  0.00     0.304 A 
ATOM      8  C   UNL d   1      31.655  17.855 -25.014  0.00  0.00     0.004 A 
ATOM      9  C   UNL d   1      32.232  18.434 -24.921  0.00  0.00     0.026 A 
ENDROOT
BRANCH   1  10
ATOM     10  C   UNL d   1      30.826  16.839 -24.456  0.00  0.00     0.136 C 
ATOM     11  S   UNL d   1      31.034  16.040 -24.428  0.00  0.00    -0.057 SA
BRANCH  10  12
ATOM     12  N   UNL d   1      30.032  17.062 -24.578  0.00  0.00    -0.235 NA
BRANCH  12  13
ATOM     13  C   UNL d   1      29.424  16.525 -24.418  0.00  0.00     0.082 A 
ATOM     14  C   UNL d   1      29.057  16.529 -23.685  0.00  0.00     0.019 A 
ATOM     15  C   UNL d   1      28.449  15.993 -23.525  0.00  0.00     0.002 A 
ATOM     16  C   UNL d   1      28.213  15.454 -24.104  0.00  0.00     0.000 A 
ATOM     17  C   UNL d   1      28.585  15.453 -24.843  0.00  0.00     0.002 A 
ATOM     18  C   UNL d   1      29.190  15.988 -24.999  0.00  0.00     0.019 A 
ENDBRANCH  12  13
ENDBRANCH  10  12
ENDBRANCH   1  10
TORSDOF 3
ENDMDL
MODEL 2
REMARK VINA RESULT:      -2.5      2.026      2.808
REMARK  3 active torsions:
REMARK  status: ('A' for Active; 'I' for Inactive)
REMARK    1  A    between atoms: C_2  and  C_1 
REMARK    2  A    between atoms: N_3  and  C_1 
REMARK    3  A    between atoms: C_13  and  N_3 
ROOT
ATOM      1  C   UNL d   1      33.005  18.932 -23.270  0.00  0.00     0.030 A 
ATOM      2  C   UNL d   1      33.031  19.794 -22.122  0.00  0.00     0.119 A 
ATOM      3  C   UNL d   1      32.943  19.042 -22.447  0.00  0.00     0.029 A 
ATOM      4  C   UNL d   1      33.180  20.436 -22.622  0.00  0.00     0.119 A 
ATOM      5  O   UNL d   1      32.999  20.079 -21.316  0.00  0.00    -0.300 OA
ATOM      6  O   UNL d   1      33.240  21.125 -22.115  0.00  0.00    -0.300 OA
ATOM      7  C   UNL d   1      33.129  20.881 -21.362  0.00  0.00     0.304 A 
ATOM      8  C   UNL d   1      33.153  19.576 -23.761  0.00  0.00     0.004 A 
ATOM      9  C   UNL d   1      33.241  20.328 -23.438  0.00  0.00     0.026 A 
ENDROOT
BRANCH   1  10
ATOM     10  C   UNL d   1      32.917  18.181 -23.594  0.00  0.00     0.136 C 
ATOM     11  S   UNL d   1      33.225  18.015 -24.342  0.00  0.00    -0.057 SA
BRANCH  10  12
ATOM     12  N   UNL d   1      32.517  17.589 -23.163  0.00  0.00    -0.235 NA
BRANCH  12  13
ATOM     13  C   UNL d   1      32.201  16.935 -23.558  0.00  0.00     0.082 A 
ATOM     14  C   UNL d   1      32.603  16.221 -23.551  0.00  0.00     0.019 A 
ATOM     15  C   UNL d   1      32.287  15.566 -23.945  0.00  0.00     0.002 A 
ATOM     16  C   UNL d   1      31.569  15.634 -24.345  0.00  0.00     0.000 A 
ATOM     17  C   UNL d   1      31.166  16.357 -24.350  0.00  0.00     0.002 A 
ATOM     18  C   UNL d   1      31.483  17.007 -23.957  0.00  0.00     0.019 A 
ENDBRANCH  12  13
ENDBRANCH  10  12
ENDBRANCH   1  10
TORSDOF 3
ENDMDL
MODEL 3
REMARK VINA RESULT:      -2.3      5.703      7.777
REMARK  3 active torsions:
REMARK  status: ('A' for Active; 'I' for Inactive)
REMARK    1  A    between atoms: C_2  and  C_1 
REMARK    2  A    between atoms: N_3  and  C_1 
REMARK    3  A    between atoms: C_13  and  N_3 
ROOT
ATOM      1  C   UNL d   1      32.871  22.493 -20.339  0.00  0.00     0.030 A 
ATOM      2  C   UNL d   1      32.976  21.302 -21.133  0.00  0.00     0.119 A 
ATOM      3  C   UNL d   1      32.975  21.669 -20.395  0.00  0.00     0.029 A 
ATOM      4  C   UNL d   1      32.872  21.761 -21.814  0.00  0.00     0.119 A 
ATOM      5  O   UNL d   1      33.067  20.484 -21.368  0.00  0.00    -0.300 OA
ATOM      6  O   UNL d   1      32.901  21.216 -22.476  0.00  0.00    -0.300 OA
ATOM      7  C   UNL d   1      33.016  20.482 -22.180  0.00  0.00     0.304 A 
ATOM      8  C   UNL d   1      32.769  22.943 -21.021  0.00  0.00     0.004 A 
ATOM      9  C   UNL d   1      32.770  22.577 -21.758  0.00  0.00     0.026 A 
ENDROOT
BRANCH   1  10
ATOM     10  C   UNL d   1      32.870  22.859 -19.602  0.00  0.00     0.136 C 
ATOM     11  S   UNL d   1      33.241  23.591 -19.503  0.00  0.00    -0.057 SA
BRANCH  10  12
ATOM     12  N   UNL d   1      32.493  22.489 -18.957  0.00  0.00    -0.235 NA
BRANCH  12  13
ATOM     13  C   UNL d   1      32.560  22.813 -18.199  0.00  0.00     0.082 A 
ATOM     14  C   UNL d   1      32.022  23.376 -17.946  0.00  0.00     0.019 A 
ATOM     15  C   UNL d   1      32.089  23.700 -17.188  0.00  0.00     0.002 A 
ATOM     16  C   UNL d   1      32.698  23.455 -16.689  0.00  0.00     0.000 A 
ATOM     17  C   UNL d   1      33.241  22.886 -16.948  0.00  0.00     0.002 A 
ATOM     18  C   UNL d   1      33.171  22.565 -17.703  0.00  0.00     0.019 A 
ENDBRANCH  12  13
ENDBRANCH  10  12
ENDBRANCH   1  10
TORSDOF 3
ENDMDL
MODEL 4
REMARK VINA RESULT:      -2.3      2.486      3.789
REMARK  3 active torsions:
REMARK  status: ('A' for Active; 'I' for Inactive)
REMARK    1  A    between atoms: C_2  and  C_1 
REMARK    2  A    between atoms: N_3  and  C_1 
REMARK    3  A    between atoms: C_13  and  N_3 
ROOT
ATOM      1  C   UNL d   1      32.963  19.882 -22.485  0.00  0.00     0.030 A 
ATOM      2  C   UNL d   1      33.104  21.307 -22.590  0.00  0.00     0.119 A 
ATOM      3  C   UNL d   1      33.099  20.564 -22.945  0.00  0.00     0.029 A 
ATOM      4  C   UNL d   1      32.973  21.368 -21.775  0.00  0.00     0.119 A 
ATOM      5  O   UNL d   1      33.225  22.094 -22.906  0.00  0.00    -0.300 OA
ATOM      6  O   UNL d   1      33.014  22.204 -21.588  0.00  0.00    -0.300 OA
ATOM      7  C   UNL d   1      33.162  22.597 -22.269  0.00  0.00     0.304 A 
ATOM      8  C   UNL d   1      32.834  19.951 -21.675  0.00  0.00     0.004 A 
ATOM      9  C   UNL d   1      32.839  20.693 -21.320  0.00  0.00     0.026 A 
ENDROOT
BRANCH   1  10
ATOM     10  C   UNL d   1      32.959  19.140 -22.840  0.00  0.00     0.136 C 
ATOM     11  S   UNL d   1      33.240  18.483 -22.427  0.00  0.00    -0.057 SA
BRANCH  10  12
ATOM     12  N   UNL d   1      32.668  19.055 -23.617  0.00  0.00    -0.235 NA
BRANCH  12  13
ATOM     13  C   UNL d   1      32.469  18.305 -23.903  0.00  0.00     0.082 A 
ATOM     14  C   UNL d   1      33.043  17.836 -24.252  0.00  0.00     0.019 A 
ATOM     15  C   UNL d   1      32.844  17.085 -24.538  0.00  0.00     0.002 A 
ATOM     16  C   UNL d   1      32.069  16.812 -24.471  0.00  0.00     0.000 A 
ATOM     17  C   UNL d   1      31.492  17.289 -24.119  0.00  0.00     0.002 A 
ATOM     18  C   UNL d   1      31.693  18.035 -23.835  0.00  0.00     0.019 A 
ENDBRANCH  12  13
ENDBRANCH  10  12
ENDBRANCH   1  10
TORSDOF 3
ENDMDL
MODEL 5
REMARK VINA RESULT:      -2.1      3.653      5.563
REMARK  3 active torsions:
REMARK  status: ('A' for Active; 'I' for Inactive)
REMARK    1  A    between atoms: C_2  and  C_1 
REMARK    2  A    between atoms: N_3  and  C_1 
REMARK    3  A    between atoms: C_13  and  N_3 
ROOT
ATOM      1  C   UNL d   1      32.995  20.076 -22.479  0.00  0.00     0.030 A 
ATOM      2  C   UNL d   1      33.132  18.648 -22.534  0.00  0.00     0.119 A 
ATOM      3  C   UNL d   1      33.104  19.345 -22.095  0.00  0.00     0.029 A 
ATOM      4  C   UNL d   1      33.051  18.685 -23.357  0.00  0.00     0.119 A 
ATOM      5  O   UNL d   1      33.235  17.830 -22.307  0.00  0.00    -0.300 OA
ATOM      6  O   UNL d   1      33.105  17.876 -23.638  0.00  0.00    -0.300 OA
ATOM      7  C   UNL d   1      33.212  17.405 -23.001  0.00  0.00     0.304 A 
ATOM      8  C   UNL d   1      32.916  20.104 -23.298  0.00  0.00     0.004 A 
ATOM      9  C   UNL d   1      32.944  19.409 -23.737  0.00  0.00     0.026 A 
ENDROOT
BRANCH   1  10
ATOM     10  C   UNL d   1      32.967  20.772 -22.040  0.00  0.00     0.136 C 
ATOM     11  S   UNL d   1      33.241  21.479 -22.367  0.00  0.00    -0.057 SA
BRANCH  10  12
ATOM     12  N   UNL d   1      32.662  20.759 -21.264  0.00  0.00    -0.235 NA
BRANCH  12  13
ATOM     13  C   UNL d   1      32.719  21.432 -20.787  0.00  0.00     0.082 A 
ATOM     14  C   UNL d   1      33.176  21.415 -20.108  0.00  0.00     0.019 A 
ATOM     15  C   UNL d   1      33.233  22.089 -19.631  0.00  0.00     0.002 A 
ATOM     16  C   UNL d   1      32.828  22.776 -19.842  0.00  0.00     0.000 A 
ATOM     17  C   UNL d   1      32.367  22.790 -20.529  0.00  0.00     0.002 A 
ATOM     18  C   UNL d   1      32.313  22.118 -21.001  0.00  0.00     0.019 A 
ENDBRANCH  12  13
ENDBRANCH  10  12
ENDBRANCH   1  10
TORSDOF 3
ENDMDL
MODEL 6
REMARK VINA RESULT:      -2.1      2.930      4.748
REMARK  3 active torsions:
REMARK  status: ('A' for Active; 'I' for Inactive)
REMARK    1  A    between atoms: C_2  and  C_1 
REMARK    2  A    between atoms: N_3  and  C_1 
REMARK    3  A    between atoms: C_13  and  N_3 
ROOT
ATOM      1  C   UNL d   1      32.833  18.917 -23.312  0.00  0.00     0.030 A 
ATOM      2  C   UNL d   1      32.961  17.487 -23.268  0.00  0.00     0.119 A 
ATOM      3  C   UNL d   1      33.196  18.232 -23.005  0.00  0.00     0.029 A 
ATOM      4  C   UNL d   1      32.364  17.428 -23.837  0.00  0.00     0.119 A 
ATOM      5  O   UNL d   1      33.221  16.698 -23.064  0.00  0.00    -0.300 OA
ATOM      6  O   UNL d   1      32.255  16.591 -23.985  0.00  0.00    -0.300 OA
ATOM      7  C   UNL d   1      32.770  16.195 -23.518  0.00  0.00     0.304 A 
ATOM      8  C   UNL d   1      32.240  18.850 -23.879  0.00  0.00     0.004 A 
ATOM      9  C   UNL d   1      32.005  18.106 -24.141  0.00  0.00     0.026 A 
ENDROOT
BRANCH   1  10
ATOM     10  C   UNL d   1      33.068  19.660 -23.050  0.00  0.00     0.136 C 
ATOM     11  S   UNL d   1      33.241  20.256 -23.595  0.00  0.00    -0.057 SA
BRANCH  10  12
ATOM     12  N   UNL d   1      33.131  19.809 -22.231  0.00  0.00    -0.235 NA
BRANCH  12  13
ATOM     13  C   UNL d   1      32.951  20.560 -21.934  0.00  0.00     0.082 A 
ATOM     14  C   UNL d   1      32.488  20.633 -21.262  0.00  0.00     0.019 A 
ATOM     15  C   UNL d   1      32.309  21.383 -20.965  0.00  0.00     0.002 A 
ATOM     16  C   UNL d   1      32.597  22.056 -21.346  0.00  0.00     0.000 A 
ATOM     17  C   UNL d   1      33.064  21.978 -22.024  0.00  0.00     0.002 A 
ATOM     18  C   UNL d   1      33.241  21.230 -22.318  0.00  0.00     0.019 A 
ENDBRANCH  12  13
ENDBRANCH  10  12
ENDBRANCH   1  10
TORSDOF 3
ENDMDL
