MODEL 1
REMARK VINA RESULT:      30.9      0.000      0.000
REMARK  4 active torsions:
REMARK  status: ('A' for Active; 'I' for Inactive)
REMARK    1  A    between atoms: C_8  and  C_1 
REMARK    2  A    between atoms: N_4  and  C_2 
REMARK       I    between atoms: C_6  and  N_4 
REMARK    3  A    between atoms: C_9  and  C_6 
REMARK    4  A    between atoms: O_16  and  C_8 
ROOT
ATOM      1  C   UNL d   1     -58.629 -98.762 -44.943  0.00  0.00     0.110 A 
ATOM      2  C   UNL d   1     -58.094 -98.759 -44.303  0.00  0.00     0.096 A 
ATOM      3  S   UNL d   1     -59.352 -98.764 -44.630  0.00  0.00    -0.080 SA
ATOM      4  C   UNL d   1     -58.501 -98.759 -43.622  0.00  0.00     0.024 A 
ATOM      5  C   UNL d   1     -59.308 -98.762 -43.803  0.00  0.00     0.031 A 
ATOM      6  C   UNL d   1     -58.265 -98.757 -42.824  0.00  0.00     0.002 A 
ATOM      7  C   UNL d   1     -59.868 -98.763 -43.217  0.00  0.00     0.006 A 
ATOM      8  C   UNL d   1     -58.821 -98.757 -42.239  0.00  0.00     0.000 A 
ATOM      9  C   UNL d   1     -59.632 -98.761 -42.440  0.00  0.00     0.001 A 
ENDROOT
BRANCH   2  10
ATOM     10  N   UNL d   1     -57.267 -98.756 -44.368  0.00  0.00    -0.207 NA
ATOM     11  C   UNL d   1     -56.851 -99.477 -44.310  0.00  0.00     0.285 C 
ATOM     12  O   UNL d   1     -57.282-100.167 -44.190  0.00  0.00    -0.265 OA
BRANCH  11  13
ATOM     13  C   UNL d   1     -56.040 -99.504 -44.370  0.00  0.00     0.087 A 
ATOM     14  S   UNL d   1     -55.602-100.196 -44.460  0.00  0.00    -0.082 SA
ATOM     15  C   UNL d   1     -54.814 -99.999 -44.499  0.00  0.00     0.036 A 
ATOM     16  C   UNL d   1     -54.766 -99.164 -44.432  0.00  0.00     0.008 A 
ATOM     17  C   UNL d   1     -55.514 -98.868 -44.353  0.00  0.00     0.012 A 
ENDBRANCH  11  13
ENDBRANCH   2  10
BRANCH   1  18
ATOM     18  C   UNL d   1     -58.475 -98.763 -45.774  0.00  0.00     0.303 C 
ATOM     19  O   UNL d   1     -57.691 -98.770 -46.016  0.00  0.00    -0.259 OA
BRANCH  18  20
ATOM     20  O   UNL d   1     -59.087 -98.757 -46.317  0.00  0.00    -0.295 OA
ATOM     21  C   UNL d   1     -58.935 -98.774 -47.117  0.00  0.00     0.185 C 
ENDBRANCH  18  20
ENDBRANCH   1  18
TORSDOF 4
ENDMDL
