MODEL 1
REMARK VINA RESULT:      -4.0      0.000      0.000
REMARK  8 active torsions:
REMARK  status: ('A' for Active; 'I' for Inactive)
REMARK    1  A    between atoms: N_6  and  C_1 
REMARK       I    between atoms: C_2  and  N_3 
REMARK    2  A    between atoms: C_7  and  C_2 
REMARK    3  A    between atoms: N_3  and  C_4 
REMARK    4  A    between atoms: C_4  and  N_6 
REMARK    5  A    between atoms: C_10  and  C_8 
REMARK    6  A    between atoms: C_12  and  C_10 
REMARK    7  A    between atoms: O_18  and  C_12 
REMARK    8  A    between atoms: C_21  and  O_18 
ROOT
ATOM      1  C   UNL d   1     -42.527-122.482 -50.291  0.00  0.00     0.277 C 
ATOM      2  S   UNL d   1     -43.258-122.099 -50.328  0.00  0.00    -0.023 SA
ENDROOT
BRANCH   1   3
ATOM      3  N   UNL d   1     -42.165-122.589 -49.557  0.00  0.00    -0.168 NA
ATOM      4  C   UNL d   1     -42.593-122.891 -48.921  0.00  0.00     0.282 C 
ATOM      5  O   UNL d   1     -43.385-123.089 -49.010  0.00  0.00    -0.265 OA
BRANCH   4   6
ATOM      6  C   UNL d   1     -42.222-122.996 -48.186  0.00  0.00     0.064 A 
ATOM      7  C   UNL d   1     -42.583-123.457 -47.610  0.00  0.00     0.039 A 
ATOM      8 BR   UNL d   1     -43.306-123.814 -47.754  0.00  0.00    -0.049 Br
ATOM      9  C   UNL d   1     -42.208-123.557 -46.881  0.00  0.00     0.007 A 
ATOM     10  C   UNL d   1     -41.475-123.198 -46.729  0.00  0.00     0.001 A 
ATOM     11  C   UNL d   1     -41.124-122.736 -47.321  0.00  0.00     0.000 A 
ATOM     12  C   UNL d   1     -41.495-122.635 -48.048  0.00  0.00     0.005 A 
ENDBRANCH   4   6
ENDBRANCH   1   3
BRANCH   1  13
ATOM     13  N   UNL d   1     -42.167-122.752 -50.977  0.00  0.00    -0.347 NA
BRANCH  13  14
ATOM     14  C   UNL d   1     -41.804-123.022 -51.670  0.00  0.00     0.248 A 
ATOM     15  N   UNL d   1     -41.785-122.625 -52.398  0.00  0.00    -0.210 NA
ATOM     16  C   UNL d   1     -41.365-123.098 -52.929  0.00  0.00     0.096 A 
ATOM     17  C   UNL d   1     -41.124-123.785 -52.531  0.00  0.00     0.059 A 
ATOM     18  S   UNL d   1     -41.398-123.731 -51.758  0.00  0.00    -0.033 SA
BRANCH  16  19
ATOM     19  C   UNL d   1     -41.209-122.921 -53.716  0.00  0.00     0.088 C 
BRANCH  19  20
ATOM     20  C   UNL d   1     -41.791-123.017 -54.294  0.00  0.00     0.302 C 
ATOM     21  O   UNL d   1     -42.047-123.777 -54.485  0.00  0.00    -0.259 OA
BRANCH  20  22
ATOM     22  O   UNL d   1     -42.113-122.365 -54.674  0.00  0.00    -0.271 OA
BRANCH  22  23
ATOM     23  C   UNL d   1     -42.076-122.313 -55.500  0.00  0.00     0.126 C 
ATOM     24  C   UNL d   1     -42.308-121.617 -55.871  0.00  0.00     0.029 C 
ENDBRANCH  22  23
ENDBRANCH  20  22
ENDBRANCH  19  20
ENDBRANCH  16  19
ENDBRANCH  13  14
ENDBRANCH   1  13
TORSDOF 8
ENDMDL
MODEL 2
REMARK VINA RESULT:      -1.4      1.882      5.769
REMARK  8 active torsions:
REMARK  status: ('A' for Active; 'I' for Inactive)
REMARK    1  A    between atoms: N_6  and  C_1 
REMARK       I    between atoms: C_2  and  N_3 
REMARK    2  A    between atoms: C_7  and  C_2 
REMARK    3  A    between atoms: N_3  and  C_4 
REMARK    4  A    between atoms: C_4  and  N_6 
REMARK    5  A    between atoms: C_10  and  C_8 
REMARK    6  A    between atoms: C_12  and  C_10 
REMARK    7  A    between atoms: O_18  and  C_12 
REMARK    8  A    between atoms: C_21  and  O_18 
ROOT
ATOM      1  C   UNL d   1     -41.843-121.845 -52.023  0.00  0.00     0.277 C 
ATOM      2  S   UNL d   1     -42.150-121.085 -51.921  0.00  0.00    -0.023 SA
ENDROOT
BRANCH   1   3
ATOM      3  N   UNL d   1     -41.593-122.081 -52.773  0.00  0.00    -0.168 NA
ATOM      4  C   UNL d   1     -42.134-122.146 -53.391  0.00  0.00     0.282 C 
ATOM      5  O   UNL d   1     -42.928-121.977 -53.267  0.00  0.00    -0.265 OA
BRANCH   4   6
ATOM      6  C   UNL d   1     -41.876-122.385 -54.143  0.00  0.00     0.064 A 
ATOM      7  C   UNL d   1     -42.063-121.930 -54.801  0.00  0.00     0.039 A 
ATOM      8 BR   UNL d   1     -42.503-121.244 -54.722  0.00  0.00    -0.049 Br
ATOM      9  C   UNL d   1     -41.803-122.174 -55.546  0.00  0.00     0.007 A 
ATOM     10  C   UNL d   1     -41.357-122.869 -55.632  0.00  0.00     0.001 A 
ATOM     11  C   UNL d   1     -41.176-123.317 -54.958  0.00  0.00     0.000 A 
ATOM     12  C   UNL d   1     -41.434-123.076 -54.215  0.00  0.00     0.005 A 
ENDBRANCH   4   6
ENDBRANCH   1   3
BRANCH   1  13
ATOM     13  N   UNL d   1     -41.787-122.357 -51.384  0.00  0.00    -0.347 NA
BRANCH  13  14
ATOM     14  C   UNL d   1     -41.730-122.872 -50.739  0.00  0.00     0.248 A 
ATOM     15  N   UNL d   1     -42.268-122.928 -50.109  0.00  0.00    -0.210 NA
ATOM     16  C   UNL d   1     -41.991-123.512 -49.596  0.00  0.00     0.096 A 
ATOM     17  C   UNL d   1     -41.283-123.817 -49.906  0.00  0.00     0.059 A 
ATOM     18  S   UNL d   1     -41.130-123.418 -50.608  0.00  0.00    -0.033 SA
BRANCH  16  19
ATOM     19  C   UNL d   1     -42.350-123.753 -48.898  0.00  0.00     0.088 C 
BRANCH  19  20
ATOM     20  C   UNL d   1     -42.439-123.229 -48.266  0.00  0.00     0.302 C 
ATOM     21  O   UNL d   1     -42.958-122.593 -48.339  0.00  0.00    -0.259 OA
BRANCH  20  22
ATOM     22  O   UNL d   1     -42.017-123.339 -47.571  0.00  0.00    -0.271 OA
BRANCH  22  23
ATOM     23  C   UNL d   1     -42.004-122.740 -47.000  0.00  0.00     0.126 C 
ATOM     24  C   UNL d   1     -41.285-122.507 -46.676  0.00  0.00     0.029 C 
ENDBRANCH  22  23
ENDBRANCH  20  22
ENDBRANCH  19  20
ENDBRANCH  16  19
ENDBRANCH  13  14
ENDBRANCH   1  13
TORSDOF 8
ENDMDL
MODEL 3
REMARK VINA RESULT:      -1.2      1.688      5.948
REMARK  8 active torsions:
REMARK  status: ('A' for Active; 'I' for Inactive)
REMARK    1  A    between atoms: N_6  and  C_1 
REMARK       I    between atoms: C_2  and  N_3 
REMARK    2  A    between atoms: C_7  and  C_2 
REMARK    3  A    between atoms: N_3  and  C_4 
REMARK    4  A    between atoms: C_4  and  N_6 
REMARK    5  A    between atoms: C_10  and  C_8 
REMARK    6  A    between atoms: C_12  and  C_10 
REMARK    7  A    between atoms: O_18  and  C_12 
REMARK    8  A    between atoms: C_21  and  O_18 
ROOT
ATOM      1  C   UNL d   1     -41.392-123.044 -52.678  0.00  0.00     0.277 C 
ATOM      2  S   UNL d   1     -41.123-123.816 -52.797  0.00  0.00    -0.023 SA
ENDROOT
BRANCH   1   3
ATOM      3  N   UNL d   1     -41.552-122.567 -53.332  0.00  0.00    -0.168 NA
ATOM      4  C   UNL d   1     -41.564-122.890 -54.090  0.00  0.00     0.282 C 
ATOM      5  O   UNL d   1     -41.417-123.689 -54.203  0.00  0.00    -0.265 OA
BRANCH   4   6
ATOM      6  C   UNL d   1     -41.726-122.404 -54.743  0.00  0.00     0.064 A 
ATOM      7  C   UNL d   1     -42.473-122.414 -55.084  0.00  0.00     0.039 A 
ATOM      8 BR   UNL d   1     -43.061-122.899 -54.784  0.00  0.00    -0.049 Br
ATOM      9  C   UNL d   1     -42.627-121.928 -55.734  0.00  0.00     0.007 A 
ATOM     10  C   UNL d   1     -42.035-121.434 -56.042  0.00  0.00     0.001 A 
ATOM     11  C   UNL d   1     -41.285-121.435 -55.687  0.00  0.00     0.000 A 
ATOM     12  C   UNL d   1     -41.130-121.918 -55.039  0.00  0.00     0.005 A 
ENDBRANCH   4   6
ENDBRANCH   1   3
BRANCH   1  13
ATOM     13  N   UNL d   1     -41.498-122.757 -51.916  0.00  0.00    -0.347 NA
BRANCH  13  14
ATOM     14  C   UNL d   1     -41.605-122.470 -51.148  0.00  0.00     0.248 A 
ATOM     15  N   UNL d   1     -41.670-122.928 -50.459  0.00  0.00    -0.210 NA
ATOM     16  C   UNL d   1     -41.770-122.411 -49.824  0.00  0.00     0.096 A 
ATOM     17  C   UNL d   1     -41.767-121.635 -50.117  0.00  0.00     0.059 A 
ATOM     18  S   UNL d   1     -41.665-121.679 -50.931  0.00  0.00    -0.033 SA
BRANCH  16  19
ATOM     19  C   UNL d   1     -41.857-122.625 -49.035  0.00  0.00     0.088 C 
BRANCH  19  20
ATOM     20  C   UNL d   1     -42.535-123.020 -48.777  0.00  0.00     0.302 C 
ATOM     21  O   UNL d   1     -43.276-122.738 -49.002  0.00  0.00    -0.259 OA
BRANCH  20  22
ATOM     22  O   UNL d   1     -42.474-123.686 -48.301  0.00  0.00    -0.271 OA
BRANCH  22  23
ATOM     23  C   UNL d   1     -42.305-123.599 -47.495  0.00  0.00     0.126 C 
ATOM     24  C   UNL d   1     -42.872-123.812 -46.939  0.00  0.00     0.029 C 
ENDBRANCH  22  23
ENDBRANCH  20  22
ENDBRANCH  19  20
ENDBRANCH  16  19
ENDBRANCH  13  14
ENDBRANCH   1  13
TORSDOF 8
ENDMDL
