MODEL 1
REMARK VINA RESULT:      -2.8      0.000      0.000
REMARK  3 active torsions:
REMARK  status: ('A' for Active; 'I' for Inactive)
REMARK    1  A    between atoms: N_6  and  C_1 
REMARK    2  A    between atoms: C_7  and  N_2 
REMARK    3  A    between atoms: C_8  and  N_6 
ROOT
ATOM      1  C   UNL d   1      31.665  17.311 -24.179  0.00  0.00     0.735 A 
ATOM      2  N   UNL d   1      31.314  16.561 -24.205  0.00  0.00    -0.139 N 
ATOM      3  N   UNL d   1      31.081  17.881 -24.319  0.00  0.00    -0.059 NA
ATOM      4  C   UNL d   1      30.510  16.665 -24.362  0.00  0.00     0.100 A 
ATOM      5  C   UNL d   1      30.370  17.483 -24.432  0.00  0.00     0.116 A 
ATOM      6  C   UNL d   1      29.889  16.131 -24.451  0.00  0.00     0.020 A 
ATOM      7  C   UNL d   1      29.604  17.750 -24.591  0.00  0.00     0.021 A 
ATOM      8  C   UNL d   1      29.131  16.403 -24.609  0.00  0.00     0.002 A 
ATOM      9  C   UNL d   1      28.983  17.217 -24.680  0.00  0.00     0.002 A 
ENDROOT
BRANCH   1  10
ATOM     10  N   UNL d   1      32.462  17.467 -24.036  0.00  0.00    -0.061 NA
BRANCH  10  11
ATOM     11  C   UNL d   1      32.721  18.238 -23.927  0.00  0.00     0.100 A 
ATOM     12  C   UNL d   1      32.731  18.554 -23.169  0.00  0.00     0.020 A 
ATOM     13  C   UNL d   1      32.989  19.327 -23.047  0.00  0.00     0.002 A 
ATOM     14  C   UNL d   1      33.241  19.789 -23.694  0.00  0.00     0.000 A 
ATOM     15  C   UNL d   1      33.228  19.464 -24.453  0.00  0.00     0.002 A 
ATOM     16  C   UNL d   1      32.970  18.695 -24.567  0.00  0.00     0.020 A 
ENDBRANCH  10  11
ENDBRANCH   1  10
BRANCH   2  17
ATOM     17  C   UNL d   1      31.699  15.842 -24.095  0.00  0.00     0.082 C 
ATOM     18  C   UNL d   1      31.692  15.481 -23.350  0.00  0.00     0.020 C 
ATOM     19  C   UNL d   1      32.091  15.477 -24.719  0.00  0.00     0.020 C 
ENDBRANCH   2  17
TORSDOF 3
ENDMDL
MODEL 2
REMARK VINA RESULT:      -2.6      1.101      3.477
REMARK  3 active torsions:
REMARK  status: ('A' for Active; 'I' for Inactive)
REMARK    1  A    between atoms: N_6  and  C_1 
REMARK    2  A    between atoms: C_7  and  N_2 
REMARK    3  A    between atoms: C_8  and  N_6 
ROOT
ATOM      1  C   UNL d   1      31.553  16.284 -23.888  0.00  0.00     0.735 A 
ATOM      2  N   UNL d   1      32.374  16.374 -23.949  0.00  0.00    -0.139 N 
ATOM      3  N   UNL d   1      31.204  17.035 -23.896  0.00  0.00    -0.059 NA
ATOM      4  C   UNL d   1      32.536  17.183 -23.994  0.00  0.00     0.100 A 
ATOM      5  C   UNL d   1      31.809  17.588 -23.961  0.00  0.00     0.116 A 
ATOM      6  C   UNL d   1      33.241  17.604 -24.061  0.00  0.00     0.020 A 
ATOM      7  C   UNL d   1      31.805  18.413 -23.996  0.00  0.00     0.021 A 
ATOM      8  C   UNL d   1      33.229  18.424 -24.095  0.00  0.00     0.002 A 
ATOM      9  C   UNL d   1      32.509  18.835 -24.063  0.00  0.00     0.002 A 
ENDROOT
BRANCH   1  10
ATOM     10  N   UNL d   1      31.148  15.568 -23.830  0.00  0.00    -0.061 NA
BRANCH  10  11
ATOM     11  C   UNL d   1      30.335  15.559 -23.712  0.00  0.00     0.100 A 
ATOM     12  C   UNL d   1      30.042  15.488 -22.949  0.00  0.00     0.020 A 
ATOM     13  C   UNL d   1      29.228  15.477 -22.818  0.00  0.00     0.002 A 
ATOM     14  C   UNL d   1      28.703  15.539 -23.462  0.00  0.00     0.000 A 
ATOM     15  C   UNL d   1      29.006  15.611 -24.227  0.00  0.00     0.002 A 
ATOM     16  C   UNL d   1      29.815  15.620 -24.349  0.00  0.00     0.020 A 
ENDBRANCH  10  11
ENDBRANCH   1  10
BRANCH   2  17
ATOM     17  C   UNL d   1      32.928  15.766 -23.961  0.00  0.00     0.082 C 
ATOM     18  C   UNL d   1      33.185  15.456 -24.685  0.00  0.00     0.020 C 
ATOM     19  C   UNL d   1      33.231  15.462 -23.260  0.00  0.00     0.020 C 
ENDBRANCH   2  17
TORSDOF 3
ENDMDL
MODEL 3
REMARK VINA RESULT:      -2.5      5.363      7.281
REMARK  3 active torsions:
REMARK  status: ('A' for Active; 'I' for Inactive)
REMARK    1  A    between atoms: N_6  and  C_1 
REMARK    2  A    between atoms: C_7  and  N_2 
REMARK    3  A    between atoms: C_8  and  N_6 
ROOT
ATOM      1  C   UNL d   1      32.594  22.895 -19.982  0.00  0.00     0.735 A 
ATOM      2  N   UNL d   1      32.498  22.778 -20.796  0.00  0.00    -0.139 N 
ATOM      3  N   UNL d   1      32.762  22.165 -19.628  0.00  0.00    -0.059 NA
ATOM      4  C   UNL d   1      32.606  21.974 -20.949  0.00  0.00     0.100 A 
ATOM      5  C   UNL d   1      32.769  21.598 -20.223  0.00  0.00     0.116 A 
ATOM      6  C   UNL d   1      32.578  21.533 -21.644  0.00  0.00     0.020 A 
ATOM      7  C   UNL d   1      32.902  20.783 -20.211  0.00  0.00     0.021 A 
ATOM      8  C   UNL d   1      32.711  20.724 -21.625  0.00  0.00     0.002 A 
ATOM      9  C   UNL d   1      32.874  20.342 -20.906  0.00  0.00     0.002 A 
ENDROOT
BRANCH   1  10
ATOM     10  N   UNL d   1      32.534  23.616 -19.586  0.00  0.00    -0.061 NA
BRANCH  10  11
ATOM     11  C   UNL d   1      32.533  23.642 -18.766  0.00  0.00     0.100 A 
ATOM     12  C   UNL d   1      31.817  23.639 -18.366  0.00  0.00     0.020 A 
ATOM     13  C   UNL d   1      31.803  23.664 -17.542  0.00  0.00     0.002 A 
ATOM     14  C   UNL d   1      32.518  23.692 -17.115  0.00  0.00     0.000 A 
ATOM     15  C   UNL d   1      33.235  23.695 -17.525  0.00  0.00     0.002 A 
ATOM     16  C   UNL d   1      33.241  23.670 -18.343  0.00  0.00     0.020 A 
ENDBRANCH  10  11
ENDBRANCH   1  10
BRANCH   2  17
ATOM     17  C   UNL d   1      32.326  23.359 -21.352  0.00  0.00     0.082 C 
ATOM     18  C   UNL d   1      32.937  23.702 -21.793  0.00  0.00     0.020 C 
ATOM     19  C   UNL d   1      31.550  23.605 -21.474  0.00  0.00     0.020 C 
ENDBRANCH   2  17
TORSDOF 3
ENDMDL
MODEL 4
REMARK VINA RESULT:      -1.4      1.816      2.575
REMARK  3 active torsions:
REMARK  status: ('A' for Active; 'I' for Inactive)
REMARK    1  A    between atoms: N_6  and  C_1 
REMARK    2  A    between atoms: C_7  and  N_2 
REMARK    3  A    between atoms: C_8  and  N_6 
ROOT
ATOM      1  C   UNL d   1      30.320  16.339 -24.101  0.00  0.00     0.735 A 
ATOM      2  N   UNL d   1      29.529  16.413 -23.869  0.00  0.00    -0.139 N 
ATOM      3  N   UNL d   1      30.509  16.973 -24.599  0.00  0.00    -0.059 NA
ATOM      4  C   UNL d   1      29.224  17.094 -24.223  0.00  0.00     0.100 A 
ATOM      5  C   UNL d   1      29.835  17.437 -24.674  0.00  0.00     0.116 A 
ATOM      6  C   UNL d   1      28.480  17.447 -24.199  0.00  0.00     0.020 A 
ATOM      7  C   UNL d   1      29.684  18.133 -25.094  0.00  0.00     0.021 A 
ATOM      8  C   UNL d   1      28.339  18.138 -24.618  0.00  0.00     0.002 A 
ATOM      9  C   UNL d   1      28.941  18.487 -25.070  0.00  0.00     0.002 A 
ENDROOT
BRANCH   1  10
ATOM     10  N   UNL d   1      30.836  15.737 -23.875  0.00  0.00    -0.061 NA
BRANCH  10  11
ATOM     11  C   UNL d   1      31.635  15.783 -24.060  0.00  0.00     0.100 A 
ATOM     12  C   UNL d   1      31.905  15.453 -24.760  0.00  0.00     0.020 A 
ATOM     13  C   UNL d   1      32.704  15.493 -24.956  0.00  0.00     0.002 A 
ATOM     14  C   UNL d   1      33.240  15.871 -24.441  0.00  0.00     0.000 A 
ATOM     15  C   UNL d   1      32.961  16.202 -23.737  0.00  0.00     0.002 A 
ATOM     16  C   UNL d   1      32.165  16.158 -23.550  0.00  0.00     0.020 A 
ENDBRANCH  10  11
ENDBRANCH   1  10
BRANCH   2  17
ATOM     17  C   UNL d   1      29.119  15.899 -23.374  0.00  0.00     0.082 C 
ATOM     18  C   UNL d   1      29.340  15.828 -22.579  0.00  0.00     0.020 C 
ATOM     19  C   UNL d   1      28.490  15.453 -23.661  0.00  0.00     0.020 C 
ENDBRANCH   2  17
TORSDOF 3
ENDMDL
MODEL 5
REMARK VINA RESULT:      -0.5      2.206      4.734
REMARK  3 active torsions:
REMARK  status: ('A' for Active; 'I' for Inactive)
REMARK    1  A    between atoms: N_6  and  C_1 
REMARK    2  A    between atoms: C_7  and  N_2 
REMARK    3  A    between atoms: C_8  and  N_6 
ROOT
ATOM      1  C   UNL d   1      32.904  20.151 -22.647  0.00  0.00     0.735 A 
ATOM      2  N   UNL d   1      32.856  20.745 -22.072  0.00  0.00    -0.139 N 
ATOM      3  N   UNL d   1      33.051  20.504 -23.381  0.00  0.00    -0.059 NA
ATOM      4  C   UNL d   1      32.973  21.470 -22.450  0.00  0.00     0.100 A 
ATOM      5  C   UNL d   1      33.093  21.316 -23.259  0.00  0.00     0.116 A 
ATOM      6  C   UNL d   1      32.987  22.245 -22.170  0.00  0.00     0.020 A 
ATOM      7  C   UNL d   1      33.226  21.948 -23.775  0.00  0.00     0.021 A 
ATOM      8  C   UNL d   1      33.119  22.867 -22.688  0.00  0.00     0.002 A 
ATOM      9  C   UNL d   1      33.240  22.723 -23.496  0.00  0.00     0.002 A 
ENDROOT
BRANCH   1  10
ATOM     10  N   UNL d   1      32.820  19.341 -22.514  0.00  0.00    -0.061 NA
BRANCH  10  11
ATOM     11  C   UNL d   1      32.648  18.833 -23.136  0.00  0.00     0.100 A 
ATOM     12  C   UNL d   1      31.877  18.575 -23.240  0.00  0.00     0.020 A 
ATOM     13  C   UNL d   1      31.692  18.064 -23.861  0.00  0.00     0.002 A 
ATOM     14  C   UNL d   1      32.291  17.811 -24.383  0.00  0.00     0.000 A 
ATOM     15  C   UNL d   1      33.065  18.075 -24.271  0.00  0.00     0.002 A 
ATOM     16  C   UNL d   1      33.241  18.582 -23.652  0.00  0.00     0.020 A 
ENDBRANCH  10  11
ENDBRANCH   1  10
BRANCH   2  17
ATOM     17  C   UNL d   1      32.716  20.632 -21.269  0.00  0.00     0.082 C 
ATOM     18  C   UNL d   1      32.044  20.963 -20.916  0.00  0.00     0.020 C 
ATOM     19  C   UNL d   1      33.240  20.191 -20.811  0.00  0.00     0.020 C 
ENDBRANCH   2  17
TORSDOF 3
ENDMDL
MODEL 6
REMARK VINA RESULT:      -0.0      1.779      3.006
REMARK  3 active torsions:
REMARK  status: ('A' for Active; 'I' for Inactive)
REMARK    1  A    between atoms: N_6  and  C_1 
REMARK    2  A    between atoms: C_7  and  N_2 
REMARK    3  A    between atoms: C_8  and  N_6 
ROOT
ATOM      1  C   UNL d   1      32.817  18.881 -23.245  0.00  0.00     0.735 A 
ATOM      2  N   UNL d   1      32.653  18.516 -23.970  0.00  0.00    -0.139 N 
ATOM      3  N   UNL d   1      32.858  18.297 -22.659  0.00  0.00    -0.059 NA
ATOM      4  C   UNL d   1      32.592  17.704 -23.835  0.00  0.00     0.100 A 
ATOM      5  C   UNL d   1      32.719  17.573 -23.022  0.00  0.00     0.116 A 
ATOM      6  C   UNL d   1      32.438  17.068 -24.336  0.00  0.00     0.020 A 
ATOM      7  C   UNL d   1      32.689  16.802 -22.727  0.00  0.00     0.021 A 
ATOM      8  C   UNL d   1      32.411  16.305 -24.036  0.00  0.00     0.002 A 
ATOM      9  C   UNL d   1      32.536  16.166 -23.228  0.00  0.00     0.002 A 
ENDROOT
BRANCH   1  10
ATOM     10  N   UNL d   1      32.923  19.690 -23.123  0.00  0.00    -0.061 NA
BRANCH  10  11
ATOM     11  C   UNL d   1      32.872  20.007 -22.368  0.00  0.00     0.100 A 
ATOM     12  C   UNL d   1      32.449  20.700 -22.252  0.00  0.00     0.020 A 
ATOM     13  C   UNL d   1      32.390  21.028 -21.497  0.00  0.00     0.002 A 
ATOM     14  C   UNL d   1      32.762  20.654 -20.852  0.00  0.00     0.000 A 
ATOM     15  C   UNL d   1      33.187  19.956 -20.977  0.00  0.00     0.002 A 
ATOM     16  C   UNL d   1      33.240  19.637 -21.729  0.00  0.00     0.020 A 
ENDBRANCH  10  11
ENDBRANCH   1  10
BRANCH   2  17
ATOM     17  C   UNL d   1      32.568  18.896 -24.695  0.00  0.00     0.082 C 
ATOM     18  C   UNL d   1      31.814  18.987 -25.027  0.00  0.00     0.020 C 
ATOM     19  C   UNL d   1      33.225  19.187 -25.095  0.00  0.00     0.020 C 
ENDBRANCH   2  17
TORSDOF 3
ENDMDL
