MODEL 1
REMARK VINA RESULT:      -2.2      0.000      0.000
REMARK  6 active torsions:
REMARK  status: ('A' for Active; 'I' for Inactive)
REMARK    1  A    between atoms: C_5  and  N_1 
REMARK    2  A    between atoms: C_8  and  C_2 
REMARK    3  A    between atoms: C_3  and  O_4 
REMARK    4  A    between atoms: O_4  and  C_9 
REMARK    5  A    between atoms: C_7  and  C_5 
REMARK    6  A    between atoms: C_9  and  C_7 
ROOT
ATOM      1  O   UNL d   1      32.031  17.341 -23.969  0.00  0.00    -0.302 OA
ENDROOT
BRANCH   1   2
ATOM      2  C   UNL d   1      31.296  17.000 -24.096  0.00  0.00     0.100 A 
ATOM      3  C   UNL d   1      31.222  16.179 -24.129  0.00  0.00     0.023 A 
ATOM      4  C   UNL d   1      30.486  15.837 -24.256  0.00  0.00     0.002 A 
ATOM      5  C   UNL d   1      29.818  16.315 -24.352  0.00  0.00     0.000 A 
ATOM      6  C   UNL d   1      29.889  17.133 -24.319  0.00  0.00     0.002 A 
ATOM      7  C   UNL d   1      30.628  17.478 -24.191  0.00  0.00     0.025 A 
BRANCH   3   8
ATOM      8  C   UNL d   1      31.886  15.703 -24.034  0.00  0.00     0.002 C 
ATOM      9  C   UNL d   1      32.113  15.458 -23.280  0.00  0.00     0.000 C 
ATOM     10  C   UNL d   1      32.325  15.472 -24.690  0.00  0.00     0.000 C 
ENDBRANCH   3   8
ENDBRANCH   1   2
BRANCH   1  11
ATOM     11  C   UNL d   1      32.079  18.126 -23.724  0.00  0.00     0.166 C 
BRANCH  11  12
ATOM     12  C   UNL d   1      32.800  18.530 -23.769  0.00  0.00     0.238 C 
ATOM     13  O   UNL d   1      33.117  18.720 -24.505  0.00  0.00    -0.283 OA
BRANCH  12  14
ATOM     14  C   UNL d   1      33.199  18.741 -23.083  0.00  0.00     0.125 C 
BRANCH  14  15
ATOM     15  N   UNL d   1      33.120  19.502 -22.776  0.00  0.00    -0.296 N 
ATOM     16  C   UNL d   1      33.241  20.156 -23.267  0.00  0.00     0.107 A 
ATOM     17  C   UNL d   1      33.162  20.915 -22.964  0.00  0.00     0.142 A 
ATOM     18  O   UNL d   1      32.962  21.023 -22.170  0.00  0.00    -0.300 OA
ATOM     19  C   UNL d   1      32.843  20.370 -21.684  0.00  0.00     0.142 A 
ATOM     20  C   UNL d   1      32.922  19.606 -21.989  0.00  0.00     0.107 A 
ENDBRANCH  14  15
ENDBRANCH  12  14
ENDBRANCH  11  12
ENDBRANCH   1  11
TORSDOF 6
ENDMDL
MODEL 2
REMARK VINA RESULT:      -1.7      1.251      4.811
REMARK  6 active torsions:
REMARK  status: ('A' for Active; 'I' for Inactive)
REMARK    1  A    between atoms: C_5  and  N_1 
REMARK    2  A    between atoms: C_8  and  C_2 
REMARK    3  A    between atoms: C_3  and  O_4 
REMARK    4  A    between atoms: O_4  and  C_9 
REMARK    5  A    between atoms: C_7  and  C_5 
REMARK    6  A    between atoms: C_9  and  C_7 
ROOT
ATOM      1  O   UNL d   1      32.938  20.274 -22.456  0.00  0.00    -0.302 OA
ENDROOT
BRANCH   1   2
ATOM      2  C   UNL d   1      32.990  21.093 -22.486  0.00  0.00     0.100 A 
ATOM      3  C   UNL d   1      32.845  21.541 -21.809  0.00  0.00     0.023 A 
ATOM      4  C   UNL d   1      32.897  22.360 -21.838  0.00  0.00     0.002 A 
ATOM      5  C   UNL d   1      33.096  22.737 -22.547  0.00  0.00     0.000 A 
ATOM      6  C   UNL d   1      33.241  22.292 -23.223  0.00  0.00     0.002 A 
ATOM      7  C   UNL d   1      33.189  21.469 -23.194  0.00  0.00     0.025 A 
BRANCH   3   8
ATOM      8  C   UNL d   1      32.648  21.166 -21.103  0.00  0.00     0.002 C 
ATOM      9  C   UNL d   1      33.241  20.852 -20.623  0.00  0.00     0.000 C 
ATOM     10  C   UNL d   1      31.860  21.103 -20.876  0.00  0.00     0.000 C 
ENDBRANCH   3   8
ENDBRANCH   1   2
BRANCH   1  11
ATOM     11  C   UNL d   1      32.939  19.840 -23.155  0.00  0.00     0.166 C 
BRANCH  11  12
ATOM     12  C   UNL d   1      33.007  19.015 -23.130  0.00  0.00     0.238 C 
ATOM     13  O   UNL d   1      32.910  18.619 -22.415  0.00  0.00    -0.283 OA
BRANCH  12  14
ATOM     14  C   UNL d   1      33.171  18.593 -23.815  0.00  0.00     0.125 C 
BRANCH  14  15
ATOM     15  N   UNL d   1      32.711  17.940 -24.018  0.00  0.00    -0.296 N 
ATOM     16  C   UNL d   1      33.020  17.178 -23.926  0.00  0.00     0.107 A 
ATOM     17  C   UNL d   1      32.564  16.525 -24.127  0.00  0.00     0.142 A 
ATOM     18  O   UNL d   1      31.800  16.631 -24.421  0.00  0.00    -0.300 OA
ATOM     19  C   UNL d   1      31.496  17.390 -24.511  0.00  0.00     0.142 A 
ATOM     20  C   UNL d   1      31.954  18.048 -24.308  0.00  0.00     0.107 A 
ENDBRANCH  14  15
ENDBRANCH  12  14
ENDBRANCH  11  12
ENDBRANCH   1  11
TORSDOF 6
ENDMDL
MODEL 3
REMARK VINA RESULT:      -1.5      2.060      5.745
REMARK  6 active torsions:
REMARK  status: ('A' for Active; 'I' for Inactive)
REMARK    1  A    between atoms: C_5  and  N_1 
REMARK    2  A    between atoms: C_8  and  C_2 
REMARK    3  A    between atoms: C_3  and  O_4 
REMARK    4  A    between atoms: O_4  and  C_9 
REMARK    5  A    between atoms: C_7  and  C_5 
REMARK    6  A    between atoms: C_9  and  C_7 
ROOT
ATOM      1  O   UNL d   1      32.589  21.705 -21.331  0.00  0.00    -0.302 OA
ENDROOT
BRANCH   1   2
ATOM      2  C   UNL d   1      32.686  22.301 -20.775  0.00  0.00     0.100 A 
ATOM      3  C   UNL d   1      32.620  23.091 -21.001  0.00  0.00     0.023 A 
ATOM      4  C   UNL d   1      32.716  23.688 -20.445  0.00  0.00     0.002 A 
ATOM      5  C   UNL d   1      32.880  23.497 -19.657  0.00  0.00     0.000 A 
ATOM      6  C   UNL d   1      32.947  22.710 -19.429  0.00  0.00     0.002 A 
ATOM      7  C   UNL d   1      32.850  22.110 -19.987  0.00  0.00     0.025 A 
BRANCH   3   8
ATOM      8  C   UNL d   1      32.457  23.281 -21.785  0.00  0.00     0.002 C 
ATOM      9  C   UNL d   1      31.697  23.520 -22.002  0.00  0.00     0.000 C 
ATOM     10  C   UNL d   1      33.049  23.234 -22.352  0.00  0.00     0.000 C 
ENDBRANCH   3   8
ENDBRANCH   1   2
BRANCH   1  11
ATOM     11  C   UNL d   1      32.972  20.984 -21.226  0.00  0.00     0.166 C 
BRANCH  11  12
ATOM     12  C   UNL d   1      32.704  20.311 -21.627  0.00  0.00     0.238 C 
ATOM     13  O   UNL d   1      31.898  20.153 -21.667  0.00  0.00    -0.283 OA
BRANCH  12  14
ATOM     14  C   UNL d   1      33.241  19.802 -21.984  0.00  0.00     0.125 C 
BRANCH  14  15
ATOM     15  N   UNL d   1      33.061  19.456 -22.711  0.00  0.00    -0.296 N 
ATOM     16  C   UNL d   1      32.700  18.713 -22.732  0.00  0.00     0.107 A 
ATOM     17  C   UNL d   1      32.520  18.366 -23.455  0.00  0.00     0.142 A 
ATOM     18  O   UNL d   1      32.700  18.760 -24.157  0.00  0.00    -0.300 OA
ATOM     19  C   UNL d   1      33.060  19.500 -24.133  0.00  0.00     0.142 A 
ATOM     20  C   UNL d   1      33.241  19.850 -23.405  0.00  0.00     0.107 A 
ENDBRANCH  14  15
ENDBRANCH  12  14
ENDBRANCH  11  12
ENDBRANCH   1  11
TORSDOF 6
ENDMDL
MODEL 4
REMARK VINA RESULT:      -0.9      1.505      5.142
REMARK  6 active torsions:
REMARK  status: ('A' for Active; 'I' for Inactive)
REMARK    1  A    between atoms: C_5  and  N_1 
REMARK    2  A    between atoms: C_8  and  C_2 
REMARK    3  A    between atoms: C_3  and  O_4 
REMARK    4  A    between atoms: O_4  and  C_9 
REMARK    5  A    between atoms: C_7  and  C_5 
REMARK    6  A    between atoms: C_9  and  C_7 
ROOT
ATOM      1  O   UNL d   1      32.989  20.925 -22.028  0.00  0.00    -0.302 OA
ENDROOT
BRANCH   1   2
ATOM      2  C   UNL d   1      33.017  21.273 -21.285  0.00  0.00     0.100 A 
ATOM      3  C   UNL d   1      32.851  22.076 -21.199  0.00  0.00     0.023 A 
ATOM      4  C   UNL d   1      32.879  22.425 -20.456  0.00  0.00     0.002 A 
ATOM      5  C   UNL d   1      33.075  21.971 -19.793  0.00  0.00     0.000 A 
ATOM      6  C   UNL d   1      33.241  21.170 -19.876  0.00  0.00     0.002 A 
ATOM      7  C   UNL d   1      33.212  20.819 -20.622  0.00  0.00     0.025 A 
BRANCH   3   8
ATOM      8  C   UNL d   1      32.657  22.528 -21.859  0.00  0.00     0.002 C 
ATOM      9  C   UNL d   1      31.876  22.767 -21.980  0.00  0.00     0.000 C 
ATOM     10  C   UNL d   1      33.239  22.742 -22.398  0.00  0.00     0.000 C 
ENDBRANCH   3   8
ENDBRANCH   1   2
BRANCH   1  11
ATOM     11  C   UNL d   1      33.239  20.147 -22.123  0.00  0.00     0.166 C 
BRANCH  11  12
ATOM     12  C   UNL d   1      33.177  19.779 -22.863  0.00  0.00     0.238 C 
ATOM     13  O   UNL d   1      33.056  20.236 -23.536  0.00  0.00    -0.283 OA
BRANCH  12  14
ATOM     14  C   UNL d   1      33.236  18.963 -22.925  0.00  0.00     0.125 C 
BRANCH  14  15
ATOM     15  N   UNL d   1      32.761  18.554 -23.461  0.00  0.00    -0.296 N 
ATOM     16  C   UNL d   1      33.020  18.451 -24.240  0.00  0.00     0.107 A 
ATOM     17  C   UNL d   1      32.549  18.043 -24.776  0.00  0.00     0.142 A 
ATOM     18  O   UNL d   1      31.820  17.739 -24.536  0.00  0.00    -0.300 OA
ATOM     19  C   UNL d   1      31.566  17.844 -23.761  0.00  0.00     0.142 A 
ATOM     20  C   UNL d   1      32.040  18.253 -23.221  0.00  0.00     0.107 A 
ENDBRANCH  14  15
ENDBRANCH  12  14
ENDBRANCH  11  12
ENDBRANCH   1  11
TORSDOF 6
ENDMDL
MODEL 5
REMARK VINA RESULT:      -0.4      2.411      4.463
REMARK  6 active torsions:
REMARK  status: ('A' for Active; 'I' for Inactive)
REMARK    1  A    between atoms: C_5  and  N_1 
REMARK    2  A    between atoms: C_8  and  C_2 
REMARK    3  A    between atoms: C_3  and  O_4 
REMARK    4  A    between atoms: O_4  and  C_9 
REMARK    5  A    between atoms: C_7  and  C_5 
REMARK    6  A    between atoms: C_9  and  C_7 
ROOT
ATOM      1  O   UNL d   1      31.371  16.406 -23.902  0.00  0.00    -0.302 OA
ENDROOT
BRANCH   1   2
ATOM      2  C   UNL d   1      31.868  17.033 -24.082  0.00  0.00     0.100 A 
ATOM      3  C   UNL d   1      32.684  16.953 -23.989  0.00  0.00     0.023 A 
ATOM      4  C   UNL d   1      33.182  17.581 -24.169  0.00  0.00     0.002 A 
ATOM      5  C   UNL d   1      32.866  18.294 -24.443  0.00  0.00     0.000 A 
ATOM      6  C   UNL d   1      32.054  18.377 -24.536  0.00  0.00     0.002 A 
ATOM      7  C   UNL d   1      31.552  17.747 -24.356  0.00  0.00     0.025 A 
BRANCH   3   8
ATOM      8  C   UNL d   1      32.998  16.243 -23.717  0.00  0.00     0.002 C 
ATOM      9  C   UNL d   1      33.162  16.146 -22.914  0.00  0.00     0.000 C 
ATOM     10  C   UNL d   1      33.147  15.630 -24.243  0.00  0.00     0.000 C 
ENDBRANCH   3   8
ENDBRANCH   1   2
BRANCH   1  11
ATOM     11  C   UNL d   1      30.556  16.498 -23.974  0.00  0.00     0.166 C 
BRANCH  11  12
ATOM     12  C   UNL d   1      30.072  15.835 -24.077  0.00  0.00     0.238 C 
ATOM     13  O   UNL d   1      30.037  15.465 -24.812  0.00  0.00    -0.283 OA
BRANCH  12  14
ATOM     14  C   UNL d   1      29.627  15.546 -23.450  0.00  0.00     0.125 C 
BRANCH  14  15
ATOM     15  N   UNL d   1      28.803  15.561 -23.487  0.00  0.00    -0.296 N 
ATOM     16  C   UNL d   1      28.428  15.685 -24.213  0.00  0.00     0.107 A 
ATOM     17  C   UNL d   1      27.607  15.700 -24.252  0.00  0.00     0.142 A 
ATOM     18  O   UNL d   1      27.160  15.592 -23.567  0.00  0.00    -0.300 OA
ATOM     19  C   UNL d   1      27.537  15.468 -22.846  0.00  0.00     0.142 A 
ATOM     20  C   UNL d   1      28.363  15.453 -22.806  0.00  0.00     0.107 A 
ENDBRANCH  14  15
ENDBRANCH  12  14
ENDBRANCH  11  12
ENDBRANCH   1  11
TORSDOF 6
ENDMDL
