MODEL 1
REMARK VINA RESULT:      63.6      0.000      0.000
REMARK  9 active torsions:
REMARK  status: ('A' for Active; 'I' for Inactive)
REMARK    1  A    between atoms: C_17  and  N_4 
REMARK    2  A    between atoms: S_16  and  C_7 
REMARK    3  A    between atoms: S_15  and  C_8 
REMARK    4  A    between atoms: C_10  and  C_19 
REMARK    5  A    between atoms: C_22  and  S_15 
REMARK    6  A    between atoms: C_19  and  S_16 
REMARK    7  A    between atoms: C_20  and  C_22 
REMARK    8  A    between atoms: O_24  and  C_20 
REMARK    9  A    between atoms: C_28  and  O_24 
ROOT
ATOM      1  N   UNL d   1      46.021 -17.904  42.348  0.00  0.00    -0.269 N 
ATOM      2  C   UNL d   1      46.176 -17.330  42.904  0.00  0.00     0.201 A 
ATOM      3  C   UNL d   1      45.914 -17.561  41.589  0.00  0.00     0.177 A 
ATOM      4  N   UNL d   1      46.173 -16.609  42.514  0.00  0.00    -0.121 NA
ATOM      5  N   UNL d   1      46.013 -16.738  41.707  0.00  0.00    -0.127 NA
ENDROOT
BRANCH   3   6
ATOM      6  C   UNL d   1      45.751 -18.007  40.925  0.00  0.00     0.078 C 
BRANCH   6   7
ATOM      7  S   UNL d   1      46.181 -17.886  40.236  0.00  0.00    -0.045 SA
BRANCH   7   8
ATOM      8  C   UNL d   1      45.834 -17.492  39.591  0.00  0.00     0.198 A 
ATOM      9  N   UNL d   1      45.029 -17.661  39.334  0.00  0.00    -0.183 NA
ATOM     10  C   UNL d   1      44.689 -17.267  38.693  0.00  0.00     0.283 A 
ATOM     11  C   UNL d   1      45.138 -16.685  38.280  0.00  0.00     0.082 A 
ATOM     12  O   UNL d   1      43.913 -17.436  38.451  0.00  0.00    -0.265 OA
ATOM     13  C   UNL d   1      45.923 -16.518  38.529  0.00  0.00     0.117 A 
ATOM     14  C   UNL d   1      44.951 -16.206  37.627  0.00  0.00     0.013 A 
ATOM     15  N   UNL d   1      46.265 -16.914  39.173  0.00  0.00    -0.214 NA
ATOM     16  S   UNL d   1      46.206 -15.928  38.013  0.00  0.00    -0.068 SA
ATOM     17  C   UNL d   1      45.601 -15.740  37.459  0.00  0.00     0.031 A 
ATOM     18  C   UNL d   1      45.619 -15.192  36.843  0.00  0.00     0.006 A 
ATOM     19  C   UNL d   1      44.929 -15.113  36.366  0.00  0.00     0.001 A 
ATOM     20  C   UNL d   1      44.264 -15.589  36.537  0.00  0.00     0.000 A 
ATOM     21  C   UNL d   1      44.275 -16.135  37.168  0.00  0.00     0.001 A 
ENDBRANCH   7   8
ENDBRANCH   6   7
ENDBRANCH   3   6
BRANCH   1  22
ATOM     22  C   UNL d   1      45.976 -18.717  42.524  0.00  0.00     0.067 A 
ATOM     23  C   UNL d   1      46.646 -19.196  42.438  0.00  0.00     0.018 A 
ATOM     24  C   UNL d   1      46.607 -19.993  42.610  0.00  0.00     0.002 A 
ATOM     25  C   UNL d   1      45.903 -20.329  42.871  0.00  0.00     0.000 A 
ATOM     26  C   UNL d   1      45.240 -19.871  42.960  0.00  0.00     0.002 A 
ATOM     27  C   UNL d   1      45.276 -19.061  42.786  0.00  0.00     0.018 A 
ENDBRANCH   1  22
BRANCH   2  28
ATOM     28  S   UNL d   1      46.314 -17.438  43.713  0.00  0.00    -0.042 SA
BRANCH  28  29
ATOM     29  C   UNL d   1      46.274 -16.814  44.218  0.00  0.00     0.107 C 
BRANCH  29  30
ATOM     30  C   UNL d   1      45.557 -16.586  44.547  0.00  0.00     0.307 C 
ATOM     31  O   UNL d   1      45.093 -17.146  44.939  0.00  0.00    -0.258 OA
BRANCH  30  32
ATOM     32  O   UNL d   1      45.282 -15.818  44.499  0.00  0.00    -0.271 OA
BRANCH  32  33
ATOM     33  C   UNL d   1      45.610 -15.205  44.920  0.00  0.00     0.126 C 
ATOM     34  C   UNL d   1      45.297 -14.476  44.949  0.00  0.00     0.029 C 
ENDBRANCH  32  33
ENDBRANCH  30  32
ENDBRANCH  29  30
ENDBRANCH  28  29
ENDBRANCH   2  28
TORSDOF 9
ENDMDL
MODEL 2
REMARK VINA RESULT:      63.7      1.879      5.955
REMARK  9 active torsions:
REMARK  status: ('A' for Active; 'I' for Inactive)
REMARK    1  A    between atoms: C_17  and  N_4 
REMARK    2  A    between atoms: S_16  and  C_7 
REMARK    3  A    between atoms: S_15  and  C_8 
REMARK    4  A    between atoms: C_10  and  C_19 
REMARK    5  A    between atoms: C_22  and  S_15 
REMARK    6  A    between atoms: C_19  and  S_16 
REMARK    7  A    between atoms: C_20  and  C_22 
REMARK    8  A    between atoms: O_24  and  C_20 
REMARK    9  A    between atoms: C_28  and  O_24 
ROOT
ATOM      1  N   UNL d   1      44.959 -16.141  37.725  0.00  0.00    -0.269 N 
ATOM      2  C   UNL d   1      45.505 -15.757  37.260  0.00  0.00     0.201 A 
ATOM      3  C   UNL d   1      45.340 -16.639  38.281  0.00  0.00     0.177 A 
ATOM      4  N   UNL d   1      46.248 -16.001  37.508  0.00  0.00    -0.121 NA
ATOM      5  N   UNL d   1      46.159 -16.543  38.134  0.00  0.00    -0.127 NA
ENDROOT
BRANCH   3   6
ATOM      6  C   UNL d   1      44.927 -17.093  38.821  0.00  0.00     0.078 C 
BRANCH   6   7
ATOM      7  S   UNL d   1      45.210 -17.834  39.033  0.00  0.00    -0.045 SA
BRANCH   7   8
ATOM      8  C   UNL d   1      45.347 -18.016  39.832  0.00  0.00     0.198 A 
ATOM      9  N   UNL d   1      45.036 -17.526  40.470  0.00  0.00    -0.183 NA
ATOM     10  C   UNL d   1      45.174 -17.710  41.263  0.00  0.00     0.283 A 
ATOM     11  C   UNL d   1      45.629 -18.393  41.455  0.00  0.00     0.082 A 
ATOM     12  O   UNL d   1      44.871 -17.234  41.872  0.00  0.00    -0.265 OA
ATOM     13  C   UNL d   1      45.934 -18.873  40.835  0.00  0.00     0.117 A 
ATOM     14  C   UNL d   1      45.858 -18.716  42.186  0.00  0.00     0.013 A 
ATOM     15  N   UNL d   1      45.795 -18.687  40.038  0.00  0.00    -0.214 NA
ATOM     16  S   UNL d   1      46.350 -19.491  41.207  0.00  0.00    -0.068 SA
ATOM     17  C   UNL d   1      46.299 -19.388  42.041  0.00  0.00     0.031 A 
ATOM     18  C   UNL d   1      46.621 -19.857  42.638  0.00  0.00     0.006 A 
ATOM     19  C   UNL d   1      46.485 -19.626  43.437  0.00  0.00     0.001 A 
ATOM     20  C   UNL d   1      46.033 -18.939  43.586  0.00  0.00     0.000 A 
ATOM     21  C   UNL d   1      45.720 -18.484  42.961  0.00  0.00     0.001 A 
ENDBRANCH   7   8
ENDBRANCH   6   7
ENDBRANCH   3   6
BRANCH   1  22
ATOM     22  C   UNL d   1      44.135 -16.041  37.647  0.00  0.00     0.067 A 
ATOM     23  C   UNL d   1      43.672 -15.882  38.315  0.00  0.00     0.018 A 
ATOM     24  C   UNL d   1      42.865 -15.783  38.242  0.00  0.00     0.002 A 
ATOM     25  C   UNL d   1      42.503 -15.840  37.506  0.00  0.00     0.000 A 
ATOM     26  C   UNL d   1      42.944 -15.995  36.844  0.00  0.00     0.002 A 
ATOM     27  C   UNL d   1      43.765 -16.096  36.913  0.00  0.00     0.018 A 
ENDBRANCH   1  22
BRANCH   2  28
ATOM     28  S   UNL d   1      45.355 -15.219  36.648  0.00  0.00    -0.042 SA
BRANCH  28  29
ATOM     29  C   UNL d   1      45.893 -14.649  36.469  0.00  0.00     0.107 C 
BRANCH  29  30
ATOM     30  C   UNL d   1      45.935 -13.958  36.912  0.00  0.00     0.307 C 
ATOM     31  O   UNL d   1      46.604 -13.478  36.853  0.00  0.00    -0.258 OA
BRANCH  30  32
ATOM     32  O   UNL d   1      45.331 -13.726  37.412  0.00  0.00    -0.271 OA
BRANCH  32  33
ATOM     33  C   UNL d   1      45.224 -12.956  37.646  0.00  0.00     0.126 C 
ATOM     34  C   UNL d   1      44.592 -12.707  38.057  0.00  0.00     0.029 C 
ENDBRANCH  32  33
ENDBRANCH  30  32
ENDBRANCH  29  30
ENDBRANCH  28  29
ENDBRANCH   2  28
TORSDOF 9
ENDMDL
MODEL 3
REMARK VINA RESULT:      65.4      4.468      6.993
REMARK  9 active torsions:
REMARK  status: ('A' for Active; 'I' for Inactive)
REMARK    1  A    between atoms: C_17  and  N_4 
REMARK    2  A    between atoms: S_16  and  C_7 
REMARK    3  A    between atoms: S_15  and  C_8 
REMARK    4  A    between atoms: C_10  and  C_19 
REMARK    5  A    between atoms: C_22  and  S_15 
REMARK    6  A    between atoms: C_19  and  S_16 
REMARK    7  A    between atoms: C_20  and  C_22 
REMARK    8  A    between atoms: O_24  and  C_20 
REMARK    9  A    between atoms: C_28  and  O_24 
ROOT
ATOM      1  N   UNL d   1      44.361 -14.335  37.700  0.00  0.00    -0.269 N 
ATOM      2  C   UNL d   1      43.682 -14.608  37.343  0.00  0.00     0.201 A 
ATOM      3  C   UNL d   1      44.178 -13.892  38.388  0.00  0.00     0.177 A 
ATOM      4  N   UNL d   1      43.050 -14.345  37.795  0.00  0.00    -0.121 NA
ATOM      5  N   UNL d   1      43.342 -13.905  38.438  0.00  0.00    -0.127 NA
ENDROOT
BRANCH   3   6
ATOM      6  C   UNL d   1      44.753 -13.552  38.858  0.00  0.00     0.078 C 
BRANCH   6   7
ATOM      7  S   UNL d   1      44.601 -12.839  39.237  0.00  0.00    -0.045 SA
BRANCH   7   8
ATOM      8  C   UNL d   1      44.820 -12.734  40.031  0.00  0.00     0.198 A 
ATOM      9  N   UNL d   1      45.640 -12.796  40.290  0.00  0.00    -0.183 NA
ATOM     10  C   UNL d   1      45.853 -12.691  41.081  0.00  0.00     0.283 A 
ATOM     11  C   UNL d   1      45.255 -12.520  41.650  0.00  0.00     0.082 A 
ATOM     12  O   UNL d   1      46.645 -12.753  41.322  0.00  0.00    -0.265 OA
ATOM     13  C   UNL d   1      44.455 -12.459  41.401  0.00  0.00     0.117 A 
ATOM     14  C   UNL d   1      45.296 -12.388  42.470  0.00  0.00     0.013 A 
ATOM     15  N   UNL d   1      44.241 -12.564  40.606  0.00  0.00    -0.214 NA
ATOM     16  S   UNL d   1      44.014 -12.288  42.087  0.00  0.00    -0.068 SA
ATOM     17  C   UNL d   1      44.540 -12.245  42.743  0.00  0.00     0.031 A 
ATOM     18  C   UNL d   1      44.365 -12.091  43.534  0.00  0.00     0.006 A 
ATOM     19  C   UNL d   1      45.003 -12.081  44.084  0.00  0.00     0.001 A 
ATOM     20  C   UNL d   1      45.777 -12.227  43.805  0.00  0.00     0.000 A 
ATOM     21  C   UNL d   1      45.924 -12.380  42.998  0.00  0.00     0.001 A 
ENDBRANCH   7   8
ENDBRANCH   6   7
ENDBRANCH   3   6
BRANCH   1  22
ATOM     22  C   UNL d   1      45.127 -14.485  37.408  0.00  0.00     0.067 A 
ATOM     23  C   UNL d   1      45.671 -13.866  37.337  0.00  0.00     0.018 A 
ATOM     24  C   UNL d   1      46.423 -14.009  37.051  0.00  0.00     0.002 A 
ATOM     25  C   UNL d   1      46.647 -14.769  36.831  0.00  0.00     0.000 A 
ATOM     26  C   UNL d   1      46.124 -15.384  36.896  0.00  0.00     0.002 A 
ATOM     27  C   UNL d   1      45.359 -15.243  37.186  0.00  0.00     0.018 A 
ENDBRANCH   1  22
BRANCH   2  28
ATOM     28  S   UNL d   1      43.624 -15.064  36.654  0.00  0.00    -0.042 SA
BRANCH  28  29
ATOM     29  C   UNL d   1      42.904 -15.228  36.337  0.00  0.00     0.107 C 
BRANCH  29  30
ATOM     30  C   UNL d   1      42.475 -15.883  36.588  0.00  0.00     0.307 C 
ATOM     31  O   UNL d   1      42.830 -16.433  37.091  0.00  0.00    -0.258 OA
BRANCH  30  32
ATOM     32  O   UNL d   1      41.702 -16.010  36.354  0.00  0.00    -0.271 OA
BRANCH  32  33
ATOM     33  C   UNL d   1      41.078 -15.574  36.638  0.00  0.00     0.126 C 
ATOM     34  C   UNL d   1      40.338 -15.633  36.356  0.00  0.00     0.029 C 
ENDBRANCH  32  33
ENDBRANCH  30  32
ENDBRANCH  29  30
ENDBRANCH  28  29
ENDBRANCH   2  28
TORSDOF 9
ENDMDL
