MODEL 1
REMARK VINA RESULT:      47.2      0.000      0.000
REMARK  3 active torsions:
REMARK  status: ('A' for Active; 'I' for Inactive)
REMARK    1  A    between atoms: N_5  and  C_1 
REMARK    2  A    between atoms: C_9  and  C_2 
REMARK       I    between atoms: C_8  and  N_5 
REMARK    3  A    between atoms: C_13  and  C_8 
ROOT
ATOM      1  C   UNL d   1      14.516  14.177  -2.022  0.00  0.00     0.156 A 
ATOM      2  C   UNL d   1      14.763  14.049  -1.244  0.00  0.00     0.091 A 
ATOM      3  N   UNL d   1      14.558  14.938  -2.349  0.00  0.00    -0.289 N 
ATOM      4  C   UNL d   1      15.052  14.682  -0.793  0.00  0.00     0.201 A 
ATOM      5  C   UNL d   1      15.093  15.438  -1.120  0.00  0.00     0.055 A 
ATOM      6  C   UNL d   1      14.846  15.566  -1.898  0.00  0.00     0.069 A 
ATOM      7  O   UNL d   1      15.299  14.554  -0.014  0.00  0.00    -0.286 OA
ATOM      8  C   UNL d   1      14.310  15.067  -3.128  0.00  0.00     0.101 C 
ATOM      9  C   UNL d   1      15.381  16.066  -0.669  0.00  0.00     0.005 A 
ATOM     10  C   UNL d   1      14.887  16.322  -2.226  0.00  0.00     0.018 A 
ATOM     11  C   UNL d   1      15.422  16.831  -1.003  0.00  0.00     0.000 A 
ATOM     12  C   UNL d   1      15.177  16.958  -1.774  0.00  0.00     0.002 A 
ENDROOT
BRANCH   1  13
ATOM     13  N   UNL d   1      14.222  13.544  -2.486  0.00  0.00    -0.190 NA
ATOM     14  C   UNL d   1      13.749  13.667  -3.154  0.00  0.00     0.280 C 
ATOM     15  O   UNL d   1      13.565  14.443  -3.365  0.00  0.00    -0.265 OA
BRANCH  14  16
ATOM     16  C   UNL d   1      13.464  13.039  -3.606  0.00  0.00     0.058 A 
ATOM     17  C   UNL d   1      13.549  13.057  -4.428  0.00  0.00     0.005 A 
ATOM     18  C   UNL d   1      13.263  12.430  -4.880  0.00  0.00     0.000 A 
ATOM     19  C   UNL d   1      12.896  11.790  -4.510  0.00  0.00     0.000 A 
ATOM     20  C   UNL d   1      12.815  11.779  -3.687  0.00  0.00     0.000 A 
ATOM     21  C   UNL d   1      13.101  12.408  -3.235  0.00  0.00     0.005 A 
ENDBRANCH  14  16
ENDBRANCH   1  13
BRANCH   2  22
ATOM     22  C   UNL d   1      14.722  13.293  -0.917  0.00  0.00     0.087 A 
ATOM     23  N   UNL d   1      15.253  12.711  -1.160  0.00  0.00    -0.244 NA
ATOM     24  C   UNL d   1      15.212  11.946  -0.829  0.00  0.00     0.099 A 
ATOM     25  C   UNL d   1      14.630  11.779  -0.254  0.00  0.00     0.021 A 
ATOM     26  C   UNL d   1      14.105  12.363  -0.016  0.00  0.00     0.003 A 
ATOM     27  C   UNL d   1      14.149  13.119  -0.346  0.00  0.00     0.019 A 
ENDBRANCH   2  22
TORSDOF 3
ENDMDL
