MODEL 1
REMARK VINA RESULT:      96.8      0.000      0.000
REMARK  7 active torsions:
REMARK  status: ('A' for Active; 'I' for Inactive)
REMARK    1  A    between atoms: C_4  and  S_1 
REMARK    2  A    between atoms: N_10  and  S_1 
REMARK    3  A    between atoms: C_3  and  C_2 
REMARK       I    between atoms: N_6  and  C_3 
REMARK    4  A    between atoms: C_16  and  N_6 
REMARK    5  A    between atoms: C_19  and  N_10 
REMARK    6  A    between atoms: C_12  and  C_24 
REMARK    7  A    between atoms: C_24  and  C_19 
ROOT
ATOM      1  C   UNL d   1      61.473  45.100  50.120  0.00  0.00     0.086 A 
ATOM      2  C   UNL d   1      61.419  46.521  50.000  0.00  0.00     0.106 A 
ATOM      3  C   UNL d   1      61.437  45.845  50.470  0.00  0.00     0.020 A 
ATOM      4  C   UNL d   1      61.490  45.031  49.295  0.00  0.00     0.145 A 
ATOM      5  C   UNL d   1      61.436  46.453  49.180  0.00  0.00     0.015 A 
ATOM      6  C   UNL d   1      61.471  45.706  48.828  0.00  0.00     0.030 A 
ATOM      7  F   UNL d   1      61.525  44.294  48.942  0.00  0.00    -0.204 F 
ENDROOT
BRANCH   2   8
ATOM      8  S   UNL d   1      61.383  47.269  50.348  0.00  0.00     0.285 S 
ATOM      9  O   UNL d   1      61.077  46.933  51.033  0.00  0.00    -0.198 OA
ATOM     10  O   UNL d   1      61.690  47.609  49.665  0.00  0.00    -0.198 OA
BRANCH   8  11
ATOM     11  N   UNL d   1      61.350  48.015  50.691  0.00  0.00    -0.157 NA
BRANCH  11  12
ATOM     12  C   UNL d   1      61.080  48.667  50.236  0.00  0.00     0.112 C 
BRANCH  12  13
ATOM     13  C   UNL d   1      60.991  49.403  50.575  0.00  0.00     0.021 C 
BRANCH  13  14
ATOM     14  C   UNL d   1      60.534  49.502  51.240  0.00  0.00     0.002 A 
ATOM     15  C   UNL d   1      60.887  49.576  51.993  0.00  0.00     0.000 A 
ATOM     16  C   UNL d   1      60.422  49.677  52.670  0.00  0.00     0.000 A 
ATOM     17  C   UNL d   1      59.591  49.707  52.612  0.00  0.00     0.000 A 
ATOM     18  C   UNL d   1      59.240  49.633  51.859  0.00  0.00     0.000 A 
ATOM     19  C   UNL d   1      59.706  49.532  51.182  0.00  0.00     0.000 A 
ENDBRANCH  13  14
ENDBRANCH  12  13
ENDBRANCH  11  12
ENDBRANCH   8  11
ENDBRANCH   2   8
BRANCH   1  20
ATOM     20  C   UNL d   1      61.492  44.419  50.576  0.00  0.00     0.281 C 
ATOM     21  N   UNL d   1      62.174  43.944  50.562  0.00  0.00    -0.208 NA
ATOM     22  O   UNL d   1      60.852  44.201  51.042  0.00  0.00    -0.265 OA
BRANCH  21  23
ATOM     23  C   UNL d   1      62.196  43.262  51.017  0.00  0.00     0.085 A 
ATOM     24  C   UNL d   1      61.564  43.064  51.492  0.00  0.00     0.019 A 
ATOM     25  C   UNL d   1      61.598  42.374  51.946  0.00  0.00     0.002 A 
ATOM     26  C   UNL d   1      62.261  41.883  51.924  0.00  0.00     0.000 A 
ATOM     27  C   UNL d   1      62.896  42.091  51.439  0.00  0.00     0.002 A 
ATOM     28  C   UNL d   1      62.294  41.198  52.375  0.00  0.00     0.000 C 
ATOM     29  C   UNL d   1      62.867  42.778  50.986  0.00  0.00     0.019 A 
ENDBRANCH  21  23
ENDBRANCH   1  20
TORSDOF 7
ENDMDL
