MODEL 1
REMARK VINA RESULT:     -10.3      0.000      0.000
REMARK  3 active torsions:
REMARK  status: ('A' for Active; 'I' for Inactive)
REMARK    1  A    between atoms: C_6  and  C_1 
REMARK    2  A    between atoms: C_10  and  C_3 
REMARK    3  A    between atoms: C_8  and  N_4 
REMARK       I    between atoms: N_7  and  C_6 
ROOT
ATOM      1  C   UNL d   1      53.122  33.132  53.418  0.00  0.00     0.095 A 
ATOM      2  N   UNL d   1      52.692  34.300  54.116  0.00  0.00    -0.165 NA
ATOM      3  C   UNL d   1      53.231  33.690  54.014  0.00  0.00     0.107 A 
ATOM      4  N   UNL d   1      51.920  33.805  53.021  0.00  0.00    -0.228 N 
ATOM      5  C   UNL d   1      52.466  33.195  52.926  0.00  0.00     0.107 A 
ENDROOT
BRANCH   1   6
ATOM      6  C   UNL d   1      53.668  32.522  53.323  0.00  0.00     0.268 C 
ATOM      7  N   UNL d   1      53.393  31.709  53.302  0.00  0.00    -0.272 N 
ATOM      8  C   UNL d   1      53.952  31.071  53.203  0.00  0.00     0.083 A 
ATOM      9  C   UNL d   1      52.560  31.537  53.379  0.00  0.00     0.083 A 
ATOM     10  C   UNL d   1      53.678  30.263  53.182  0.00  0.00     0.019 A 
ATOM     11  C   UNL d   1      52.848  30.098  53.260  0.00  0.00     0.003 A 
ATOM     12  C   UNL d   1      52.287  30.730  53.358  0.00  0.00     0.019 A 
ATOM     13  O   UNL d   1      54.462  32.683  53.249  0.00  0.00    -0.267 OA
ENDBRANCH   1   6
BRANCH   3  14
ATOM     14  C   UNL d   1      53.888  33.634  54.514  0.00  0.00     0.023 A 
ATOM     15  C   UNL d   1      54.607  33.964  54.278  0.00  0.00     0.022 A 
ATOM     16  C   UNL d   1      55.258  33.906  54.780  0.00  0.00     0.099 A 
ATOM     17  N   UNL d   1      55.192  33.523  55.509  0.00  0.00    -0.242 NA
ATOM     18  C   UNL d   1      54.469  33.197  55.736  0.00  0.00     0.099 A 
ATOM     19  C   UNL d   1      53.818  33.253  55.237  0.00  0.00     0.022 A 
ENDBRANCH   3  14
BRANCH   4  20
ATOM     20  C   UNL d   1      51.226  34.032  52.646  0.00  0.00     0.083 A 
ATOM     21  C   UNL d   1      51.213  34.129  51.834  0.00  0.00     0.019 A 
ATOM     22  C   UNL d   1      50.518  34.357  51.460  0.00  0.00     0.002 A 
ATOM     23  C   UNL d   1      49.831  34.488  51.901  0.00  0.00     0.000 A 
ATOM     24  C   UNL d   1      49.846  34.389  52.724  0.00  0.00     0.002 A 
ATOM     25  C   UNL d   1      50.546  34.160  53.099  0.00  0.00     0.019 A 
ENDBRANCH   4  20
TORSDOF 3
ENDMDL
MODEL 2
REMARK VINA RESULT:      -9.1      0.868      2.673
REMARK  3 active torsions:
REMARK  status: ('A' for Active; 'I' for Inactive)
REMARK    1  A    between atoms: C_6  and  C_1 
REMARK    2  A    between atoms: C_10  and  C_3 
REMARK    3  A    between atoms: C_8  and  N_4 
REMARK       I    between atoms: N_7  and  C_6 
ROOT
ATOM      1  C   UNL d   1      52.918  32.421  53.229  0.00  0.00     0.095 A 
ATOM      2  N   UNL d   1      51.719  31.667  53.055  0.00  0.00    -0.165 NA
ATOM      3  C   UNL d   1      52.520  31.699  53.227  0.00  0.00     0.107 A 
ATOM      4  N   UNL d   1      51.695  33.084  52.883  0.00  0.00    -0.228 N 
ATOM      5  C   UNL d   1      52.500  33.108  53.056  0.00  0.00     0.107 A 
ENDROOT
BRANCH   1   6
ATOM      6  C   UNL d   1      53.723  32.445  53.403  0.00  0.00     0.268 C 
ATOM      7  N   UNL d   1      54.003  32.951  54.036  0.00  0.00    -0.272 N 
ATOM      8  C   UNL d   1      54.836  32.983  54.223  0.00  0.00     0.083 A 
ATOM      9  C   UNL d   1      53.449  33.425  54.482  0.00  0.00     0.083 A 
ATOM     10  C   UNL d   1      55.114  33.486  54.853  0.00  0.00     0.019 A 
ATOM     11  C   UNL d   1      54.558  33.956  55.293  0.00  0.00     0.003 A 
ATOM     12  C   UNL d   1      53.727  33.929  55.112  0.00  0.00     0.019 A 
ATOM     13  O   UNL d   1      54.253  31.995  52.980  0.00  0.00    -0.267 OA
ENDBRANCH   1   6
BRANCH   3  14
ATOM     14  C   UNL d   1      52.932  31.003  53.399  0.00  0.00     0.023 A 
ATOM     15  C   UNL d   1      53.341  30.613  52.797  0.00  0.00     0.022 A 
ATOM     16  C   UNL d   1      53.750  29.919  52.974  0.00  0.00     0.099 A 
ATOM     17  N   UNL d   1      53.750  29.619  53.743  0.00  0.00    -0.242 NA
ATOM     18  C   UNL d   1      53.339  30.016  54.338  0.00  0.00     0.099 A 
ATOM     19  C   UNL d   1      52.930  30.707  54.164  0.00  0.00     0.022 A 
ENDBRANCH   3  14
BRANCH   4  20
ATOM     20  C   UNL d   1      51.121  33.639  52.691  0.00  0.00     0.083 A 
ATOM     21  C   UNL d   1      50.589  33.889  53.260  0.00  0.00     0.019 A 
ATOM     22  C   UNL d   1      50.015  34.445  53.068  0.00  0.00     0.002 A 
ATOM     23  C   UNL d   1      49.974  34.753  52.301  0.00  0.00     0.000 A 
ATOM     24  C   UNL d   1      50.514  34.499  51.726  0.00  0.00     0.002 A 
ATOM     25  C   UNL d   1      51.091  33.939  51.922  0.00  0.00     0.019 A 
ENDBRANCH   4  20
TORSDOF 3
ENDMDL
MODEL 3
REMARK VINA RESULT:      -9.0      0.907      3.351
REMARK  3 active torsions:
REMARK  status: ('A' for Active; 'I' for Inactive)
REMARK    1  A    between atoms: C_6  and  C_1 
REMARK    2  A    between atoms: C_10  and  C_3 
REMARK    3  A    between atoms: C_8  and  N_4 
REMARK       I    between atoms: N_7  and  C_6 
ROOT
ATOM      1  C   UNL d   1      53.548  32.547  53.730  0.00  0.00     0.095 A 
ATOM      2  N   UNL d   1      54.090  31.822  54.832  0.00  0.00    -0.165 NA
ATOM      3  C   UNL d   1      53.970  32.531  54.437  0.00  0.00     0.107 A 
ATOM      4  N   UNL d   1      53.366  31.128  53.817  0.00  0.00    -0.228 N 
ATOM      5  C   UNL d   1      53.249  31.844  53.425  0.00  0.00     0.107 A 
ENDROOT
BRANCH   1   6
ATOM      6  C   UNL d   1      53.431  33.264  53.339  0.00  0.00     0.268 C 
ATOM      7  N   UNL d   1      52.632  33.530  53.177  0.00  0.00    -0.272 N 
ATOM      8  C   UNL d   1      52.501  34.271  52.772  0.00  0.00     0.083 A 
ATOM      9  C   UNL d   1      51.965  33.055  53.420  0.00  0.00     0.083 A 
ATOM     10  C   UNL d   1      51.706  34.535  52.611  0.00  0.00     0.019 A 
ATOM     11  C   UNL d   1      51.046  34.058  52.856  0.00  0.00     0.003 A 
ATOM     12  C   UNL d   1      51.170  33.320  53.259  0.00  0.00     0.019 A 
ATOM     13  O   UNL d   1      54.064  33.718  53.106  0.00  0.00    -0.267 OA
ENDBRANCH   1   6
BRANCH   3  14
ATOM     14  C   UNL d   1      54.274  33.233  54.751  0.00  0.00     0.023 A 
ATOM     15  C   UNL d   1      55.028  33.484  54.529  0.00  0.00     0.022 A 
ATOM     16  C   UNL d   1      55.326  34.185  54.845  0.00  0.00     0.099 A 
ATOM     17  N   UNL d   1      54.876  34.629  55.376  0.00  0.00    -0.242 NA
ATOM     18  C   UNL d   1      54.123  34.370  55.591  0.00  0.00     0.099 A 
ATOM     19  C   UNL d   1      53.823  33.672  55.278  0.00  0.00     0.022 A 
ENDBRANCH   3  14
BRANCH   4  20
ATOM     20  C   UNL d   1      53.156  30.346  53.680  0.00  0.00     0.083 A 
ATOM     21  C   UNL d   1      52.841  30.128  52.957  0.00  0.00     0.019 A 
ATOM     22  C   UNL d   1      52.631  29.346  52.821  0.00  0.00     0.002 A 
ATOM     23  C   UNL d   1      52.736  28.777  53.413  0.00  0.00     0.000 A 
ATOM     24  C   UNL d   1      53.054  29.000  54.145  0.00  0.00     0.002 A 
ATOM     25  C   UNL d   1      53.266  29.788  54.280  0.00  0.00     0.019 A 
ENDBRANCH   4  20
TORSDOF 3
ENDMDL
MODEL 4
REMARK VINA RESULT:      -8.7      1.049      4.046
REMARK  3 active torsions:
REMARK  status: ('A' for Active; 'I' for Inactive)
REMARK    1  A    between atoms: C_6  and  C_1 
REMARK    2  A    between atoms: C_10  and  C_3 
REMARK    3  A    between atoms: C_8  and  N_4 
REMARK       I    between atoms: N_7  and  C_6 
ROOT
ATOM      1  C   UNL d   1      53.170  32.300  53.459  0.00  0.00     0.095 A 
ATOM      2  N   UNL d   1      51.891  31.688  53.306  0.00  0.00    -0.165 NA
ATOM      3  C   UNL d   1      52.369  32.353  53.277  0.00  0.00     0.107 A 
ATOM      4  N   UNL d   1      53.011  30.896  53.702  0.00  0.00    -0.228 N 
ATOM      5  C   UNL d   1      53.485  31.570  53.671  0.00  0.00     0.107 A 
ENDROOT
BRANCH   1   6
ATOM      6  C   UNL d   1      53.644  32.975  53.427  0.00  0.00     0.268 C 
ATOM      7  N   UNL d   1      54.074  33.221  54.128  0.00  0.00    -0.272 N 
ATOM      8  C   UNL d   1      54.567  33.918  54.104  0.00  0.00     0.083 A 
ATOM      9  C   UNL d   1      54.011  32.769  54.850  0.00  0.00     0.083 A 
ATOM     10  C   UNL d   1      54.995  34.162  54.800  0.00  0.00     0.019 A 
ATOM     11  C   UNL d   1      54.928  33.709  55.517  0.00  0.00     0.003 A 
ATOM     12  C   UNL d   1      54.439  33.014  55.546  0.00  0.00     0.019 A 
ATOM     13  O   UNL d   1      53.706  33.406  52.741  0.00  0.00    -0.267 OA
ENDBRANCH   1   6
BRANCH   3  14
ATOM     14  C   UNL d   1      52.043  33.083  53.063  0.00  0.00     0.023 A 
ATOM     15  C   UNL d   1      51.629  33.524  53.624  0.00  0.00     0.022 A 
ATOM     16  C   UNL d   1      51.307  34.251  53.406  0.00  0.00     0.099 A 
ATOM     17  N   UNL d   1      51.398  34.534  52.636  0.00  0.00    -0.242 NA
ATOM     18  C   UNL d   1      51.813  34.086  52.081  0.00  0.00     0.099 A 
ATOM     19  C   UNL d   1      52.135  33.361  52.296  0.00  0.00     0.022 A 
ENDBRANCH   3  14
BRANCH   4  20
ATOM     20  C   UNL d   1      53.133  30.105  53.884  0.00  0.00     0.083 A 
ATOM     21  C   UNL d   1      53.193  29.552  53.285  0.00  0.00     0.019 A 
ATOM     22  C   UNL d   1      53.314  28.761  53.468  0.00  0.00     0.002 A 
ATOM     23  C   UNL d   1      53.376  28.520  54.257  0.00  0.00     0.000 A 
ATOM     24  C   UNL d   1      53.314  29.082  54.864  0.00  0.00     0.002 A 
ATOM     25  C   UNL d   1      53.192  29.879  54.677  0.00  0.00     0.019 A 
ENDBRANCH   4  20
TORSDOF 3
ENDMDL
MODEL 5
REMARK VINA RESULT:      -7.5      0.941      3.670
REMARK  3 active torsions:
REMARK  status: ('A' for Active; 'I' for Inactive)
REMARK    1  A    between atoms: C_6  and  C_1 
REMARK    2  A    between atoms: C_10  and  C_3 
REMARK    3  A    between atoms: C_8  and  N_4 
REMARK       I    between atoms: N_7  and  C_6 
ROOT
ATOM      1  C   UNL d   1      52.918  32.994  53.375  0.00  0.00     0.095 A 
ATOM      2  N   UNL d   1      52.660  34.233  54.033  0.00  0.00    -0.165 NA
ATOM      3  C   UNL d   1      52.425  33.638  53.520  0.00  0.00     0.107 A 
ATOM      4  N   UNL d   1      53.891  33.549  54.269  0.00  0.00    -0.228 N 
ATOM      5  C   UNL d   1      53.648  32.956  53.752  0.00  0.00     0.107 A 
ENDROOT
BRANCH   1   6
ATOM      6  C   UNL d   1      52.675  32.400  52.857  0.00  0.00     0.268 C 
ATOM      7  N   UNL d   1      52.795  31.578  53.073  0.00  0.00    -0.272 N 
ATOM      8  C   UNL d   1      52.546  30.956  52.543  0.00  0.00     0.083 A 
ATOM      9  C   UNL d   1      53.163  31.380  53.817  0.00  0.00     0.083 A 
ATOM     10  C   UNL d   1      52.665  30.139  52.757  0.00  0.00     0.019 A 
ATOM     11  C   UNL d   1      53.032  29.948  53.500  0.00  0.00     0.003 A 
ATOM     12  C   UNL d   1      53.282  30.563  54.032  0.00  0.00     0.019 A 
ATOM     13  O   UNL d   1      52.324  32.585  52.148  0.00  0.00    -0.267 OA
ENDBRANCH   1   6
BRANCH   3  14
ATOM     14  C   UNL d   1      51.689  33.685  53.145  0.00  0.00     0.023 A 
ATOM     15  C   UNL d   1      51.629  34.064  52.415  0.00  0.00     0.022 A 
ATOM     16  C   UNL d   1      50.893  34.108  52.045  0.00  0.00     0.099 A 
ATOM     17  N   UNL d   1      50.226  33.777  52.402  0.00  0.00    -0.242 NA
ATOM     18  C   UNL d   1      50.296  33.401  53.133  0.00  0.00     0.099 A 
ATOM     19  C   UNL d   1      51.029  33.355  53.503  0.00  0.00     0.022 A 
ENDBRANCH   3  14
BRANCH   4  20
ATOM     20  C   UNL d   1      54.558  33.689  54.726  0.00  0.00     0.083 A 
ATOM     21  C   UNL d   1      54.519  33.617  55.540  0.00  0.00     0.019 A 
ATOM     22  C   UNL d   1      55.187  33.756  55.997  0.00  0.00     0.002 A 
ATOM     23  C   UNL d   1      55.901  33.970  55.637  0.00  0.00     0.000 A 
ATOM     24  C   UNL d   1      55.939  34.043  54.812  0.00  0.00     0.002 A 
ATOM     25  C   UNL d   1      55.265  33.902  54.353  0.00  0.00     0.019 A 
ENDBRANCH   4  20
TORSDOF 3
ENDMDL
