MODEL 1
REMARK VINA RESULT:      -3.7      0.000      0.000
REMARK  3 active torsions:
REMARK  status: ('A' for Active; 'I' for Inactive)
REMARK    1  A    between atoms: C_5  and  C_1 
REMARK    2  A    between atoms: N_11  and  C_9 
REMARK    3  A    between atoms: C_17  and  N_11 
ROOT
ATOM      1  C   UNL d   1      59.180  -2.113  29.206  0.00  0.00     0.075 A 
ATOM      2  C   UNL d   1      58.867  -1.452  29.575  0.00  0.00     0.004 A 
ATOM      3  C   UNL d   1      59.304  -0.742  29.584  0.00  0.00     0.004 A 
ATOM      4  C   UNL d   1      59.936  -2.076  28.838  0.00  0.00     0.046 A 
ATOM      5  C   UNL d   1      60.362  -1.389  28.845  0.00  0.00     0.196 A 
ATOM      6  C   UNL d   1      60.046  -0.725  29.217  0.00  0.00     0.039 A 
ATOM      7  C   UNL d   1      58.988  -0.077  29.956  0.00  0.00     0.018 A 
ATOM      8  C   UNL d   1      58.234  -0.118  30.322  0.00  0.00     0.081 A 
ATOM      9  C   UNL d   1      58.138  -1.488  29.930  0.00  0.00     0.002 A 
ATOM     10  C   UNL d   1      57.823  -0.822  30.302  0.00  0.00     0.019 A 
ATOM     11  O   UNL d   1      61.133  -1.386  28.459  0.00  0.00    -0.287 OA
ATOM     12  C   UNL d   1      60.498   0.001  29.223  0.00  0.00     0.003 A 
ATOM     13  C   UNL d   1      59.438   0.653  29.965  0.00  0.00     0.002 A 
ATOM     14  C   UNL d   1      60.157   0.672  29.610  0.00  0.00     0.000 A 
ENDROOT
BRANCH   8  15
ATOM     15  N   UNL d   1      57.919   0.547  30.693  0.00  0.00    -0.246 NA
BRANCH  15  16
ATOM     16  C   UNL d   1      57.521   0.471  31.423  0.00  0.00     0.081 A 
ATOM     17  C   UNL d   1      57.942   0.581  32.140  0.00  0.00     0.019 A 
ATOM     18  C   UNL d   1      57.544   0.505  32.864  0.00  0.00     0.002 A 
ATOM     19  C   UNL d   1      56.770   0.329  32.881  0.00  0.00     0.000 A 
ATOM     20  C   UNL d   1      56.340   0.218  32.195  0.00  0.00     0.002 A 
ATOM     21  C   UNL d   1      56.717   0.289  31.466  0.00  0.00     0.019 A 
ENDBRANCH  15  16
ENDBRANCH   8  15
BRANCH   1  22
ATOM     22  C   UNL d   1      58.733  -2.846  29.195  0.00  0.00     0.419 C 
ATOM     23  F   UNL d   1      58.299  -3.547  29.178  0.00  0.00    -0.166 F 
ATOM     24  F   UNL d   1      59.148  -3.103  29.877  0.00  0.00    -0.166 F 
ATOM     25  F   UNL d   1      58.332  -2.560  28.510  0.00  0.00    -0.166 F 
ENDBRANCH   1  22
TORSDOF 3
ENDMDL
MODEL 2
REMARK VINA RESULT:      -1.1      2.806      4.657
REMARK  3 active torsions:
REMARK  status: ('A' for Active; 'I' for Inactive)
REMARK    1  A    between atoms: C_5  and  C_1 
REMARK    2  A    between atoms: N_11  and  C_9 
REMARK    3  A    between atoms: C_17  and  N_11 
ROOT
ATOM      1  C   UNL d   1      55.960   0.030  33.349  0.00  0.00     0.075 A 
ATOM      2  C   UNL d   1      56.557   0.143  32.800  0.00  0.00     0.004 A 
ATOM      3  C   UNL d   1      57.328   0.323  33.063  0.00  0.00     0.004 A 
ATOM      4  C   UNL d   1      56.122   0.095  34.172  0.00  0.00     0.046 A 
ATOM      5  C   UNL d   1      56.867   0.270  34.431  0.00  0.00     0.196 A 
ATOM      6  C   UNL d   1      57.468   0.383  33.878  0.00  0.00     0.039 A 
ATOM      7  C   UNL d   1      57.929   0.437  32.510  0.00  0.00     0.018 A 
ATOM      8  C   UNL d   1      57.764   0.371  31.691  0.00  0.00     0.081 A 
ATOM      9  C   UNL d   1      56.402   0.080  32.007  0.00  0.00     0.002 A 
ATOM     10  C   UNL d   1      57.003   0.193  31.453  0.00  0.00     0.019 A 
ATOM     11  O   UNL d   1      56.998   0.330  35.282  0.00  0.00    -0.287 OA
ATOM     12  C   UNL d   1      58.255   0.568  34.154  0.00  0.00     0.003 A 
ATOM     13  C   UNL d   1      58.720   0.622  32.782  0.00  0.00     0.002 A 
ATOM     14  C   UNL d   1      58.858   0.681  33.571  0.00  0.00     0.000 A 
ENDROOT
BRANCH   8  15
ATOM     15  N   UNL d   1      58.365   0.484  31.138  0.00  0.00    -0.246 NA
BRANCH  15  16
ATOM     16  C   UNL d   1      58.322   0.117  30.390  0.00  0.00     0.081 A 
ATOM     17  C   UNL d   1      58.167   0.580  29.708  0.00  0.00     0.019 A 
ATOM     18  C   UNL d   1      58.125   0.213  28.965  0.00  0.00     0.002 A 
ATOM     19  C   UNL d   1      58.231  -0.571  28.897  0.00  0.00     0.000 A 
ATOM     20  C   UNL d   1      58.383  -1.042  29.548  0.00  0.00     0.002 A 
ATOM     21  C   UNL d   1      58.428  -0.696  30.294  0.00  0.00     0.019 A 
ENDBRANCH  15  16
ENDBRANCH   8  15
BRANCH   1  22
ATOM     22  C   UNL d   1      55.165  -0.156  33.081  0.00  0.00     0.419 C 
ATOM     23  F   UNL d   1      54.401  -0.326  32.822  0.00  0.00    -0.166 F 
ATOM     24  F   UNL d   1      55.333  -0.973  33.172  0.00  0.00    -0.166 F 
ATOM     25  F   UNL d   1      55.028   0.672  32.999  0.00  0.00    -0.166 F 
ENDBRANCH   1  22
TORSDOF 3
ENDMDL
MODEL 3
REMARK VINA RESULT:      -0.8      8.968      9.366
REMARK  3 active torsions:
REMARK  status: ('A' for Active; 'I' for Inactive)
REMARK    1  A    between atoms: C_5  and  C_1 
REMARK    2  A    between atoms: N_11  and  C_9 
REMARK    3  A    between atoms: C_17  and  N_11 
ROOT
ATOM      1  C   UNL d   1      58.167  -9.723  31.407  0.00  0.00     0.075 A 
ATOM      2  C   UNL d   1      58.634  -9.739  32.079  0.00  0.00     0.004 A 
ATOM      3  C   UNL d   1      59.464  -9.766  32.002  0.00  0.00     0.004 A 
ATOM      4  C   UNL d   1      58.521  -9.732  30.643  0.00  0.00     0.046 A 
ATOM      5  C   UNL d   1      59.324  -9.757  30.565  0.00  0.00     0.196 A 
ATOM      6  C   UNL d   1      59.794  -9.774  31.242  0.00  0.00     0.039 A 
ATOM      7  C   UNL d   1      59.935  -9.783  32.679  0.00  0.00     0.018 A 
ATOM      8  C   UNL d   1      59.578  -9.773  33.439  0.00  0.00     0.081 A 
ATOM      9  C   UNL d   1      58.294  -9.730  32.815  0.00  0.00     0.002 A 
ATOM     10  C   UNL d   1      58.764  -9.747  33.493  0.00  0.00     0.019 A 
ATOM     11  O   UNL d   1      59.654  -9.766  29.767  0.00  0.00    -0.287 OA
ATOM     12  C   UNL d   1      60.644  -9.801  31.156  0.00  0.00     0.003 A 
ATOM     13  C   UNL d   1      60.787  -9.810  32.598  0.00  0.00     0.002 A 
ATOM     14  C   UNL d   1      61.109  -9.818  31.863  0.00  0.00     0.000 A 
ENDROOT
BRANCH   8  15
ATOM     15  N   UNL d   1      60.048  -9.790  34.115  0.00  0.00    -0.246 NA
BRANCH  15  16
ATOM     16  C   UNL d   1      59.833  -9.344  34.787  0.00  0.00     0.081 A 
ATOM     17  C   UNL d   1      59.569  -9.736  35.480  0.00  0.00     0.019 A 
ATOM     18  C   UNL d   1      59.356  -9.289  36.147  0.00  0.00     0.002 A 
ATOM     19  C   UNL d   1      59.401  -8.497  36.131  0.00  0.00     0.000 A 
ATOM     20  C   UNL d   1      59.656  -8.094  35.467  0.00  0.00     0.002 A 
ATOM     21  C   UNL d   1      59.871  -8.519  34.795  0.00  0.00     0.019 A 
ENDBRANCH  15  16
ENDBRANCH   8  15
BRANCH   1  22
ATOM     22  C   UNL d   1      57.312  -9.695  31.484  0.00  0.00     0.419 C 
ATOM     23  F   UNL d   1      56.490  -9.668  31.549  0.00  0.00    -0.166 F 
ATOM     24  F   UNL d   1      57.389  -9.818  32.310  0.00  0.00    -0.166 F 
ATOM     25  F   UNL d   1      57.267  -9.573  30.650  0.00  0.00    -0.166 F 
ENDBRANCH   1  22
TORSDOF 3
ENDMDL
