MODEL 1
REMARK VINA RESULT:      -9.8      0.000      0.000
REMARK  5 active torsions:
REMARK  status: ('A' for Active; 'I' for Inactive)
REMARK    1  A    between atoms: N_8  and  C_2 
REMARK    2  A    between atoms: S_5  and  C_13 
REMARK    3  A    between atoms: C_17  and  S_5 
REMARK       I    between atoms: C_9  and  N_8 
REMARK    4  A    between atoms: C_12  and  C_9 
REMARK    5  A    between atoms: C_13  and  C_12 
ROOT
ATOM      1  N   UNL d   1      51.476  34.594  52.789  0.00  0.00    -0.183 NA
ATOM      2  C   UNL d   1      50.727  34.254  52.888  0.00  0.00     0.282 C 
ATOM      3  O   UNL d   1      50.634  33.621  53.424  0.00  0.00    -0.265 OA
ENDROOT
BRANCH   1   4
ATOM      4  C   UNL d   1      52.118  34.318  53.205  0.00  0.00     0.197 A 
ATOM      5  S   UNL d   1      52.443  34.669  53.868  0.00  0.00    -0.044 SA
ATOM      6  C   UNL d   1      53.085  34.197  54.104  0.00  0.00     0.088 A 
ATOM      7  C   UNL d   1      53.154  33.562  53.592  0.00  0.00     0.089 A 
ATOM      8  C   UNL d   1      53.623  34.280  54.742  0.00  0.00     0.199 A 
ATOM      9  N   UNL d   1      52.554  33.644  53.041  0.00  0.00    -0.221 NA
ATOM     10  C   UNL d   1      53.746  33.000  53.694  0.00  0.00    -0.003 A 
ATOM     11  C   UNL d   1      54.275  33.074  54.315  0.00  0.00     0.042 A 
ATOM     12  C   UNL d   1      54.214  33.711  54.836  0.00  0.00     0.020 A 
ATOM     13  C   UNL d   1      54.346  32.435  53.802  0.00  0.00     0.009 C 
ATOM     14  C   UNL d   1      54.811  33.146  54.940  0.00  0.00     0.009 C 
ATOM     15  O   UNL d   1      53.559  34.916  55.260  0.00  0.00    -0.286 OA
ENDBRANCH   1   4
BRANCH   2  16
ATOM     16  C   UNL d   1      50.085  34.530  52.472  0.00  0.00     0.075 C 
BRANCH  16  17
ATOM     17  C   UNL d   1      49.494  34.795  52.836  0.00  0.00     0.104 C 
BRANCH  17  18
ATOM     18  S   UNL d   1      48.798  35.141  52.526  0.00  0.00     0.211 S 
ATOM     19  O   UNL d   1      48.922  34.758  51.798  0.00  0.00    -0.217 OA
ATOM     20  O   UNL d   1      48.674  35.528  53.267  0.00  0.00    -0.217 OA
BRANCH  18  21
ATOM     21  C   UNL d   1      48.108  35.486  52.227  0.00  0.00     0.088 A 
ATOM     22  C   UNL d   1      47.766  36.130  52.612  0.00  0.00     0.011 A 
ATOM     23  C   UNL d   1      47.074  36.477  52.313  0.00  0.00     0.001 A 
ATOM     24  C   UNL d   1      46.731  36.175  51.629  0.00  0.00     0.000 A 
ATOM     25  C   UNL d   1      47.064  35.531  51.234  0.00  0.00     0.001 A 
ATOM     26  C   UNL d   1      47.758  35.184  51.536  0.00  0.00     0.011 A 
ENDBRANCH  18  21
ENDBRANCH  17  18
ENDBRANCH  16  17
ENDBRANCH   2  16
TORSDOF 5
ENDMDL
MODEL 2
REMARK VINA RESULT:      -8.7      1.016      5.994
REMARK  5 active torsions:
REMARK  status: ('A' for Active; 'I' for Inactive)
REMARK    1  A    between atoms: N_8  and  C_2 
REMARK    2  A    between atoms: S_5  and  C_13 
REMARK    3  A    between atoms: C_17  and  S_5 
REMARK       I    between atoms: C_9  and  N_8 
REMARK    4  A    between atoms: C_12  and  C_9 
REMARK    5  A    between atoms: C_13  and  C_12 
ROOT
ATOM      1  N   UNL d   1      50.517  34.499  52.286  0.00  0.00    -0.183 NA
ATOM      2  C   UNL d   1      50.718  33.947  52.870  0.00  0.00     0.282 C 
ATOM      3  O   UNL d   1      50.134  33.692  53.409  0.00  0.00    -0.265 OA
ENDROOT
BRANCH   1   4
ATOM      4  C   UNL d   1      49.760  34.792  52.232  0.00  0.00     0.197 A 
ATOM      5  S   UNL d   1      49.227  34.629  51.635  0.00  0.00    -0.044 SA
ATOM      6  C   UNL d   1      48.530  35.047  51.808  0.00  0.00     0.088 A 
ATOM      7  C   UNL d   1      48.634  35.464  52.505  0.00  0.00     0.089 A 
ATOM      8  C   UNL d   1      47.799  35.093  51.398  0.00  0.00     0.199 A 
ATOM      9  N   UNL d   1      49.395  35.302  52.760  0.00  0.00    -0.221 NA
ATOM     10  C   UNL d   1      48.029  35.930  52.812  0.00  0.00    -0.003 A 
ATOM     11  C   UNL d   1      47.313  35.980  52.418  0.00  0.00     0.042 A 
ATOM     12  C   UNL d   1      47.199  35.564  51.715  0.00  0.00     0.020 A 
ATOM     13  C   UNL d   1      47.415  36.400  53.117  0.00  0.00     0.009 C 
ATOM     14  C   UNL d   1      46.590  36.033  52.022  0.00  0.00     0.009 C 
ATOM     15  O   UNL d   1      47.689  34.676  50.697  0.00  0.00    -0.286 OA
ENDBRANCH   1   4
BRANCH   2  16
ATOM     16  C   UNL d   1      51.475  33.654  52.924  0.00  0.00     0.075 C 
BRANCH  16  17
ATOM     17  C   UNL d   1      51.779  33.535  53.591  0.00  0.00     0.104 C 
BRANCH  17  18
ATOM     18  S   UNL d   1      52.581  33.398  53.787  0.00  0.00     0.211 S 
ATOM     19  O   UNL d   1      52.542  32.639  53.449  0.00  0.00    -0.217 OA
ATOM     20  O   UNL d   1      52.617  34.169  54.129  0.00  0.00    -0.217 OA
BRANCH  18  21
ATOM     21  C   UNL d   1      53.374  33.270  53.983  0.00  0.00     0.088 A 
ATOM     22  C   UNL d   1      53.894  32.955  53.425  0.00  0.00     0.011 A 
ATOM     23  C   UNL d   1      54.690  32.826  53.620  0.00  0.00     0.001 A 
ATOM     24  C   UNL d   1      54.958  33.013  54.376  0.00  0.00     0.000 A 
ATOM     25  C   UNL d   1      54.447  33.328  54.943  0.00  0.00     0.001 A 
ATOM     26  C   UNL d   1      53.650  33.457  54.745  0.00  0.00     0.011 A 
ENDBRANCH  18  21
ENDBRANCH  17  18
ENDBRANCH  16  17
ENDBRANCH   2  16
TORSDOF 5
ENDMDL
