MODEL 1
REMARK VINA RESULT:      13.8      0.000      0.000
REMARK  4 active torsions:
REMARK  status: ('A' for Active; 'I' for Inactive)
REMARK       I    between atoms: C_3  and  N_7 
REMARK    1  A    between atoms: C_6  and  C_3 
REMARK    2  A    between atoms: C_8  and  C_6 
REMARK    3  A    between atoms: N_7  and  C_9 
REMARK    4  A    between atoms: C_13  and  C_8 
ROOT
ATOM      1  C   UNL d   1      13.412  11.836  -2.491  0.00  0.00     0.279 C 
ATOM      2  N   UNL d   1      14.174  11.928  -2.184  0.00  0.00    -0.207 NA
ATOM      3  O   UNL d   1      12.771  11.802  -1.983  0.00  0.00    -0.265 OA
ENDROOT
BRANCH   1   4
ATOM      4  C   UNL d   1      13.304  11.779  -3.307  0.00  0.00     0.062 C 
BRANCH   4   5
ATOM      5  C   UNL d   1      12.973  12.405  -3.723  0.00  0.00     0.005 C 
BRANCH   5   6
ATOM      6  C   UNL d   1      13.119  12.497  -4.524  0.00  0.00     0.000 A 
ATOM      7  C   UNL d   1      13.326  13.238  -4.826  0.00  0.00     0.000 A 
ATOM      8  C   UNL d   1      13.470  13.321  -5.627  0.00  0.00     0.000 A 
ATOM      9  C   UNL d   1      13.411  12.678  -6.130  0.00  0.00     0.000 A 
ATOM     10  C   UNL d   1      13.206  11.940  -5.835  0.00  0.00     0.000 A 
ATOM     11  C   UNL d   1      13.058  11.845  -5.027  0.00  0.00     0.000 A 
ENDBRANCH   5   6
ENDBRANCH   4   5
ENDBRANCH   1   4
BRANCH   2  12
ATOM     12  C   UNL d   1      14.281  11.984  -1.372  0.00  0.00     0.097 A 
ATOM     13  C   UNL d   1      14.943  12.460  -1.513  0.00  0.00     0.118 A 
ATOM     14  S   UNL d   1      15.265  12.673  -0.780  0.00  0.00     0.213 S 
ATOM     15  O   UNL d   1      15.663  12.972  -1.434  0.00  0.00    -0.217 OA
ATOM     16  O   UNL d   1      15.530  12.843  -0.014  0.00  0.00    -0.217 OA
ATOM     17  C   UNL d   1      14.801  12.327  -0.186  0.00  0.00     0.100 A 
ATOM     18  C   UNL d   1      14.196  11.904  -0.548  0.00  0.00     0.032 A 
ENDBRANCH   2  12
TORSDOF 4
ENDMDL
