MODEL 1
REMARK VINA RESULT:      79.4      0.000      0.000
REMARK  8 active torsions:
REMARK  status: ('A' for Active; 'I' for Inactive)
REMARK    1  A    between atoms: O_8  and  C_1 
REMARK    2  A    between atoms: C_10  and  C_5 
REMARK    3  A    between atoms: C_12  and  O_8 
REMARK    4  A    between atoms: N_9  and  C_10 
REMARK    5  A    between atoms: C_25  and  N_14 
REMARK    6  A    between atoms: O_24  and  C_17 
REMARK    7  A    between atoms: C_30  and  O_24 
REMARK    8  A    between atoms: C_29  and  C_25 
ROOT
ATOM      1  C   UNL d   1     -51.515  24.921  33.351  0.00  0.00     0.161 A 
ATOM      2  C   UNL d   1     -50.245  25.992  33.370  0.00  0.00     0.108 A 
ATOM      3  C   UNL d   1     -50.095  25.173  33.356  0.00  0.00     0.064 A 
ATOM      4  C   UNL d   1     -50.729  24.642  33.347  0.00  0.00     0.222 A 
ATOM      5  C   UNL d   1     -49.611  26.524  33.380  0.00  0.00     0.079 A 
ATOM      6  O   UNL d   1     -51.021  26.286  33.375  0.00  0.00    -0.305 OA
ATOM      7  C   UNL d   1     -51.660  25.742  33.365  0.00  0.00     0.126 A 
ATOM      8  C   UNL d   1     -49.324  24.899  33.352  0.00  0.00     0.009 A 
ATOM      9  C   UNL d   1     -48.838  26.241  33.375  0.00  0.00     0.199 A 
ATOM     10  O   UNL d   1     -50.586  23.829  33.333  0.00  0.00    -0.284 OA
ATOM     11  C   UNL d   1     -48.694  25.429  33.361  0.00  0.00     0.042 A 
ATOM     12  O   UNL d   1     -48.208  26.772  33.385  0.00  0.00    -0.286 OA
ATOM     13  C   UNL d   1     -52.434  26.024  33.370  0.00  0.00     0.029 C 
ENDROOT
BRANCH   1  14
ATOM     14  O   UNL d   1     -52.145  24.387  33.342  0.00  0.00    -0.300 OA
BRANCH  14  15
ATOM     15  C   UNL d   1     -52.466  24.125  34.053  0.00  0.00     0.123 A 
ATOM     16  C   UNL d   1     -53.225  23.805  34.066  0.00  0.00     0.123 A 
ATOM     17  C   UNL d   1     -53.550  23.543  34.771  0.00  0.00     0.027 A 
ATOM     18  C   UNL d   1     -53.121  23.597  35.472  0.00  0.00     0.002 A 
ATOM     19  C   UNL d   1     -52.352  23.921  35.462  0.00  0.00     0.002 A 
ATOM     20  C   UNL d   1     -52.029  24.183  34.751  0.00  0.00     0.027 A 
BRANCH  16  21
ATOM     21  O   UNL d   1     -53.658  23.748  33.367  0.00  0.00    -0.303 OA
BRANCH  21  22
ATOM     22  C   UNL d   1     -54.272  23.203  33.309  0.00  0.00     0.123 C 
ATOM     23  C   UNL d   1     -55.056  23.453  33.313  0.00  0.00     0.029 C 
ENDBRANCH  21  22
ENDBRANCH  16  21
ENDBRANCH  14  15
ENDBRANCH   1  14
BRANCH   5  24
ATOM     24  C   UNL d   1     -49.747  27.337  33.393  0.00  0.00     0.086 C 
BRANCH  24  25
ATOM     25  N   UNL d   1     -49.313  27.811  33.918  0.00  0.00    -0.300 N 
ATOM     26  C   UNL d   1     -49.013  27.492  34.619  0.00  0.00     0.100 A 
ATOM     27  C   UNL d   1     -48.585  27.965  35.134  0.00  0.00     0.100 A 
ATOM     28  N   UNL d   1     -48.450  28.760  34.957  0.00  0.00    -0.297 N 
ATOM     29  C   UNL d   1     -48.750  29.080  34.256  0.00  0.00     0.100 A 
ATOM     30  C   UNL d   1     -49.185  28.605  33.731  0.00  0.00     0.100 A 
BRANCH  28  31
ATOM     31  C   UNL d   1     -48.020  29.234  35.474  0.00  0.00     0.126 C 
BRANCH  31  32
ATOM     32  C   UNL d   1     -47.750  29.972  35.225  0.00  0.00     0.253 C 
ATOM     33  O   UNL d   1     -47.353  30.462  35.754  0.00  0.00    -0.281 OA
ENDBRANCH  31  32
ENDBRANCH  28  31
ENDBRANCH  24  25
ENDBRANCH   5  24
TORSDOF 8
ENDMDL
