MODEL 1
REMARK VINA RESULT:     144.4      0.000      0.000
REMARK  3 active torsions:
REMARK  status: ('A' for Active; 'I' for Inactive)
REMARK    1  A    between atoms: C_14  and  C_1 
REMARK    2  A    between atoms: C_3  and  C_8 
REMARK       I    between atoms: C_8  and  N_13 
REMARK    3  A    between atoms: N_13  and  C_15 
ROOT
ATOM      1  C   UNL d   1     -56.376 -98.788 -43.243  0.00  0.00     0.025 A 
ATOM      2  C   UNL d   1     -55.332 -98.831 -44.225  0.00  0.00     0.085 A 
ATOM      3  C   UNL d   1     -56.134 -98.827 -44.034  0.00  0.00     0.021 A 
ATOM      4  C   UNL d   1     -55.860 -98.755 -42.654  0.00  0.00     0.002 A 
ATOM      5  C   UNL d   1     -55.071 -98.759 -42.818  0.00  0.00     0.002 A 
ATOM      6  C   UNL d   1     -54.768 -98.796 -43.602  0.00  0.00     0.019 A 
ENDROOT
BRANCH   2   7
ATOM      7  N   UNL d   1     -55.075 -98.869 -45.000  0.00  0.00    -0.206 NA
ATOM      8  C   UNL d   1     -54.982 -99.619 -45.358  0.00  0.00     0.302 C 
ATOM      9  O   UNL d   1     -54.713 -99.646 -46.166  0.00  0.00    -0.263 OA
BRANCH   8  10
ATOM     10  C   UNL d   1     -55.142-100.280 -44.948  0.00  0.00     0.161 A 
ATOM     11  C   UNL d   1     -55.620-100.822 -45.321  0.00  0.00     0.072 A 
ATOM     12  C   UNL d   1     -55.793-101.510 -44.909  0.00  0.00     0.200 A 
ATOM     13  O   UNL d   1     -56.264-102.060 -45.260  0.00  0.00    -0.286 OA
ATOM     14  C   UNL d   1     -55.497-101.647 -44.151  0.00  0.00     0.062 A 
ATOM     15  C   UNL d   1     -55.013-101.088 -43.785  0.00  0.00     0.103 A 
ATOM     16  C   UNL d   1     -55.668-102.336 -43.734  0.00  0.00     0.005 A 
ATOM     17  O   UNL d   1     -54.823-100.388 -44.177  0.00  0.00    -0.302 OA
ATOM     18  C   UNL d   1     -54.716-101.239 -43.010  0.00  0.00     0.025 A 
ATOM     19  C   UNL d   1     -54.883-101.909 -42.604  0.00  0.00     0.002 A 
ATOM     20  C   UNL d   1     -55.357-102.447 -42.972  0.00  0.00     0.000 A 
ENDBRANCH   8  10
ENDBRANCH   2   7
BRANCH   1  21
ATOM     21  C   UNL d   1     -57.204 -98.786 -43.089  0.00  0.00     0.111 A 
ATOM     22  N   UNL d   1     -57.632 -98.760 -42.385  0.00  0.00    -0.239 NA
ATOM     23  C   UNL d   1     -58.438 -98.771 -42.569  0.00  0.00     0.088 A 
ATOM     24  C   UNL d   1     -59.139 -98.756 -42.124  0.00  0.00     0.020 A 
ATOM     25  C   UNL d   1     -58.493 -98.803 -43.390  0.00  0.00     0.049 A 
ATOM     26  C   UNL d   1     -59.908 -98.773 -42.472  0.00  0.00     0.002 A 
ATOM     27  C   UNL d   1     -59.961 -98.807 -43.318  0.00  0.00     0.001 A 
ATOM     28  C   UNL d   1     -59.242 -98.821 -43.761  0.00  0.00     0.008 A 
ATOM     29  S   UNL d   1     -57.713 -98.812 -43.704  0.00  0.00    -0.066 SA
ENDBRANCH   1  21
TORSDOF 3
ENDMDL
