MODEL 1
REMARK VINA RESULT:      91.5      0.000      0.000
REMARK  4 active torsions:
REMARK  status: ('A' for Active; 'I' for Inactive)
REMARK    1  A    between atoms: C_3  and  S_1 
REMARK    2  A    between atoms: N_5  and  S_1 
REMARK    3  A    between atoms: C_11  and  N_5 
REMARK    4  A    between atoms: C_21  and  N_5 
ROOT
ATOM      1  N   UNL d   1      61.750  45.397  49.908  0.00  0.00    -0.273 N 
ATOM      2  C   UNL d   1      61.056  47.623  50.706  0.00  0.00     0.104 A 
ATOM      3  C   UNL d   1      61.521  46.137  50.171  0.00  0.00     0.067 A 
ATOM      4  C   UNL d   1      60.961  46.198  50.769  0.00  0.00     0.017 A 
ATOM      5  C   UNL d   1      61.849  46.817  49.839  0.00  0.00     0.017 A 
ATOM      6  C   UNL d   1      61.421  44.717  50.240  0.00  0.00     0.265 A 
ATOM      7  C   UNL d   1      60.727  46.943  51.038  0.00  0.00     0.014 A 
ATOM      8  C   UNL d   1      61.618  47.559  50.105  0.00  0.00     0.014 A 
ATOM      9  C   UNL d   1      60.633  45.518  51.101  0.00  0.00     0.006 A 
ATOM     10  C   UNL d   1      60.864  44.777  50.835  0.00  0.00     0.061 A 
ATOM     11  O   UNL d   1      61.657  43.960  49.969  0.00  0.00    -0.267 OA
ATOM     12  C   UNL d   1      62.312  45.333  49.307  0.00  0.00     0.083 A 
ATOM     13  C   UNL d   1      62.406  46.757  49.244  0.00  0.00     0.003 A 
ATOM     14  C   UNL d   1      62.641  46.013  48.975  0.00  0.00     0.019 A 
ENDROOT
BRANCH   2  15
ATOM     15  S   UNL d   1      60.819  48.370  50.978  0.00  0.00     0.271 S 
ATOM     16  O   UNL d   1      60.272  48.435  50.357  0.00  0.00    -0.200 OA
ATOM     17  O   UNL d   1      61.365  48.311  51.603  0.00  0.00    -0.200 OA
BRANCH  15  18
ATOM     18  N   UNL d   1      60.582  49.123  51.254  0.00  0.00    -0.231 N 
BRANCH  18  19
ATOM     19  C   UNL d   1      59.786  49.317  51.307  0.00  0.00     0.075 A 
ATOM     20  C   UNL d   1      59.344  49.411  50.617  0.00  0.00     0.018 A 
ATOM     21  C   UNL d   1      58.551  49.604  50.658  0.00  0.00     0.002 A 
ATOM     22  C   UNL d   1      58.104  49.700  49.959  0.00  0.00     0.000 C 
ATOM     23  C   UNL d   1      58.191  49.704  51.394  0.00  0.00     0.000 A 
ATOM     24  C   UNL d   1      58.632  49.609  52.084  0.00  0.00     0.002 A 
ATOM     25  C   UNL d   1      59.429  49.416  52.031  0.00  0.00     0.018 A 
ENDBRANCH  18  19
BRANCH  18  26
ATOM     26  C   UNL d   1      61.150  49.677  51.477  0.00  0.00     0.092 C 
ATOM     27  C   UNL d   1      61.466  49.662  52.239  0.00  0.00     0.021 C 
ENDBRANCH  18  26
ENDBRANCH  15  18
ENDBRANCH   2  15
TORSDOF 4
ENDMDL
