MODEL 1
REMARK VINA RESULT:      39.6      0.000      0.000
REMARK  3 active torsions:
REMARK  status: ('A' for Active; 'I' for Inactive)
REMARK    1  A    between atoms: O_9  and  C_1 
REMARK    2  A    between atoms: C_13  and  O_9 
REMARK    3  A    between atoms: C_16  and  C_11 
ROOT
ATOM      1  C   UNL d   1     -51.931  25.179  33.316  0.00  0.00     0.161 A 
ATOM      2  C   UNL d   1     -51.016  26.276  33.329  0.00  0.00     0.064 A 
ATOM      3  C   UNL d   1     -51.147  25.471  33.323  0.00  0.00     0.222 A 
ATOM      4  C   UNL d   1     -51.642  26.809  33.328  0.00  0.00     0.106 A 
ATOM      5  C   UNL d   1     -52.568  25.723  33.316  0.00  0.00     0.126 A 
ATOM      6  O   UNL d   1     -52.398  26.539  33.322  0.00  0.00    -0.305 OA
ATOM      7  C   UNL d   1     -50.234  26.541  33.335  0.00  0.00     0.008 A 
ATOM      8  C   UNL d   1     -51.486  27.609  33.334  0.00  0.00     0.067 A 
ATOM      9  C   UNL d   1     -50.720  27.891  33.340  0.00  0.00     0.198 A 
ATOM     10  C   UNL d   1     -50.082  27.347  33.341  0.00  0.00     0.039 A 
ATOM     11  O   UNL d   1     -50.520  24.937  33.323  0.00  0.00    -0.284 OA
ATOM     12  O   UNL d   1     -50.591  28.722  33.346  0.00  0.00    -0.286 OA
ATOM     13  C   UNL d   1     -53.369  25.465  33.310  0.00  0.00     0.029 C 
ENDROOT
BRANCH   1  14
ATOM     14  O   UNL d   1     -52.059  24.348  33.311  0.00  0.00    -0.302 OA
BRANCH  14  15
ATOM     15  C   UNL d   1     -52.763  24.037  33.630  0.00  0.00     0.100 A 
ATOM     16  C   UNL d   1     -53.490  24.265  33.318  0.00  0.00     0.025 A 
ATOM     17  C   UNL d   1     -54.173  23.959  33.633  0.00  0.00     0.002 A 
ATOM     18  C   UNL d   1     -54.145  23.413  34.275  0.00  0.00     0.000 A 
ATOM     19  C   UNL d   1     -53.410  23.195  34.576  0.00  0.00     0.002 A 
ATOM     20  C   UNL d   1     -52.715  23.509  34.252  0.00  0.00     0.025 A 
ENDBRANCH  14  15
ENDBRANCH   1  14
BRANCH  10  21
ATOM     21  C   UNL d   1     -49.281  27.605  33.347  0.00  0.00     0.003 C 
ATOM     22  C   UNL d   1     -48.754  27.336  33.940  0.00  0.00     0.000 C 
ENDBRANCH  10  21
TORSDOF 3
ENDMDL
