MODEL 1
REMARK VINA RESULT:      53.0      0.000      0.000
REMARK  7 active torsions:
REMARK  status: ('A' for Active; 'I' for Inactive)
REMARK    1  A    between atoms: N_3  and  C_2 
REMARK       I    between atoms: C_6  and  N_3 
REMARK    2  A    between atoms: C_11  and  C_4 
REMARK    3  A    between atoms: C_5  and  C_6 
REMARK    4  A    between atoms: C_15  and  C_11 
REMARK    5  A    between atoms: C_18  and  C_12 
REMARK    6  A    between atoms: O_17  and  C_18 
REMARK    7  A    between atoms: C_19  and  O_17 
ROOT
ATOM      1  C   UNL d   1     -49.068  27.665  34.295  0.00  0.00     0.158 A 
ATOM      2  O   UNL d   1     -49.705  27.192  34.512  0.00  0.00    -0.300 OA
ATOM      3  C   UNL d   1     -48.705  27.320  33.641  0.00  0.00     0.032 A 
ATOM      4  C   UNL d   1     -49.743  26.550  33.994  0.00  0.00     0.125 A 
ATOM      5  C   UNL d   1     -49.122  26.631  33.455  0.00  0.00     0.029 A 
ENDROOT
BRANCH   1   6
ATOM      6  C   UNL d   1     -48.829  28.367  34.667  0.00  0.00     0.304 C 
ATOM      7  N   UNL d   1     -48.049  28.451  34.925  0.00  0.00    -0.180 NA
ATOM      8  O   UNL d   1     -49.372  28.978  34.777  0.00  0.00    -0.263 OA
BRANCH   7   9
ATOM      9  C   UNL d   1     -47.811  29.146  35.293  0.00  0.00     0.216 A 
ATOM     10  N   UNL d   1     -48.069  29.923  35.104  0.00  0.00    -0.200 NA
ATOM     11  C   UNL d   1     -47.696  30.435  35.603  0.00  0.00     0.175 A 
ATOM     12  N   UNL d   1     -47.206  30.004  36.106  0.00  0.00    -0.187 NA
ATOM     13  S   UNL d   1     -47.278  29.207  35.914  0.00  0.00     0.054 SA
BRANCH  11  14
ATOM     14  C   UNL d   1     -47.784  31.254  35.615  0.00  0.00     0.082 C 
BRANCH  14  15
ATOM     15  C   UNL d   1     -47.405  31.712  35.034  0.00  0.00     0.199 C 
ATOM     16  O   UNL d   1     -46.789  32.216  35.237  0.00  0.00    -0.286 OA
ATOM     17  C   UNL d   1     -47.652  31.657  34.244  0.00  0.00     0.045 C 
ENDBRANCH  14  15
ENDBRANCH  11  14
ENDBRANCH   7   9
ENDBRANCH   1   6
BRANCH   4  18
ATOM     18  C   UNL d   1     -50.296  25.947  34.016  0.00  0.00     0.147 C 
BRANCH  18  19
ATOM     19  O   UNL d   1     -50.541  25.589  33.308  0.00  0.00    -0.303 OA
BRANCH  19  20
ATOM     20  C   UNL d   1     -51.172  25.061  33.310  0.00  0.00     0.100 A 
ATOM     21  C   UNL d   1     -51.945  25.349  33.311  0.00  0.00     0.025 A 
ATOM     22  C   UNL d   1     -52.574  24.824  33.312  0.00  0.00     0.002 A 
ATOM     23  C   UNL d   1     -52.434  24.002  33.313  0.00  0.00     0.000 A 
ATOM     24  C   UNL d   1     -51.658  23.721  33.312  0.00  0.00     0.002 A 
ATOM     25  C   UNL d   1     -53.073  23.476  33.315  0.00  0.00     0.000 C 
ATOM     26  C   UNL d   1     -51.027  24.250  33.310  0.00  0.00     0.025 A 
ENDBRANCH  19  20
ENDBRANCH  18  19
ENDBRANCH   4  18
TORSDOF 7
ENDMDL
MODEL 2
REMARK VINA RESULT:      55.9      1.532      6.394
REMARK  7 active torsions:
REMARK  status: ('A' for Active; 'I' for Inactive)
REMARK    1  A    between atoms: N_3  and  C_2 
REMARK       I    between atoms: C_6  and  N_3 
REMARK    2  A    between atoms: C_11  and  C_4 
REMARK    3  A    between atoms: C_5  and  C_6 
REMARK    4  A    between atoms: C_15  and  C_11 
REMARK    5  A    between atoms: C_18  and  C_12 
REMARK    6  A    between atoms: O_17  and  C_18 
REMARK    7  A    between atoms: C_19  and  O_17 
ROOT
ATOM      1  C   UNL d   1     -48.372  28.513  35.208  0.00  0.00     0.158 A 
ATOM      2  O   UNL d   1     -48.270  29.313  35.045  0.00  0.00    -0.300 OA
ATOM      3  C   UNL d   1     -47.769  28.277  35.717  0.00  0.00     0.032 A 
ATOM      4  C   UNL d   1     -47.602  29.580  35.452  0.00  0.00     0.125 A 
ATOM      5  C   UNL d   1     -47.294  28.937  35.868  0.00  0.00     0.029 A 
ENDROOT
BRANCH   1   6
ATOM      6  C   UNL d   1     -48.974  28.026  34.913  0.00  0.00     0.304 C 
ATOM      7  N   UNL d   1     -48.949  27.769  34.128  0.00  0.00    -0.180 NA
ATOM      8  O   UNL d   1     -49.597  27.800  35.404  0.00  0.00    -0.263 OA
BRANCH   7   9
ATOM      9  C   UNL d   1     -49.545  27.286  33.834  0.00  0.00     0.216 A 
ATOM     10  N   UNL d   1     -49.525  26.448  33.781  0.00  0.00    -0.200 NA
ATOM     11  C   UNL d   1     -50.224  26.204  33.460  0.00  0.00     0.175 A 
ATOM     12  N   UNL d   1     -50.689  26.867  33.306  0.00  0.00    -0.187 NA
ATOM     13  S   UNL d   1     -50.268  27.535  33.538  0.00  0.00     0.054 SA
BRANCH  11  14
ATOM     14  C   UNL d   1     -50.445  25.425  33.307  0.00  0.00     0.082 C 
BRANCH  14  15
ATOM     15  C   UNL d   1     -51.114  25.112  33.687  0.00  0.00     0.199 C 
ATOM     16  O   UNL d   1     -51.030  24.607  34.330  0.00  0.00    -0.286 OA
ATOM     17  C   UNL d   1     -51.872  25.311  33.415  0.00  0.00     0.045 C 
ENDBRANCH  14  15
ENDBRANCH  11  14
ENDBRANCH   7   9
ENDBRANCH   1   6
BRANCH   4  18
ATOM     18  C   UNL d   1     -47.307  30.343  35.441  0.00  0.00     0.147 C 
BRANCH  18  19
ATOM     19  O   UNL d   1     -47.831  30.986  35.492  0.00  0.00    -0.303 OA
BRANCH  19  20
ATOM     20  C   UNL d   1     -47.776  31.607  34.955  0.00  0.00     0.100 A 
ATOM     21  C   UNL d   1     -48.402  31.754  34.437  0.00  0.00     0.025 A 
ATOM     22  C   UNL d   1     -48.348  32.371  33.902  0.00  0.00     0.002 A 
ATOM     23  C   UNL d   1     -47.665  32.849  33.880  0.00  0.00     0.000 A 
ATOM     24  C   UNL d   1     -47.043  32.696  34.401  0.00  0.00     0.002 A 
ATOM     25  C   UNL d   1     -47.615  33.472  33.337  0.00  0.00     0.000 C 
ATOM     26  C   UNL d   1     -47.098  32.075  34.938  0.00  0.00     0.025 A 
ENDBRANCH  19  20
ENDBRANCH  18  19
ENDBRANCH   4  18
TORSDOF 7
ENDMDL
MODEL 3
REMARK VINA RESULT:      55.9      0.873      1.221
REMARK  7 active torsions:
REMARK  status: ('A' for Active; 'I' for Inactive)
REMARK    1  A    between atoms: N_3  and  C_2 
REMARK       I    between atoms: C_6  and  N_3 
REMARK    2  A    between atoms: C_11  and  C_4 
REMARK    3  A    between atoms: C_5  and  C_6 
REMARK    4  A    between atoms: C_15  and  C_11 
REMARK    5  A    between atoms: C_18  and  C_12 
REMARK    6  A    between atoms: O_17  and  C_18 
REMARK    7  A    between atoms: C_19  and  O_17 
ROOT
ATOM      1  C   UNL d   1     -49.928  27.302  34.541  0.00  0.00     0.158 A 
ATOM      2  O   UNL d   1     -50.180  27.007  33.816  0.00  0.00    -0.300 OA
ATOM      3  C   UNL d   1     -50.388  26.957  35.131  0.00  0.00     0.032 A 
ATOM      4  C   UNL d   1     -50.799  26.476  33.950  0.00  0.00     0.125 A 
ATOM      5  C   UNL d   1     -50.926  26.446  34.765  0.00  0.00     0.029 A 
ENDROOT
BRANCH   1   6
ATOM      6  C   UNL d   1     -49.319  27.851  34.661  0.00  0.00     0.304 C 
ATOM      7  N   UNL d   1     -48.952  27.904  35.400  0.00  0.00    -0.180 NA
ATOM      8  O   UNL d   1     -49.081  28.342  34.043  0.00  0.00    -0.263 OA
BRANCH   7   9
ATOM      9  C   UNL d   1     -48.348  28.447  35.521  0.00  0.00     0.216 A 
ATOM     10  N   UNL d   1     -48.439  29.244  35.770  0.00  0.00    -0.200 NA
ATOM     11  C   UNL d   1     -47.704  29.573  35.816  0.00  0.00     0.175 A 
ATOM     12  N   UNL d   1     -47.146  29.005  35.602  0.00  0.00    -0.187 NA
ATOM     13  S   UNL d   1     -47.545  28.310  35.420  0.00  0.00     0.054 SA
BRANCH  11  14
ATOM     14  C   UNL d   1     -47.529  30.347  36.039  0.00  0.00     0.082 C 
BRANCH  14  15
ATOM     15  C   UNL d   1     -47.345  30.907  35.452  0.00  0.00     0.199 C 
ATOM     16  O   UNL d   1     -47.629  31.676  35.507  0.00  0.00    -0.286 OA
ATOM     17  C   UNL d   1     -46.872  30.685  34.808  0.00  0.00     0.045 C 
ENDBRANCH  14  15
ENDBRANCH  11  14
ENDBRANCH   7   9
ENDBRANCH   1   6
BRANCH   4  18
ATOM     18  C   UNL d   1     -51.207  26.059  33.376  0.00  0.00     0.147 C 
BRANCH  18  19
ATOM     19  O   UNL d   1     -51.093  25.238  33.307  0.00  0.00    -0.303 OA
BRANCH  19  20
ATOM     20  C   UNL d   1     -51.738  24.728  33.350  0.00  0.00     0.100 A 
ATOM     21  C   UNL d   1     -51.610  23.918  33.437  0.00  0.00     0.025 A 
ATOM     22  C   UNL d   1     -52.251  23.409  33.481  0.00  0.00     0.002 A 
ATOM     23  C   UNL d   1     -53.028  23.708  33.437  0.00  0.00     0.000 A 
ATOM     24  C   UNL d   1     -53.148  24.520  33.350  0.00  0.00     0.002 A 
ATOM     25  C   UNL d   1     -53.672  23.190  33.481  0.00  0.00     0.000 C 
ATOM     26  C   UNL d   1     -52.503  25.030  33.306  0.00  0.00     0.025 A 
ENDBRANCH  19  20
ENDBRANCH  18  19
ENDBRANCH   4  18
TORSDOF 7
ENDMDL
