MODEL 1
REMARK VINA RESULT:      17.0      0.000      0.000
REMARK  1 active torsions:
REMARK  status: ('A' for Active; 'I' for Inactive)
REMARK    1  A    between atoms: C_9  and  C_4 
ROOT
ATOM      1  S   UNL d   1      46.272 -18.324  42.980  0.00  0.00    -0.085 SA
ATOM      2  N   UNL d   1      46.536 -20.029  43.537  0.00  0.00    -0.207 NA
ATOM      3  C   UNL d   1      46.439 -19.662  44.253  0.00  0.00     0.280 A 
ATOM      4  C   UNL d   1      46.217 -18.224  43.783  0.00  0.00     0.034 A 
ATOM      5  C   UNL d   1      46.291 -18.827  44.370  0.00  0.00     0.069 A 
ATOM      6  C   UNL d   1      46.390 -18.924  42.654  0.00  0.00     0.047 A 
ATOM      7  C   UNL d   1      46.512 -19.703  42.896  0.00  0.00     0.091 A 
ATOM      8  O   UNL d   1      46.487 -20.133  44.925  0.00  0.00    -0.265 OA
ATOM      9  C   UNL d   1      46.397 -18.735  41.852  0.00  0.00     0.008 A 
ATOM     10  C   UNL d   1      46.639 -20.293  42.338  0.00  0.00     0.020 A 
ATOM     11  C   UNL d   1      46.647 -20.108  41.529  0.00  0.00     0.002 A 
ATOM     12  C   UNL d   1      46.525 -19.329  41.286  0.00  0.00     0.001 A 
ENDROOT
BRANCH   4  13
ATOM     13  C   UNL d   1      46.072 -17.452  44.050  0.00  0.00     0.006 A 
ATOM     14  C   UNL d   1      46.437 -16.814  43.688  0.00  0.00     0.001 A 
ATOM     15  C   UNL d   1      46.295 -16.052  43.952  0.00  0.00     0.000 A 
ATOM     16  C   UNL d   1      45.782 -15.927  44.585  0.00  0.00     0.000 A 
ATOM     17  C   UNL d   1      45.409 -16.574  44.955  0.00  0.00     0.000 A 
ATOM     18  C   UNL d   1      45.556 -17.338  44.686  0.00  0.00     0.001 A 
ENDBRANCH   4  13
TORSDOF 1
ENDMDL
MODEL 2
REMARK VINA RESULT:      19.9      1.496      3.312
REMARK  1 active torsions:
REMARK  status: ('A' for Active; 'I' for Inactive)
REMARK    1  A    between atoms: C_9  and  C_4 
ROOT
ATOM      1  S   UNL d   1      46.557 -19.350  42.658  0.00  0.00    -0.085 SA
ATOM      2  N   UNL d   1      46.339 -18.041  43.893  0.00  0.00    -0.207 NA
ATOM      3  C   UNL d   1      46.305 -17.599  43.215  0.00  0.00     0.280 A 
ATOM      4  C   UNL d   1      46.488 -18.703  42.173  0.00  0.00     0.034 A 
ATOM      5  C   UNL d   1      46.374 -17.902  42.418  0.00  0.00     0.069 A 
ATOM      6  C   UNL d   1      46.530 -19.341  43.350  0.00  0.00     0.047 A 
ATOM      7  C   UNL d   1      46.432 -18.753  43.921  0.00  0.00     0.091 A 
ATOM      8  O   UNL d   1      46.194 -16.788  43.301  0.00  0.00    -0.265 OA
ATOM      9  C   UNL d   1      46.626 -20.126  43.579  0.00  0.00     0.008 A 
ATOM     10  C   UNL d   1      46.429 -18.950  44.719  0.00  0.00     0.020 A 
ATOM     11  C   UNL d   1      46.525 -19.741  44.955  0.00  0.00     0.002 A 
ATOM     12  C   UNL d   1      46.624 -20.329  44.385  0.00  0.00     0.001 A 
ENDROOT
BRANCH   4  13
ATOM     13  C   UNL d   1      46.537 -18.845  41.358  0.00  0.00     0.006 A 
ATOM     14  C   UNL d   1      46.537 -18.221  40.828  0.00  0.00     0.001 A 
ATOM     15  C   UNL d   1      46.585 -18.361  40.023  0.00  0.00     0.000 A 
ATOM     16  C   UNL d   1      46.633 -19.135  39.744  0.00  0.00     0.000 A 
ATOM     17  C   UNL d   1      46.632 -19.773  40.281  0.00  0.00     0.000 A 
ATOM     18  C   UNL d   1      46.584 -19.626  41.089  0.00  0.00     0.001 A 
ENDBRANCH   4  13
TORSDOF 1
ENDMDL
