MODEL 1
REMARK VINA RESULT:      43.2      0.000      0.000
REMARK  3 active torsions:
REMARK  status: ('A' for Active; 'I' for Inactive)
REMARK    1  A    between atoms: N_7  and  C_4 
REMARK    2  A    between atoms: N_9  and  N_7 
REMARK       I    between atoms: C_8  and  N_9 
REMARK    3  A    between atoms: C_10  and  C_8 
ROOT
ATOM      1  N   UNL d   1     -55.667 -99.753 -44.162  0.00  0.00    -0.127 NA
ENDROOT
BRANCH   1   2
ATOM      2  C   UNL d   1     -55.427-100.502 -43.899  0.00  0.00     0.178 A 
ATOM      3  N   UNL d   1     -55.239-101.091 -44.442  0.00  0.00    -0.240 N 
ATOM      4  C   UNL d   1     -55.002-101.831 -44.183  0.00  0.00     0.343 A 
ATOM      5  C   UNL d   1     -55.291-100.934 -45.252  0.00  0.00     0.105 C 
ATOM      6  N   UNL d   1     -54.951-101.988 -43.372  0.00  0.00    -0.224 N 
ATOM      7  O   UNL d   1     -54.814-102.423 -44.731  0.00  0.00    -0.245 OA
ATOM      8  C   UNL d   1     -55.137-101.405 -42.813  0.00  0.00     0.271 A 
ATOM      9  C   UNL d   1     -54.712-102.736 -43.110  0.00  0.00     0.107 C 
ATOM     10  C   UNL d   1     -55.376-100.658 -43.089  0.00  0.00     0.101 A 
ATOM     11  O   UNL d   1     -55.086-101.560 -42.012  0.00  0.00    -0.266 OA
ENDBRANCH   1   2
BRANCH   1  12
ATOM     12  N   UNL d   1     -56.417 -99.653 -44.492  0.00  0.00    -0.104 NA
ATOM     13  C   UNL d   1     -56.962 -99.154 -44.125  0.00  0.00     0.297 C 
ATOM     14  O   UNL d   1     -56.759 -98.756 -43.431  0.00  0.00    -0.264 OA
BRANCH  13  15
ATOM     15  C   UNL d   1     -57.712 -99.054 -44.455  0.00  0.00     0.059 A 
ATOM     16  C   UNL d   1     -58.373 -99.036 -43.966  0.00  0.00     0.005 A 
ATOM     17  C   UNL d   1     -59.122 -98.937 -44.288  0.00  0.00     0.000 A 
ATOM     18  C   UNL d   1     -59.786 -98.919 -43.794  0.00  0.00     0.000 C 
ATOM     19  C   UNL d   1     -59.212 -98.854 -45.114  0.00  0.00     0.000 A 
ATOM     20  C   UNL d   1     -58.548 -98.872 -45.603  0.00  0.00     0.000 A 
ATOM     21  C   UNL d   1     -59.961 -98.756 -45.430  0.00  0.00     0.000 C 
ATOM     22  C   UNL d   1     -57.797 -98.973 -45.265  0.00  0.00     0.005 A 
ENDBRANCH  13  15
ENDBRANCH   1  12
TORSDOF 3
ENDMDL
