MODEL 1
REMARK VINA RESULT:       8.5      0.000      0.000
REMARK  2 active torsions:
REMARK  status: ('A' for Active; 'I' for Inactive)
REMARK    1  A    between atoms: C_3  and  C_1 
REMARK       I    between atoms: C_2  and  N_4 
REMARK    2  A    between atoms: N_4  and  C_12 
ROOT
ATOM      1  C   UNL d   1     -51.048  25.866  33.437  0.00  0.00     0.072 A 
ATOM      2  C   UNL d   1     -50.682  25.127  33.389  0.00  0.00     0.005 A 
ATOM      3  C   UNL d   1     -51.872  25.921  33.445  0.00  0.00     0.005 A 
ATOM      4  C   UNL d   1     -51.967  24.498  33.356  0.00  0.00     0.100 A 
ATOM      5  C   UNL d   1     -51.143  24.443  33.348  0.00  0.00     0.020 A 
ATOM      6  C   UNL d   1     -52.332  25.236  33.404  0.00  0.00     0.020 A 
ENDROOT
BRANCH   1   7
ATOM      7  C   UNL d   1     -50.587  26.554  33.478  0.00  0.00     0.419 C 
ATOM      8  F   UNL d   1     -50.168  27.177  33.515  0.00  0.00    -0.166 F 
ATOM      9  F   UNL d   1     -50.809  27.374  33.317  0.00  0.00    -0.166 F 
ATOM     10  F   UNL d   1     -49.755  26.641  33.692  0.00  0.00    -0.166 F 
ENDBRANCH   1   7
BRANCH   4  11
ATOM     11  N   UNL d   1     -52.432  23.815  33.316  0.00  0.00    -0.056 NA
ATOM     12  C   UNL d   1     -53.258  23.868  33.352  0.00  0.00     0.787 C 
ATOM     13  N   UNL d   1     -53.726  23.190  33.313  0.00  0.00     0.064 N 
ATOM     14  N   UNL d   1     -53.612  24.612  33.430  0.00  0.00     0.064 N 
ENDBRANCH   4  11
TORSDOF 2
ENDMDL
MODEL 2
REMARK VINA RESULT:       9.9      2.876      3.557
REMARK  2 active torsions:
REMARK  status: ('A' for Active; 'I' for Inactive)
REMARK    1  A    between atoms: C_3  and  C_1 
REMARK       I    between atoms: C_2  and  N_4 
REMARK    2  A    between atoms: N_4  and  C_12 
ROOT
ATOM      1  C   UNL d   1     -52.806  23.975  33.721  0.00  0.00     0.072 A 
ATOM      2  C   UNL d   1     -52.812  24.797  33.640  0.00  0.00     0.005 A 
ATOM      3  C   UNL d   1     -52.094  23.559  33.664  0.00  0.00     0.005 A 
ATOM      4  C   UNL d   1     -51.395  24.785  33.445  0.00  0.00     0.100 A 
ATOM      5  C   UNL d   1     -52.106  25.201  33.502  0.00  0.00     0.020 A 
ATOM      6  C   UNL d   1     -51.389  23.964  33.526  0.00  0.00     0.020 A 
ENDROOT
BRANCH   1   7
ATOM      7  C   UNL d   1     -53.514  23.567  33.860  0.00  0.00     0.419 C 
ATOM      8  F   UNL d   1     -54.156  23.197  33.987  0.00  0.00    -0.166 F 
ATOM      9  F   UNL d   1     -54.170  23.405  33.319  0.00  0.00    -0.166 F 
ATOM     10  F   UNL d   1     -53.793  23.190  34.585  0.00  0.00    -0.166 F 
ENDBRANCH   1   7
BRANCH   4  11
ATOM     11  N   UNL d   1     -50.686  25.187  33.306  0.00  0.00    -0.056 NA
ATOM     12  C   UNL d   1     -50.631  26.001  33.450  0.00  0.00     0.787 C 
ATOM     13  N   UNL d   1     -49.925  26.406  33.313  0.00  0.00     0.064 N 
ATOM     14  N   UNL d   1     -51.293  26.407  33.733  0.00  0.00     0.064 N 
ENDBRANCH   4  11
TORSDOF 2
ENDMDL
MODEL 3
REMARK VINA RESULT:      10.0      2.712      3.360
REMARK  2 active torsions:
REMARK  status: ('A' for Active; 'I' for Inactive)
REMARK    1  A    between atoms: C_3  and  C_1 
REMARK       I    between atoms: C_2  and  N_4 
REMARK    2  A    between atoms: N_4  and  C_12 
ROOT
ATOM      1  C   UNL d   1     -51.757  24.750  33.341  0.00  0.00     0.072 A 
ATOM      2  C   UNL d   1     -50.983  25.038  33.318  0.00  0.00     0.005 A 
ATOM      3  C   UNL d   1     -52.395  25.275  33.353  0.00  0.00     0.005 A 
ATOM      4  C   UNL d   1     -51.486  26.378  33.319  0.00  0.00     0.100 A 
ATOM      5  C   UNL d   1     -50.849  25.853  33.307  0.00  0.00     0.020 A 
ATOM      6  C   UNL d   1     -52.259  26.090  33.342  0.00  0.00     0.020 A 
ENDROOT
BRANCH   1   7
ATOM      7  C   UNL d   1     -51.894  23.933  33.352  0.00  0.00     0.419 C 
ATOM      8  F   UNL d   1     -52.018  23.191  33.363  0.00  0.00    -0.166 F 
ATOM      9  F   UNL d   1     -52.643  23.501  33.320  0.00  0.00    -0.166 F 
ATOM     10  F   UNL d   1     -51.325  23.285  33.400  0.00  0.00    -0.166 F 
ENDBRANCH   1   7
BRANCH   4  11
ATOM     11  N   UNL d   1     -51.356  27.194  33.307  0.00  0.00    -0.056 NA
ATOM     12  C   UNL d   1     -50.584  27.495  33.325  0.00  0.00     0.787 C 
ATOM     13  N   UNL d   1     -50.449  28.309  33.314  0.00  0.00     0.064 N 
ATOM     14  N   UNL d   1     -49.946  26.970  33.353  0.00  0.00     0.064 N 
ENDBRANCH   4  11
TORSDOF 2
ENDMDL
