MODEL 1
REMARK VINA RESULT:      33.4      0.000      0.000
REMARK  4 active torsions:
REMARK  status: ('A' for Active; 'I' for Inactive)
REMARK    1  A    between atoms: S_18  and  C_6 
REMARK    2  A    between atoms: C_8  and  N_12 
REMARK       I    between atoms: N_12  and  C_16 
REMARK    3  A    between atoms: C_16  and  C_21 
REMARK    4  A    between atoms: C_21  and  S_18 
ROOT
ATOM      1  N   UNL d   1      14.125  12.007  -1.003  0.00  0.00    -0.242 N 
ATOM      2  C   UNL d   1      14.673  12.082  -1.611  0.00  0.00     0.153 A 
ATOM      3  C   UNL d   1      13.333  11.856  -1.180  0.00  0.00     0.357 A 
ATOM      4  N   UNL d   1      14.433  12.006  -2.396  0.00  0.00    -0.203 NA
ATOM      5  N   UNL d   1      13.093  11.780  -1.966  0.00  0.00    -0.167 NA
ATOM      6  C   UNL d   1      13.646  11.855  -2.574  0.00  0.00     0.200 A 
ATOM      7  C   UNL d   1      14.365  12.083  -0.218  0.00  0.00     0.086 A 
ATOM      8  C   UNL d   1      15.465  12.233  -1.433  0.00  0.00     0.038 A 
ATOM      9  C   UNL d   1      15.152  12.234  -0.039  0.00  0.00     0.019 A 
ATOM     10  C   UNL d   1      15.704  12.309  -0.648  0.00  0.00     0.004 A 
ATOM     11  O   UNL d   1      12.769  11.779  -0.567  0.00  0.00    -0.244 OA
ATOM     12  C   UNL d   1      16.500  12.461  -0.472  0.00  0.00     0.000 C 
ENDROOT
BRANCH   6  13
ATOM     13  S   UNL d   1      13.406  11.779  -3.360  0.00  0.00    -0.043 SA
BRANCH  13  14
ATOM     14  C   UNL d   1      12.865  12.314  -3.679  0.00  0.00     0.101 C 
BRANCH  14  15
ATOM     15  C   UNL d   1      13.137  12.982  -4.069  0.00  0.00     0.287 C 
ATOM     16  N   UNL d   1      12.817  13.721  -3.885  0.00  0.00    -0.186 NA
ATOM     17  O   UNL d   1      13.724  12.923  -4.640  0.00  0.00    -0.265 OA
BRANCH  16  18
ATOM     18  C   UNL d   1      13.088  14.396  -4.274  0.00  0.00     0.194 A 
ATOM     19  N   UNL d   1      12.895  14.735  -5.003  0.00  0.00    -0.107 NA
ATOM     20  O   UNL d   1      13.347  15.411  -5.099  0.00  0.00    -0.210 OA
ATOM     21  C   UNL d   1      13.819  15.501  -4.441  0.00  0.00     0.128 A 
ATOM     22  C   UNL d   1      13.660  14.871  -3.926  0.00  0.00     0.068 A 
ATOM     23  C   UNL d   1      14.362  16.124  -4.323  0.00  0.00     0.029 C 
ENDBRANCH  16  18
ENDBRANCH  14  15
ENDBRANCH  13  14
ENDBRANCH   6  13
TORSDOF 4
ENDMDL
MODEL 2
REMARK VINA RESULT:      35.6      2.403      3.788
REMARK  4 active torsions:
REMARK  status: ('A' for Active; 'I' for Inactive)
REMARK    1  A    between atoms: S_18  and  C_6 
REMARK    2  A    between atoms: C_8  and  N_12 
REMARK       I    between atoms: N_12  and  C_16 
REMARK    3  A    between atoms: C_16  and  C_21 
REMARK    4  A    between atoms: C_21  and  S_18 
ROOT
ATOM      1  N   UNL d   1      14.558  11.917  -2.836  0.00  0.00    -0.242 N 
ATOM      2  C   UNL d   1      13.771  11.946  -2.601  0.00  0.00     0.153 A 
ATOM      3  C   UNL d   1      15.154  11.869  -2.267  0.00  0.00     0.357 A 
ATOM      4  N   UNL d   1      13.576  11.928  -1.800  0.00  0.00    -0.203 NA
ATOM      5  N   UNL d   1      14.959  11.851  -1.465  0.00  0.00    -0.167 NA
ATOM      6  C   UNL d   1      14.168  11.881  -1.233  0.00  0.00     0.200 A 
ATOM      7  C   UNL d   1      14.753  11.935  -3.636  0.00  0.00     0.086 A 
ATOM      8  C   UNL d   1      13.175  11.995  -3.171  0.00  0.00     0.038 A 
ATOM      9  C   UNL d   1      14.161  11.983  -4.204  0.00  0.00     0.019 A 
ATOM     10  C   UNL d   1      13.370  12.013  -3.971  0.00  0.00     0.004 A 
ATOM     11  O   UNL d   1      15.958  11.838  -2.497  0.00  0.00    -0.244 OA
ATOM     12  C   UNL d   1      12.770  12.061  -4.541  0.00  0.00     0.000 C 
ENDROOT
BRANCH   6  13
ATOM     13  S   UNL d   1      13.973  11.862  -0.432  0.00  0.00    -0.043 SA
BRANCH  13  14
ATOM     14  C   UNL d   1      13.876  12.568  -0.015  0.00  0.00     0.101 C 
BRANCH  14  15
ATOM     15  C   UNL d   1      14.460  13.142  -0.050  0.00  0.00     0.287 C 
ATOM     16  N   UNL d   1      14.248  13.937  -0.122  0.00  0.00    -0.186 NA
ATOM     17  O   UNL d   1      15.254  12.933  -0.015  0.00  0.00    -0.265 OA
BRANCH  16  18
ATOM     18  C   UNL d   1      14.833  14.519  -0.158  0.00  0.00     0.194 A 
ATOM     19  N   UNL d   1      15.647  14.501  -0.015  0.00  0.00    -0.107 NA
ATOM     20  O   UNL d   1      15.946  15.253  -0.139  0.00  0.00    -0.210 OA
ATOM     21  C   UNL d   1      15.331  15.741  -0.358  0.00  0.00     0.128 A 
ATOM     22  C   UNL d   1      14.637  15.287  -0.371  0.00  0.00     0.068 A 
ATOM     23  C   UNL d   1      15.404  16.553  -0.535  0.00  0.00     0.029 C 
ENDBRANCH  16  18
ENDBRANCH  14  15
ENDBRANCH  13  14
ENDBRANCH   6  13
TORSDOF 4
ENDMDL
MODEL 3
REMARK VINA RESULT:      36.0      2.470      3.436
REMARK  4 active torsions:
REMARK  status: ('A' for Active; 'I' for Inactive)
REMARK    1  A    between atoms: S_18  and  C_6 
REMARK    2  A    between atoms: C_8  and  N_12 
REMARK       I    between atoms: N_12  and  C_16 
REMARK    3  A    between atoms: C_16  and  C_21 
REMARK    4  A    between atoms: C_21  and  S_18 
ROOT
ATOM      1  N   UNL d   1      13.558  12.253  -2.123  0.00  0.00    -0.242 N 
ATOM      2  C   UNL d   1      14.047  12.719  -2.589  0.00  0.00     0.153 A 
ATOM      3  C   UNL d   1      13.651  12.252  -1.303  0.00  0.00     0.357 A 
ATOM      4  N   UNL d   1      14.631  13.186  -2.240  0.00  0.00    -0.203 NA
ATOM      5  N   UNL d   1      14.234  12.718  -0.953  0.00  0.00    -0.167 NA
ATOM      6  C   UNL d   1      14.725  13.186  -1.424  0.00  0.00     0.200 A 
ATOM      7  C   UNL d   1      12.975  11.786  -2.472  0.00  0.00     0.086 A 
ATOM      8  C   UNL d   1      13.954  12.720  -3.410  0.00  0.00     0.038 A 
ATOM      9  C   UNL d   1      12.880  11.786  -3.288  0.00  0.00     0.019 A 
ATOM     10  C   UNL d   1      13.371  12.254  -3.759  0.00  0.00     0.004 A 
ATOM     11  O   UNL d   1      13.156  11.779  -0.821  0.00  0.00    -0.244 OA
ATOM     12  C   UNL d   1      13.279  12.256  -4.583  0.00  0.00     0.000 C 
ENDROOT
BRANCH   6  13
ATOM     13  S   UNL d   1      15.308  13.653  -1.075  0.00  0.00    -0.043 SA
BRANCH  13  14
ATOM     14  C   UNL d   1      15.107  14.183  -0.474  0.00  0.00     0.101 C 
BRANCH  14  15
ATOM     15  C   UNL d   1      15.235  14.985  -0.583  0.00  0.00     0.287 C 
ATOM     16  N   UNL d   1      14.959  15.354  -1.269  0.00  0.00    -0.186 NA
ATOM     17  O   UNL d   1      15.634  15.425  -0.016  0.00  0.00    -0.265 OA
BRANCH  16  18
ATOM     18  C   UNL d   1      15.085  16.161  -1.382  0.00  0.00     0.194 A 
ATOM     19  N   UNL d   1      15.278  16.774  -0.863  0.00  0.00    -0.107 NA
ATOM     20  O   UNL d   1      15.333  17.468  -1.293  0.00  0.00    -0.210 OA
ATOM     21  C   UNL d   1      15.177  17.299  -2.075  0.00  0.00     0.128 A 
ATOM     22  C   UNL d   1      15.023  16.486  -2.134  0.00  0.00     0.068 A 
ATOM     23  C   UNL d   1      15.177  17.857  -2.695  0.00  0.00     0.029 C 
ENDBRANCH  16  18
ENDBRANCH  14  15
ENDBRANCH  13  14
ENDBRANCH   6  13
TORSDOF 4
ENDMDL
