MODEL 1
REMARK VINA RESULT:      -8.6      0.000      0.000
REMARK  5 active torsions:
REMARK  status: ('A' for Active; 'I' for Inactive)
REMARK    1  A    between atoms: N_8  and  C_1 
REMARK    2  A    between atoms: C_11  and  N_4 
REMARK    3  A    between atoms: N_6  and  C_7 
REMARK       I    between atoms: C_9  and  N_6 
REMARK    4  A    between atoms: C_7  and  N_8 
REMARK    5  A    between atoms: C_14  and  C_9 
ROOT
ATOM      1  C   UNL d   1      51.420  33.880  53.059  0.00  0.00     0.209 A 
ATOM      2  C   UNL d   1      52.556  34.403  53.593  0.00  0.00     0.310 A 
ATOM      3  N   UNL d   1      52.364  33.057  53.587  0.00  0.00    -0.237 N 
ATOM      4  N   UNL d   1      52.806  33.679  53.766  0.00  0.00    -0.208 N 
ATOM      5  C   UNL d   1      51.670  33.160  53.232  0.00  0.00     0.116 A 
ATOM      6  O   UNL d   1      52.867  35.203  53.696  0.00  0.00    -0.262 OA
ATOM      7  C   UNL d   1      52.614  32.337  53.760  0.00  0.00     0.120 C 
ATOM      8  C   UNL d   1      51.229  32.533  53.053  0.00  0.00     0.024 C 
ENDROOT
BRANCH   1   9
ATOM      9  N   UNL d   1      50.711  34.211  52.682  0.00  0.00    -0.366 NA
BRANCH   9  10
ATOM     10  C   UNL d   1      50.035  34.527  52.322  0.00  0.00     0.275 C 
ATOM     11  S   UNL d   1      49.864  34.351  51.528  0.00  0.00    -0.023 SA
BRANCH  10  12
ATOM     12  N   UNL d   1      49.528  35.020  52.757  0.00  0.00    -0.168 NA
ATOM     13  C   UNL d   1      48.787  35.225  52.447  0.00  0.00     0.282 C 
ATOM     14  O   UNL d   1      48.551  34.937  51.704  0.00  0.00    -0.265 OA
BRANCH  13  15
ATOM     15  C   UNL d   1      48.281  35.718  52.882  0.00  0.00     0.058 A 
ATOM     16  C   UNL d   1      48.407  35.831  53.691  0.00  0.00     0.005 A 
ATOM     17  C   UNL d   1      47.897  36.326  54.126  0.00  0.00     0.000 A 
ATOM     18  C   UNL d   1      47.257  36.709  53.739  0.00  0.00     0.000 A 
ATOM     19  C   UNL d   1      47.137  36.590  52.925  0.00  0.00     0.000 A 
ATOM     20  C   UNL d   1      47.644  36.099  52.499  0.00  0.00     0.005 A 
ENDBRANCH  13  15
ENDBRANCH  10  12
ENDBRANCH   9  10
ENDBRANCH   1   9
BRANCH   4  21
ATOM     21  C   UNL d   1      53.497  33.580  54.119  0.00  0.00     0.085 A 
ATOM     22  C   UNL d   1      53.559  33.689  54.890  0.00  0.00     0.019 A 
ATOM     23  C   UNL d   1      54.248  33.592  55.251  0.00  0.00     0.002 A 
ATOM     24  C   UNL d   1      54.887  33.381  54.825  0.00  0.00     0.000 A 
ATOM     25  C   UNL d   1      54.816  33.273  54.052  0.00  0.00     0.002 A 
ATOM     26  C   UNL d   1      54.125  33.372  53.700  0.00  0.00     0.019 A 
ENDBRANCH   4  21
TORSDOF 5
ENDMDL
MODEL 2
REMARK VINA RESULT:      -7.3      1.451      5.746
REMARK  5 active torsions:
REMARK  status: ('A' for Active; 'I' for Inactive)
REMARK    1  A    between atoms: N_8  and  C_1 
REMARK    2  A    between atoms: C_11  and  N_4 
REMARK    3  A    between atoms: N_6  and  C_7 
REMARK       I    between atoms: C_9  and  N_6 
REMARK    4  A    between atoms: C_7  and  N_8 
REMARK    5  A    between atoms: C_14  and  C_9 
ROOT
ATOM      1  C   UNL d   1      50.081  34.660  52.571  0.00  0.00     0.209 A 
ATOM      2  C   UNL d   1      49.052  35.403  53.061  0.00  0.00     0.310 A 
ATOM      3  N   UNL d   1      48.958  34.840  51.827  0.00  0.00    -0.237 N 
ATOM      4  N   UNL d   1      48.648  35.274  52.400  0.00  0.00    -0.208 N 
ATOM      5  C   UNL d   1      49.677  34.533  51.914  0.00  0.00     0.116 A 
ATOM      6  O   UNL d   1      48.911  35.834  53.796  0.00  0.00    -0.262 OA
ATOM      7  C   UNL d   1      48.554  34.713  51.170  0.00  0.00     0.120 C 
ATOM      8  C   UNL d   1      49.986  34.098  51.336  0.00  0.00     0.024 C 
ENDROOT
BRANCH   1   9
ATOM      9  N   UNL d   1      50.863  34.426  52.867  0.00  0.00    -0.366 NA
BRANCH   9  10
ATOM     10  C   UNL d   1      51.610  34.202  53.150  0.00  0.00     0.275 C 
ATOM     11  S   UNL d   1      52.153  34.781  53.395  0.00  0.00    -0.023 SA
BRANCH  10  12
ATOM     12  N   UNL d   1      51.813  33.399  53.187  0.00  0.00    -0.168 NA
ATOM     13  C   UNL d   1      52.611  33.177  53.221  0.00  0.00     0.282 C 
ATOM     14  O   UNL d   1      53.206  33.757  53.218  0.00  0.00    -0.265 OA
BRANCH  13  15
ATOM     15  C   UNL d   1      52.814  32.373  53.258  0.00  0.00     0.058 A 
ATOM     16  C   UNL d   1      52.376  31.815  52.834  0.00  0.00     0.005 A 
ATOM     17  C   UNL d   1      52.581  31.009  52.873  0.00  0.00     0.000 A 
ATOM     18  C   UNL d   1      53.234  30.766  53.344  0.00  0.00     0.000 A 
ATOM     19  C   UNL d   1      53.669  31.334  53.767  0.00  0.00     0.000 A 
ATOM     20  C   UNL d   1      53.462  32.131  53.726  0.00  0.00     0.005 A 
ENDBRANCH  13  15
ENDBRANCH  10  12
ENDBRANCH   9  10
ENDBRANCH   1   9
BRANCH   4  21
ATOM     21  C   UNL d   1      47.933  35.580  52.317  0.00  0.00     0.085 A 
ATOM     22  C   UNL d   1      47.848  36.291  52.003  0.00  0.00     0.019 A 
ATOM     23  C   UNL d   1      47.135  36.605  51.916  0.00  0.00     0.002 A 
ATOM     24  C   UNL d   1      46.495  36.193  52.150  0.00  0.00     0.000 A 
ATOM     25  C   UNL d   1      46.588  35.481  52.463  0.00  0.00     0.002 A 
ATOM     26  C   UNL d   1      47.303  35.175  52.546  0.00  0.00     0.019 A 
ENDBRANCH   4  21
TORSDOF 5
ENDMDL
MODEL 3
REMARK VINA RESULT:      -7.2      1.990      3.053
REMARK  5 active torsions:
REMARK  status: ('A' for Active; 'I' for Inactive)
REMARK    1  A    between atoms: N_8  and  C_1 
REMARK    2  A    between atoms: C_11  and  N_4 
REMARK    3  A    between atoms: N_6  and  C_7 
REMARK       I    between atoms: C_9  and  N_6 
REMARK    4  A    between atoms: C_7  and  N_8 
REMARK    5  A    between atoms: C_14  and  C_9 
ROOT
ATOM      1  C   UNL d   1      52.610  32.747  53.193  0.00  0.00     0.209 A 
ATOM      2  C   UNL d   1      52.169  31.467  53.332  0.00  0.00     0.310 A 
ATOM      3  N   UNL d   1      53.495  31.747  53.445  0.00  0.00    -0.237 N 
ATOM      4  N   UNL d   1      52.907  31.229  53.454  0.00  0.00    -0.208 N 
ATOM      5  C   UNL d   1      53.344  32.507  53.314  0.00  0.00     0.116 A 
ATOM      6  O   UNL d   1      51.394  31.084  53.300  0.00  0.00    -0.262 OA
ATOM      7  C   UNL d   1      54.229  31.507  53.566  0.00  0.00     0.120 C 
ATOM      8  C   UNL d   1      53.936  33.025  53.305  0.00  0.00     0.024 C 
ENDROOT
BRANCH   1   9
ATOM      9  N   UNL d   1      52.230  33.512  53.034  0.00  0.00    -0.366 NA
BRANCH   9  10
ATOM     10  C   UNL d   1      51.868  34.242  52.883  0.00  0.00     0.275 C 
ATOM     11  S   UNL d   1      52.133  34.927  53.271  0.00  0.00    -0.023 SA
BRANCH  10  12
ATOM     12  N   UNL d   1      51.240  34.286  52.343  0.00  0.00    -0.168 NA
ATOM     13  C   UNL d   1      50.483  34.496  52.607  0.00  0.00     0.282 C 
ATOM     14  O   UNL d   1      50.353  34.661  53.412  0.00  0.00    -0.265 OA
BRANCH  13  15
ATOM     15  C   UNL d   1      49.855  34.541  52.067  0.00  0.00     0.058 A 
ATOM     16  C   UNL d   1      49.933  34.212  51.313  0.00  0.00     0.005 A 
ATOM     17  C   UNL d   1      49.301  34.258  50.772  0.00  0.00     0.000 A 
ATOM     18  C   UNL d   1      48.586  34.639  50.996  0.00  0.00     0.000 A 
ATOM     19  C   UNL d   1      48.516  34.967  51.757  0.00  0.00     0.000 A 
ATOM     20  C   UNL d   1      49.144  34.919  52.289  0.00  0.00     0.005 A 
ENDBRANCH  13  15
ENDBRANCH  10  12
ENDBRANCH   9  10
ENDBRANCH   1   9
BRANCH   4  21
ATOM     21  C   UNL d   1      53.054  30.471  53.584  0.00  0.00     0.085 A 
ATOM     22  C   UNL d   1      53.110  29.977  52.982  0.00  0.00     0.019 A 
ATOM     23  C   UNL d   1      53.257  29.217  53.105  0.00  0.00     0.002 A 
ATOM     24  C   UNL d   1      53.350  28.951  53.850  0.00  0.00     0.000 A 
ATOM     25  C   UNL d   1      53.292  29.454  54.448  0.00  0.00     0.002 A 
ATOM     26  C   UNL d   1      53.145  30.210  54.317  0.00  0.00     0.019 A 
ENDBRANCH   4  21
TORSDOF 5
ENDMDL
MODEL 4
REMARK VINA RESULT:      -6.8      1.273      5.970
REMARK  5 active torsions:
REMARK  status: ('A' for Active; 'I' for Inactive)
REMARK    1  A    between atoms: N_8  and  C_1 
REMARK    2  A    between atoms: C_11  and  N_4 
REMARK    3  A    between atoms: N_6  and  C_7 
REMARK       I    between atoms: C_9  and  N_6 
REMARK    4  A    between atoms: C_7  and  N_8 
REMARK    5  A    between atoms: C_14  and  C_9 
ROOT
ATOM      1  C   UNL d   1      48.779  35.157  52.533  0.00  0.00     0.209 A 
ATOM      2  C   UNL d   1      47.637  35.172  51.793  0.00  0.00     0.310 A 
ATOM      3  N   UNL d   1      47.692  35.845  52.974  0.00  0.00    -0.237 N 
ATOM      4  N   UNL d   1      47.295  35.626  52.335  0.00  0.00    -0.208 N 
ATOM      5  C   UNL d   1      48.436  35.609  53.071  0.00  0.00     0.116 A 
ATOM      6  O   UNL d   1      47.396  34.824  51.040  0.00  0.00    -0.262 OA
ATOM      7  C   UNL d   1      47.350  36.296  53.512  0.00  0.00     0.120 C 
ATOM      8  C   UNL d   1      48.833  35.831  53.713  0.00  0.00     0.024 C 
ENDROOT
BRANCH   1   9
ATOM      9  N   UNL d   1      49.562  34.795  52.442  0.00  0.00    -0.366 NA
BRANCH   9  10
ATOM     10  C   UNL d   1      50.311  34.449  52.355  0.00  0.00     0.275 C 
ATOM     11  S   UNL d   1      50.518  34.077  51.641  0.00  0.00    -0.023 SA
BRANCH  10  12
ATOM     12  N   UNL d   1      50.852  34.475  52.983  0.00  0.00    -0.168 NA
ATOM     13  C   UNL d   1      51.663  34.394  52.831  0.00  0.00     0.282 C 
ATOM     14  O   UNL d   1      51.933  34.289  52.053  0.00  0.00    -0.265 OA
BRANCH  13  15
ATOM     15  C   UNL d   1      52.205  34.420  53.460  0.00  0.00     0.058 A 
ATOM     16  C   UNL d   1      52.506  35.145  53.717  0.00  0.00     0.005 A 
ATOM     17  C   UNL d   1      53.050  35.168  54.348  0.00  0.00     0.000 A 
ATOM     18  C   UNL d   1      53.289  34.454  54.720  0.00  0.00     0.000 A 
ATOM     19  C   UNL d   1      52.980  33.729  54.455  0.00  0.00     0.000 A 
ATOM     20  C   UNL d   1      52.443  33.711  53.830  0.00  0.00     0.005 A 
ENDBRANCH  13  15
ENDBRANCH  10  12
ENDBRANCH   9  10
ENDBRANCH   1   9
BRANCH   4  21
ATOM     21  C   UNL d   1      46.554  35.859  52.236  0.00  0.00     0.085 A 
ATOM     22  C   UNL d   1      45.974  35.476  52.592  0.00  0.00     0.019 A 
ATOM     23  C   UNL d   1      45.230  35.704  52.498  0.00  0.00     0.002 A 
ATOM     24  C   UNL d   1      45.069  36.330  52.034  0.00  0.00     0.000 A 
ATOM     25  C   UNL d   1      45.656  36.709  51.680  0.00  0.00     0.002 A 
ATOM     26  C   UNL d   1      46.395  36.476  51.779  0.00  0.00     0.019 A 
ENDBRANCH   4  21
TORSDOF 5
ENDMDL
MODEL 5
REMARK VINA RESULT:      -6.8      2.273      5.738
REMARK  5 active torsions:
REMARK  status: ('A' for Active; 'I' for Inactive)
REMARK    1  A    between atoms: N_8  and  C_1 
REMARK    2  A    between atoms: C_11  and  N_4 
REMARK    3  A    between atoms: N_6  and  C_7 
REMARK       I    between atoms: C_9  and  N_6 
REMARK    4  A    between atoms: C_7  and  N_8 
REMARK    5  A    between atoms: C_14  and  C_9 
ROOT
ATOM      1  C   UNL d   1      52.406  33.438  53.555  0.00  0.00     0.209 A 
ATOM      2  C   UNL d   1      51.098  33.291  53.211  0.00  0.00     0.310 A 
ATOM      3  N   UNL d   1      51.703  34.502  53.084  0.00  0.00    -0.237 N 
ATOM      4  N   UNL d   1      51.067  34.050  53.012  0.00  0.00    -0.208 N 
ATOM      5  C   UNL d   1      52.373  34.193  53.357  0.00  0.00     0.116 A 
ATOM      6  O   UNL d   1      50.539  32.632  53.213  0.00  0.00    -0.262 OA
ATOM      7  C   UNL d   1      51.671  35.257  52.886  0.00  0.00     0.120 C 
ATOM      8  C   UNL d   1      53.010  34.650  53.428  0.00  0.00     0.024 C 
ENDROOT
BRANCH   1   9
ATOM      9  N   UNL d   1      53.020  32.909  53.866  0.00  0.00    -0.366 NA
BRANCH   9  10
ATOM     10  C   UNL d   1      53.607  32.405  54.163  0.00  0.00     0.275 C 
ATOM     11  S   UNL d   1      54.376  32.691  54.294  0.00  0.00    -0.023 SA
BRANCH  10  12
ATOM     12  N   UNL d   1      53.424  31.613  54.330  0.00  0.00    -0.168 NA
ATOM     13  C   UNL d   1      53.655  31.017  53.803  0.00  0.00     0.282 C 
ATOM     14  O   UNL d   1      54.070  31.211  53.110  0.00  0.00    -0.265 OA
BRANCH  13  15
ATOM     15  C   UNL d   1      53.472  30.225  53.970  0.00  0.00     0.058 A 
ATOM     16  C   UNL d   1      53.700  29.890  54.690  0.00  0.00     0.005 A 
ATOM     17  C   UNL d   1      53.515  29.094  54.855  0.00  0.00     0.000 A 
ATOM     18  C   UNL d   1      53.097  28.636  54.288  0.00  0.00     0.000 A 
ATOM     19  C   UNL d   1      52.872  28.981  53.566  0.00  0.00     0.000 A 
ATOM     20  C   UNL d   1      53.057  29.768  53.407  0.00  0.00     0.005 A 
ENDBRANCH  13  15
ENDBRANCH  10  12
ENDBRANCH   9  10
ENDBRANCH   1   9
BRANCH   4  21
ATOM     21  C   UNL d   1      50.399  34.355  52.742  0.00  0.00     0.085 A 
ATOM     22  C   UNL d   1      50.215  34.278  51.986  0.00  0.00     0.019 A 
ATOM     23  C   UNL d   1      49.547  34.581  51.708  0.00  0.00     0.002 A 
ATOM     24  C   UNL d   1      49.057  34.967  52.201  0.00  0.00     0.000 A 
ATOM     25  C   UNL d   1      49.249  35.040  52.958  0.00  0.00     0.002 A 
ATOM     26  C   UNL d   1      49.916  34.735  53.227  0.00  0.00     0.019 A 
ENDBRANCH   4  21
TORSDOF 5
ENDMDL
MODEL 6
REMARK VINA RESULT:      -5.8      2.066      3.352
REMARK  5 active torsions:
REMARK  status: ('A' for Active; 'I' for Inactive)
REMARK    1  A    between atoms: N_8  and  C_1 
REMARK    2  A    between atoms: C_11  and  N_4 
REMARK    3  A    between atoms: N_6  and  C_7 
REMARK       I    between atoms: C_9  and  N_6 
REMARK    4  A    between atoms: C_7  and  N_8 
REMARK    5  A    between atoms: C_14  and  C_9 
ROOT
ATOM      1  C   UNL d   1      48.529  35.191  52.265  0.00  0.00     0.209 A 
ATOM      2  C   UNL d   1      49.588  35.013  53.100  0.00  0.00     0.310 A 
ATOM      3  N   UNL d   1      49.597  34.454  51.861  0.00  0.00    -0.237 N 
ATOM      4  N   UNL d   1      49.946  34.581  52.551  0.00  0.00    -0.208 N 
ATOM      5  C   UNL d   1      48.887  34.761  51.719  0.00  0.00     0.116 A 
ATOM      6  O   UNL d   1      49.780  35.272  53.902  0.00  0.00    -0.262 OA
ATOM      7  C   UNL d   1      49.955  34.024  51.315  0.00  0.00     0.120 C 
ATOM      8  C   UNL d   1      48.540  34.632  51.025  0.00  0.00     0.024 C 
ENDROOT
BRANCH   1   9
ATOM      9  N   UNL d   1      47.771  35.610  52.318  0.00  0.00    -0.366 NA
BRANCH   9  10
ATOM     10  C   UNL d   1      47.046  36.010  52.369  0.00  0.00     0.275 C 
ATOM     11  S   UNL d   1      46.706  36.344  51.689  0.00  0.00    -0.023 SA
BRANCH  10  12
ATOM     12  N   UNL d   1      46.662  36.076  53.102  0.00  0.00    -0.168 NA
ATOM     13  C   UNL d   1      45.867  35.854  53.171  0.00  0.00     0.282 C 
ATOM     14  O   UNL d   1      45.455  35.566  52.509  0.00  0.00    -0.265 OA
BRANCH  13  15
ATOM     15  C   UNL d   1      45.483  35.920  53.904  0.00  0.00     0.058 A 
ATOM     16  C   UNL d   1      45.467  36.644  54.300  0.00  0.00     0.005 A 
ATOM     17  C   UNL d   1      45.081  36.708  55.035  0.00  0.00     0.000 A 
ATOM     18  C   UNL d   1      44.709  36.034  55.371  0.00  0.00     0.000 A 
ATOM     19  C   UNL d   1      44.729  35.308  54.966  0.00  0.00     0.000 A 
ATOM     20  C   UNL d   1      45.112  35.250  54.239  0.00  0.00     0.005 A 
ENDBRANCH  13  15
ENDBRANCH  10  12
ENDBRANCH   9  10
ENDBRANCH   1   9
BRANCH   4  21
ATOM     21  C   UNL d   1      50.653  34.277  52.694  0.00  0.00     0.085 A 
ATOM     22  C   UNL d   1      51.294  34.659  52.465  0.00  0.00     0.019 A 
ATOM     23  C   UNL d   1      52.005  34.361  52.605  0.00  0.00     0.002 A 
ATOM     24  C   UNL d   1      52.070  33.664  52.984  0.00  0.00     0.000 A 
ATOM     25  C   UNL d   1      51.421  33.287  53.212  0.00  0.00     0.002 A 
ATOM     26  C   UNL d   1      50.716  33.591  53.068  0.00  0.00     0.019 A 
ENDBRANCH   4  21
TORSDOF 5
ENDMDL
