MODEL 1
REMARK VINA RESULT:      12.9      0.000      0.000
REMARK  4 active torsions:
REMARK  status: ('A' for Active; 'I' for Inactive)
REMARK    1  A    between atoms: C_2  and  S_1 
REMARK    2  A    between atoms: N_3  and  S_1 
REMARK    3  A    between atoms: C_4  and  N_3 
REMARK    4  A    between atoms: O_12  and  C_10 
ROOT
ATOM      1  N   UNL d   1      44.945 -14.175  43.987  0.00  0.00    -0.156 NA
ENDROOT
BRANCH   1   2
ATOM      2  S   UNL d   1      45.217 -14.943  44.255  0.00  0.00     0.291 S 
ATOM      3  O   UNL d   1      45.806 -14.932  43.671  0.00  0.00    -0.198 OA
ATOM      4  O   UNL d   1      44.626 -14.949  44.837  0.00  0.00    -0.198 OA
BRANCH   2   5
ATOM      5  C   UNL d   1      45.479 -15.686  44.514  0.00  0.00     0.135 A 
ATOM      6  S   UNL d   1      46.232 -15.984  44.605  0.00  0.00    -0.073 SA
ATOM      7  C   UNL d   1      46.150 -16.740  44.876  0.00  0.00     0.036 A 
ATOM      8  C   UNL d   1      45.376 -16.905  44.951  0.00  0.00     0.008 A 
ATOM      9  C   UNL d   1      44.928 -16.265  44.732  0.00  0.00     0.020 A 
ENDBRANCH   2   5
ENDBRANCH   1   2
BRANCH   1  10
ATOM     10  C   UNL d   1      45.398 -13.474  44.186  0.00  0.00     0.116 A 
ATOM     11  C   UNL d   1      45.276 -12.744  43.739  0.00  0.00     0.112 A 
ATOM     12  C   UNL d   1      45.674 -12.096  43.900  0.00  0.00     0.026 A 
ATOM     13  C   UNL d   1      46.237 -12.080  44.513  0.00  0.00     0.002 A 
ATOM     14  C   UNL d   1      46.372 -12.764  44.954  0.00  0.00     0.002 A 
ATOM     15  C   UNL d   1      45.943 -13.464  44.781  0.00  0.00     0.022 A 
BRANCH  11  16
ATOM     16  O   UNL d   1      44.715 -12.713  43.109  0.00  0.00    -0.327 OA
ATOM     17  C   UNL d   1      44.769 -12.145  42.538  0.00  0.00     0.181 C 
ENDBRANCH  11  16
ENDBRANCH   1  10
TORSDOF 4
ENDMDL
MODEL 2
REMARK VINA RESULT:      14.9      2.098      4.427
REMARK  4 active torsions:
REMARK  status: ('A' for Active; 'I' for Inactive)
REMARK    1  A    between atoms: C_2  and  S_1 
REMARK    2  A    between atoms: N_3  and  S_1 
REMARK    3  A    between atoms: C_4  and  N_3 
REMARK    4  A    between atoms: O_12  and  C_10 
ROOT
ATOM      1  N   UNL d   1      45.937 -17.205  44.852  0.00  0.00    -0.156 NA
ENDROOT
BRANCH   1   2
ATOM      2  S   UNL d   1      45.738 -16.371  44.818  0.00  0.00     0.291 S 
ATOM      3  O   UNL d   1      46.543 -16.188  44.735  0.00  0.00    -0.198 OA
ATOM      4  O   UNL d   1      44.935 -16.559  44.901  0.00  0.00    -0.198 OA
BRANCH   2   5
ATOM      5  C   UNL d   1      45.546 -15.565  44.785  0.00  0.00     0.135 A 
ATOM      6  S   UNL d   1      46.001 -14.914  44.605  0.00  0.00    -0.073 SA
ATOM      7  C   UNL d   1      45.518 -14.271  44.661  0.00  0.00     0.036 A 
ATOM      8  C   UNL d   1      44.789 -14.511  44.869  0.00  0.00     0.008 A 
ATOM      9  C   UNL d   1      44.773 -15.318  44.955  0.00  0.00     0.020 A 
ENDBRANCH   2   5
ENDBRANCH   1   2
BRANCH   1  10
ATOM     10  C   UNL d   1      46.061 -17.639  44.123  0.00  0.00     0.116 A 
ATOM     11  C   UNL d   1      46.366 -18.447  44.152  0.00  0.00     0.112 A 
ATOM     12  C   UNL d   1      46.487 -18.862  43.505  0.00  0.00     0.026 A 
ATOM     13  C   UNL d   1      46.326 -18.540  42.754  0.00  0.00     0.002 A 
ATOM     14  C   UNL d   1      46.035 -17.771  42.700  0.00  0.00     0.002 A 
ATOM     15  C   UNL d   1      45.904 -17.323  43.397  0.00  0.00     0.022 A 
BRANCH  11  16
ATOM     16  O   UNL d   1      46.543 -18.815  44.891  0.00  0.00    -0.327 OA
ATOM     17  C   UNL d   1      46.572 -19.619  44.955  0.00  0.00     0.181 C 
ENDBRANCH  11  16
ENDBRANCH   1  10
TORSDOF 4
ENDMDL
