MODEL 1
REMARK VINA RESULT:      -9.7      0.000      0.000
REMARK  2 active torsions:
REMARK  status: ('A' for Active; 'I' for Inactive)
REMARK    1  A    between atoms: C_7  and  C_1 
REMARK    2  A    between atoms: C_9  and  C_1 
ROOT
ATOM      1  C   UNL d   1     -47.651  13.781  22.852  0.00  0.00     0.240 A 
ATOM      2  S   UNL d   1     -46.932  13.420  23.007  0.00  0.00    -0.043 SA
ATOM      3  N   UNL d   1     -48.349  13.348  22.929  0.00  0.00    -0.199 NA
ATOM      4  C   UNL d   1     -46.904  12.630  23.238  0.00  0.00     0.181 A 
ATOM      5  N   UNL d   1     -47.602  12.197  23.315  0.00  0.00    -0.237 N 
ATOM      6  C   UNL d   1     -48.328  12.553  23.161  0.00  0.00     0.352 A 
ATOM      7  N   UNL d   1     -46.178  12.273  23.393  0.00  0.00    -0.221 NA
ATOM      8  O   UNL d   1     -49.030  12.127  23.236  0.00  0.00    -0.244 OA
ATOM      9  C   UNL d   1     -47.574  11.407  23.546  0.00  0.00     0.088 A 
ATOM     10  C   UNL d   1     -46.154  11.491  23.621  0.00  0.00     0.103 A 
ATOM     11  C   UNL d   1     -46.852  11.057  23.698  0.00  0.00     0.040 A 
ENDROOT
BRANCH   1  12
ATOM     12  C   UNL d   1     -46.953  14.214  22.776  0.00  0.00     0.429 C 
ATOM     13  F   UNL d   1     -46.317  14.604  22.693  0.00  0.00    -0.167 F 
ATOM     14  F   UNL d   1     -46.453  14.293  22.083  0.00  0.00    -0.167 F 
ATOM     15  F   UNL d   1     -46.547  14.692  23.352  0.00  0.00    -0.167 F 
ENDBRANCH   1  12
BRANCH   1  16
ATOM     16  C   UNL d   1     -48.384  14.133  22.699  0.00  0.00     0.016 A 
ATOM     17  C   UNL d   1     -48.778  14.541  23.306  0.00  0.00    -0.001 A 
ATOM     18  C   UNL d   1     -49.509  14.893  23.156  0.00  0.00    -0.000 A 
ATOM     19  C   UNL d   1     -49.848  14.837  22.397  0.00  0.00    -0.000 A 
ATOM     20  C   UNL d   1     -49.445  14.428  21.801  0.00  0.00    -0.000 A 
ATOM     21  C   UNL d   1     -48.715  14.075  21.946  0.00  0.00    -0.001 A 
ENDBRANCH   1  16
TORSDOF 2
ENDMDL
MODEL 2
REMARK VINA RESULT:      -9.7      1.952      2.566
REMARK  2 active torsions:
REMARK  status: ('A' for Active; 'I' for Inactive)
REMARK    1  A    between atoms: C_7  and  C_1 
REMARK    2  A    between atoms: C_9  and  C_1 
ROOT
ATOM      1  C   UNL d   1     -48.595  12.332  22.980  0.00  0.00     0.240 A 
ATOM      2  S   UNL d   1     -47.778  12.261  22.979  0.00  0.00    -0.043 SA
ATOM      3  N   UNL d   1     -48.938  13.082  22.952  0.00  0.00    -0.199 NA
ATOM      4  C   UNL d   1     -47.302  12.931  22.951  0.00  0.00     0.181 A 
ATOM      5  N   UNL d   1     -47.645  13.681  22.924  0.00  0.00    -0.237 N 
ATOM      6  C   UNL d   1     -48.464  13.760  22.925  0.00  0.00     0.352 A 
ATOM      7  N   UNL d   1     -46.482  12.852  22.951  0.00  0.00    -0.221 NA
ATOM      8  O   UNL d   1     -48.814  14.507  22.897  0.00  0.00    -0.244 OA
ATOM      9  C   UNL d   1     -47.168  14.352  22.897  0.00  0.00     0.088 A 
ATOM     10  C   UNL d   1     -46.013  13.519  22.924  0.00  0.00     0.103 A 
ATOM     11  C   UNL d   1     -46.356  14.269  22.897  0.00  0.00     0.040 A 
ENDROOT
BRANCH   1  12
ATOM     12  C   UNL d   1     -48.252  11.582  23.007  0.00  0.00     0.429 C 
ATOM     13  F   UNL d   1     -47.940  10.901  23.044  0.00  0.00    -0.167 F 
ATOM     14  F   UNL d   1     -47.998  11.141  23.697  0.00  0.00    -0.167 F 
ATOM     15  F   UNL d   1     -48.060  11.051  22.369  0.00  0.00    -0.167 F 
ENDBRANCH   1  12
BRANCH   1  16
ATOM     16  C   UNL d   1     -49.417  12.419  22.980  0.00  0.00     0.016 A 
ATOM     17  C   UNL d   1     -49.827  12.452  22.257  0.00  0.00    -0.001 A 
ATOM     18  C   UNL d   1     -50.647  12.539  22.254  0.00  0.00    -0.000 A 
ATOM     19  C   UNL d   1     -51.061  12.593  22.975  0.00  0.00    -0.000 A 
ATOM     20  C   UNL d   1     -50.642  12.559  23.688  0.00  0.00    -0.000 A 
ATOM     21  C   UNL d   1     -49.823  12.472  23.696  0.00  0.00    -0.001 A 
ENDBRANCH   1  16
TORSDOF 2
ENDMDL
MODEL 3
REMARK VINA RESULT:      -9.1      1.636      2.679
REMARK  2 active torsions:
REMARK  status: ('A' for Active; 'I' for Inactive)
REMARK    1  A    between atoms: C_7  and  C_1 
REMARK    2  A    between atoms: C_9  and  C_1 
ROOT
ATOM      1  C   UNL d   1     -48.343  13.685  22.838  0.00  0.00     0.240 A 
ATOM      2  S   UNL d   1     -49.144  13.799  22.968  0.00  0.00    -0.043 SA
ATOM      3  N   UNL d   1     -48.014  12.937  22.952  0.00  0.00    -0.199 NA
ATOM      4  C   UNL d   1     -49.619  13.173  23.211  0.00  0.00     0.181 A 
ATOM      5  N   UNL d   1     -49.290  12.425  23.325  0.00  0.00    -0.237 N 
ATOM      6  C   UNL d   1     -48.486  12.303  23.196  0.00  0.00     0.352 A 
ATOM      7  N   UNL d   1     -50.423  13.293  23.341  0.00  0.00    -0.221 NA
ATOM      8  O   UNL d   1     -48.150  11.557  23.308  0.00  0.00    -0.244 OA
ATOM      9  C   UNL d   1     -49.765  11.797  23.569  0.00  0.00     0.088 A 
ATOM     10  C   UNL d   1     -50.891  12.670  23.582  0.00  0.00     0.103 A 
ATOM     11  C   UNL d   1     -50.562  11.922  23.696  0.00  0.00     0.040 A 
ENDROOT
BRANCH   1  12
ATOM     12  C   UNL d   1     -48.671  14.433  22.724  0.00  0.00     0.429 C 
ATOM     13  F   UNL d   1     -48.972  15.111  22.607  0.00  0.00    -0.167 F 
ATOM     14  F   UNL d   1     -48.987  14.768  22.000  0.00  0.00    -0.167 F 
ATOM     15  F   UNL d   1     -48.785  15.065  23.283  0.00  0.00    -0.167 F 
ENDBRANCH   1  12
BRANCH   1  16
ATOM     16  C   UNL d   1     -47.536  13.556  22.710  0.00  0.00     0.016 A 
ATOM     17  C   UNL d   1     -46.996  13.688  23.327  0.00  0.00    -0.001 A 
ATOM     18  C   UNL d   1     -46.190  13.560  23.203  0.00  0.00    -0.000 A 
ATOM     19  C   UNL d   1     -45.923  13.299  22.458  0.00  0.00    -0.000 A 
ATOM     20  C   UNL d   1     -46.471  13.172  21.851  0.00  0.00    -0.000 A 
ATOM     21  C   UNL d   1     -47.275  13.298  21.970  0.00  0.00    -0.001 A 
ENDBRANCH   1  16
TORSDOF 2
ENDMDL
MODEL 4
REMARK VINA RESULT:      -7.1      1.992      2.245
REMARK  2 active torsions:
REMARK  status: ('A' for Active; 'I' for Inactive)
REMARK    1  A    between atoms: C_7  and  C_1 
REMARK    2  A    between atoms: C_9  and  C_1 
ROOT
ATOM      1  C   UNL d   1     -49.211  12.875  23.031  0.00  0.00     0.240 A 
ATOM      2  S   UNL d   1     -48.976  12.109  23.202  0.00  0.00    -0.043 SA
ATOM      3  N   UNL d   1     -48.651  13.480  23.023  0.00  0.00    -0.199 NA
ATOM      4  C   UNL d   1     -48.187  11.942  23.365  0.00  0.00     0.181 A 
ATOM      5  N   UNL d   1     -47.627  12.548  23.357  0.00  0.00    -0.237 N 
ATOM      6  C   UNL d   1     -47.855  13.320  23.186  0.00  0.00     0.352 A 
ATOM      7  N   UNL d   1     -47.957  11.170  23.537  0.00  0.00    -0.221 NA
ATOM      8  O   UNL d   1     -47.301  13.930  23.176  0.00  0.00    -0.244 OA
ATOM      9  C   UNL d   1     -46.836  12.381  23.521  0.00  0.00     0.088 A 
ATOM     10  C   UNL d   1     -47.174  11.009  23.698  0.00  0.00     0.103 A 
ATOM     11  C   UNL d   1     -46.614  11.615  23.690  0.00  0.00     0.040 A 
ENDROOT
BRANCH   1  12
ATOM     12  C   UNL d   1     -49.772  12.269  23.039  0.00  0.00     0.429 C 
ATOM     13  F   UNL d   1     -50.279  11.717  23.033  0.00  0.00    -0.167 F 
ATOM     14  F   UNL d   1     -50.024  11.773  22.386  0.00  0.00    -0.167 F 
ATOM     15  F   UNL d   1     -50.243  11.977  23.685  0.00  0.00    -0.167 F 
ENDBRANCH   1  12
BRANCH   1  16
ATOM     16  C   UNL d   1     -49.435  13.653  22.859  0.00  0.00     0.016 A 
ATOM     17  C   UNL d   1     -49.678  14.155  23.475  0.00  0.00    -0.001 A 
ATOM     18  C   UNL d   1     -49.901  14.931  23.307  0.00  0.00    -0.000 A 
ATOM     19  C   UNL d   1     -49.881  15.207  22.522  0.00  0.00    -0.000 A 
ATOM     20  C   UNL d   1     -49.637  14.697  21.917  0.00  0.00    -0.000 A 
ATOM     21  C   UNL d   1     -49.413  13.921  22.079  0.00  0.00    -0.001 A 
ENDBRANCH   1  16
TORSDOF 2
ENDMDL
MODEL 5
REMARK VINA RESULT:      -6.9      1.879      3.438
REMARK  2 active torsions:
REMARK  status: ('A' for Active; 'I' for Inactive)
REMARK    1  A    between atoms: C_7  and  C_1 
REMARK    2  A    between atoms: C_9  and  C_1 
ROOT
ATOM      1  C   UNL d   1     -48.462  13.139  22.095  0.00  0.00     0.240 A 
ATOM      2  S   UNL d   1     -49.178  13.107  21.697  0.00  0.00    -0.043 SA
ATOM      3  N   UNL d   1     -48.334  13.731  22.655  0.00  0.00    -0.199 NA
ATOM      4  C   UNL d   1     -49.766  13.660  21.854  0.00  0.00     0.181 A 
ATOM      5  N   UNL d   1     -49.638  14.252  22.415  0.00  0.00    -0.237 N 
ATOM      6  C   UNL d   1     -48.922  14.290  22.818  0.00  0.00     0.352 A 
ATOM      7  N   UNL d   1     -50.483  13.623  21.451  0.00  0.00    -0.221 NA
ATOM      8  O   UNL d   1     -48.787  14.879  23.380  0.00  0.00    -0.244 OA
ATOM      9  C   UNL d   1     -50.227  14.806  22.572  0.00  0.00     0.088 A 
ATOM     10  C   UNL d   1     -51.065  14.173  21.610  0.00  0.00     0.103 A 
ATOM     11  C   UNL d   1     -50.937  14.764  22.170  0.00  0.00     0.040 A 
ENDROOT
BRANCH   1  12
ATOM     12  C   UNL d   1     -48.590  12.547  21.534  0.00  0.00     0.429 C 
ATOM     13  F   UNL d   1     -48.711  12.002  21.034  0.00  0.00    -0.167 F 
ATOM     14  F   UNL d   1     -48.926  11.768  21.655  0.00  0.00    -0.167 F 
ATOM     15  F   UNL d   1     -48.426  12.550  20.698  0.00  0.00    -0.167 F 
ENDBRANCH   1  12
BRANCH   1  16
ATOM     16  C   UNL d   1     -47.744  13.183  22.503  0.00  0.00     0.016 A 
ATOM     17  C   UNL d   1     -47.641  12.743  23.200  0.00  0.00    -0.001 A 
ATOM     18  C   UNL d   1     -46.926  12.785  23.611  0.00  0.00    -0.000 A 
ATOM     19  C   UNL d   1     -46.312  13.269  23.324  0.00  0.00    -0.000 A 
ATOM     20  C   UNL d   1     -46.427  13.703  22.628  0.00  0.00    -0.000 A 
ATOM     21  C   UNL d   1     -47.139  13.664  22.215  0.00  0.00    -0.001 A 
ENDBRANCH   1  16
TORSDOF 2
ENDMDL
