MODEL 1
REMARK VINA RESULT:      49.2      0.000      0.000
REMARK  3 active torsions:
REMARK  status: ('A' for Active; 'I' for Inactive)
REMARK    1  A    between atoms: C_4  and  C_1 
REMARK    2  A    between atoms: C_9  and  N_2 
REMARK    3  A    between atoms: C_8  and  N_3 
ROOT
ATOM      1  C   UNL d   1     -51.787  24.436  33.519  0.00  0.00     0.139 A 
ATOM      2  N   UNL d   1     -52.442  23.942  33.437  0.00  0.00    -0.290 N 
ATOM      3  N   UNL d   1     -51.103  23.981  33.439  0.00  0.00    -0.290 N 
ATOM      4  C   UNL d   1     -52.170  23.188  33.306  0.00  0.00     0.101 A 
ATOM      5  C   UNL d   1     -51.354  23.208  33.307  0.00  0.00     0.101 A 
ENDROOT
BRANCH   2   6
ATOM      6  C   UNL d   1     -53.265  24.093  33.466  0.00  0.00     0.066 A 
ATOM      7  C   UNL d   1     -53.557  24.850  33.381  0.00  0.00     0.018 A 
ATOM      8  C   UNL d   1     -54.359  24.992  33.410  0.00  0.00     0.002 A 
ATOM      9  C   UNL d   1     -54.882  24.365  33.526  0.00  0.00     0.000 A 
ATOM     10  C   UNL d   1     -54.590  23.606  33.612  0.00  0.00     0.002 A 
ATOM     11  C   UNL d   1     -53.782  23.461  33.583  0.00  0.00     0.018 A 
ENDBRANCH   2   6
BRANCH   1  12
ATOM     12  C   UNL d   1     -51.837  25.252  33.660  0.00  0.00     0.063 A 
ATOM     13  S   UNL d   1     -51.675  25.388  34.485  0.00  0.00    -0.083 SA
ATOM     14  C   UNL d   1     -51.728  26.204  34.611  0.00  0.00     0.035 A 
ATOM     15  C   UNL d   1     -51.915  26.572  33.906  0.00  0.00     0.008 A 
ATOM     16  C   UNL d   1     -51.985  25.989  33.307  0.00  0.00     0.010 A 
ENDBRANCH   1  12
BRANCH   3  17
ATOM     17  C   UNL d   1     -50.363  24.326  33.495  0.00  0.00     0.066 A 
ATOM     18  C   UNL d   1     -49.710  23.887  33.735  0.00  0.00     0.018 A 
ATOM     19  C   UNL d   1     -48.970  24.256  33.785  0.00  0.00     0.002 A 
ATOM     20  C   UNL d   1     -48.878  25.041  33.604  0.00  0.00     0.000 A 
ATOM     21  C   UNL d   1     -49.530  25.500  33.360  0.00  0.00     0.002 A 
ATOM     22  C   UNL d   1     -50.272  25.140  33.306  0.00  0.00     0.018 A 
ENDBRANCH   3  17
TORSDOF 3
ENDMDL
