MODEL 1
REMARK VINA RESULT:      50.4      0.000      0.000
REMARK  4 active torsions:
REMARK  status: ('A' for Active; 'I' for Inactive)
REMARK    1  A    between atoms: S_9  and  C_1 
REMARK       I    between atoms: N_4  and  C_5 
REMARK    2  A    between atoms: C_5  and  C_13 
REMARK    3  A    between atoms: C_8  and  C_10 
REMARK    4  A    between atoms: C_13  and  S_9 
ROOT
ATOM      1  N   UNL d   1      58.930  49.683  50.894  0.00  0.00    -0.272 N 
ATOM      2  C   UNL d   1      59.619  49.683  51.271  0.00  0.00     0.271 C 
ATOM      3  C   UNL d   1      57.521  49.681  50.086  0.00  0.00     0.062 A 
ATOM      4  C   UNL d   1      58.907  49.658  50.100  0.00  0.00     0.083 A 
ATOM      5  C   UNL d   1      58.185  49.708  51.271  0.00  0.00     0.083 A 
ATOM      6  O   UNL d   1      59.633  49.708  52.045  0.00  0.00    -0.266 OA
ATOM      7  C   UNL d   1      58.224  49.656  49.680  0.00  0.00     0.024 A 
ATOM      8  C   UNL d   1      57.477  49.708  50.893  0.00  0.00     0.024 A 
ENDROOT
BRANCH   2   9
ATOM      9  C   UNL d   1      60.339  49.659  50.876  0.00  0.00     0.098 C 
BRANCH   9  10
ATOM     10  S   UNL d   1      60.951  49.194  51.226  0.00  0.00    -0.056 SA
BRANCH  10  11
ATOM     11  C   UNL d   1      61.135  48.482  50.878  0.00  0.00     0.141 A 
ATOM     12  N   UNL d   1      61.618  48.388  50.238  0.00  0.00    -0.232 NA
ATOM     13  C   UNL d   1      61.603  47.535  50.126  0.00  0.00     0.088 A 
ATOM     14  C   UNL d   1      62.040  47.098  49.492  0.00  0.00     0.020 A 
ATOM     15  C   UNL d   1      61.126  47.165  50.688  0.00  0.00     0.049 A 
ATOM     16  C   UNL d   1      61.959  46.269  49.469  0.00  0.00     0.002 A 
ATOM     17  C   UNL d   1      61.457  45.864  50.059  0.00  0.00     0.001 A 
ATOM     18  C   UNL d   1      61.064  46.315  50.638  0.00  0.00     0.008 A 
ATOM     19  S   UNL d   1      60.839  47.749  51.149  0.00  0.00    -0.060 SA
ENDBRANCH  10  11
ENDBRANCH   9  10
ENDBRANCH   2   9
BRANCH   3  20
ATOM     20  C   UNL d   1      56.786  49.679  49.634  0.00  0.00     0.297 C 
ATOM     21  O   UNL d   1      56.848  49.694  48.833  0.00  0.00    -0.264 OA
ATOM     22  N   UNL d   1      56.101  49.662  50.047  0.00  0.00    -0.102 N 
ENDBRANCH   3  20
TORSDOF 4
ENDMDL
