MODEL 1
REMARK VINA RESULT:      -3.3      0.000      0.000
REMARK  5 active torsions:
REMARK  status: ('A' for Active; 'I' for Inactive)
REMARK    1  A    between atoms: N_2  and  C_1 
REMARK    2  A    between atoms: C_4  and  C_8 
REMARK       I    between atoms: N_7  and  C_4 
REMARK    3  A    between atoms: C_9  and  C_6 
REMARK    4  A    between atoms: C_14  and  N_7 
REMARK    5  A    between atoms: C_8  and  C_9 
ROOT
ATOM      1  C   UNL d   1      32.878  18.677 -22.844  0.00  0.00     0.265 C 
ATOM      2  N   UNL d   1      32.644  18.386 -23.562  0.00  0.00    -0.272 N 
ATOM      3  O   UNL d   1      33.059  18.191 -22.202  0.00  0.00    -0.267 OA
ATOM      4  C   UNL d   1      32.470  18.885 -24.187  0.00  0.00     0.102 C 
ENDROOT
BRANCH   1   5
ATOM      5  C   UNL d   1      32.939  19.494 -22.751  0.00  0.00     0.062 C 
BRANCH   5   6
ATOM      6  C   UNL d   1      33.034  19.805 -21.971  0.00  0.00     0.011 C 
BRANCH   6   7
ATOM      7  C   UNL d   1      32.941  20.644 -21.821  0.00  0.00     0.031 A 
ATOM      8  S   UNL d   1      32.533  20.983 -21.204  0.00  0.00    -0.064 SA
ATOM      9  C   UNL d   1      32.577  21.810 -21.261  0.00  0.00     0.156 A 
ATOM     10  C   UNL d   1      33.031  21.966 -21.943  0.00  0.00     0.031 A 
ATOM     11  C   UNL d   1      33.241  21.268 -22.266  0.00  0.00     0.009 A 
BRANCH   9  12
ATOM     12  N   UNL d   1      32.248  22.381 -20.760  0.00  0.00    -0.107 N 
ATOM     13  O   UNL d   1      31.634  22.914 -21.043  0.00  0.00    -0.531 OA
ATOM     14  O   UNL d   1      32.479  22.492 -19.944  0.00  0.00    -0.531 OA
ENDBRANCH   9  12
ENDBRANCH   6   7
ENDBRANCH   5   6
ENDBRANCH   1   5
BRANCH   2  15
ATOM     15  C   UNL d   1      32.580  17.570 -23.666  0.00  0.00     0.067 A 
ATOM     16  C   UNL d   1      33.240  17.119 -23.802  0.00  0.00     0.018 A 
ATOM     17  C   UNL d   1      33.144  16.309 -23.902  0.00  0.00     0.002 A 
ATOM     18  C   UNL d   1      32.405  15.949 -23.867  0.00  0.00     0.000 A 
ATOM     19  C   UNL d   1      31.739  16.445 -23.724  0.00  0.00     0.002 A 
ATOM     20  C   UNL d   1      31.820  17.236 -23.626  0.00  0.00     0.018 A 
ENDBRANCH   2  15
TORSDOF 5
ENDMDL
MODEL 2
REMARK VINA RESULT:      -2.5      0.878      1.130
REMARK  5 active torsions:
REMARK  status: ('A' for Active; 'I' for Inactive)
REMARK    1  A    between atoms: N_2  and  C_1 
REMARK    2  A    between atoms: C_4  and  C_8 
REMARK       I    between atoms: N_7  and  C_4 
REMARK    3  A    between atoms: C_9  and  C_6 
REMARK    4  A    between atoms: C_14  and  N_7 
REMARK    5  A    between atoms: C_8  and  C_9 
ROOT
ATOM      1  C   UNL d   1      32.692  18.453 -23.166  0.00  0.00     0.265 C 
ATOM      2  N   UNL d   1      32.849  17.659 -23.167  0.00  0.00    -0.272 N 
ATOM      3  O   UNL d   1      32.310  18.835 -23.789  0.00  0.00    -0.267 OA
ATOM      4  C   UNL d   1      33.229  17.300 -22.537  0.00  0.00     0.102 C 
ENDROOT
BRANCH   1   5
ATOM      5  C   UNL d   1      32.925  18.900 -22.512  0.00  0.00     0.062 C 
BRANCH   5   6
ATOM      6  C   UNL d   1      33.010  19.735 -22.605  0.00  0.00     0.011 C 
BRANCH   6   7
ATOM      7  C   UNL d   1      32.949  20.259 -21.929  0.00  0.00     0.031 A 
ATOM      8  S   UNL d   1      32.586  20.987 -21.911  0.00  0.00    -0.064 SA
ATOM      9  C   UNL d   1      32.650  21.312 -21.150  0.00  0.00     0.156 A 
ATOM     10  C   UNL d   1      33.069  20.750 -20.698  0.00  0.00     0.031 A 
ATOM     11  C   UNL d   1      33.240  20.130 -21.170  0.00  0.00     0.009 A 
BRANCH   9  12
ATOM     12  N   UNL d   1      32.366  22.038 -20.873  0.00  0.00    -0.107 N 
ATOM     13  O   UNL d   1      32.904  22.694 -20.723  0.00  0.00    -0.531 OA
ATOM     14  O   UNL d   1      31.541  22.201 -20.715  0.00  0.00    -0.531 OA
ENDBRANCH   9  12
ENDBRANCH   6   7
ENDBRANCH   5   6
ENDBRANCH   1   5
BRANCH   2  15
ATOM     15  C   UNL d   1      32.620  17.203 -23.815  0.00  0.00     0.067 A 
ATOM     16  C   UNL d   1      33.105  17.134 -24.461  0.00  0.00     0.018 A 
ATOM     17  C   UNL d   1      32.850  16.673 -25.091  0.00  0.00     0.002 A 
ATOM     18  C   UNL d   1      32.125  16.284 -25.083  0.00  0.00     0.000 A 
ATOM     19  C   UNL d   1      31.644  16.376 -24.396  0.00  0.00     0.002 A 
ATOM     20  C   UNL d   1      31.883  16.823 -23.776  0.00  0.00     0.018 A 
ENDBRANCH   2  15
TORSDOF 5
ENDMDL
MODEL 3
REMARK VINA RESULT:      -2.5      1.472      5.202
REMARK  5 active torsions:
REMARK  status: ('A' for Active; 'I' for Inactive)
REMARK    1  A    between atoms: N_2  and  C_1 
REMARK    2  A    between atoms: C_4  and  C_8 
REMARK       I    between atoms: N_7  and  C_4 
REMARK    3  A    between atoms: C_9  and  C_6 
REMARK    4  A    between atoms: C_14  and  N_7 
REMARK    5  A    between atoms: C_8  and  C_9 
ROOT
ATOM      1  C   UNL d   1      32.849  21.262 -21.350  0.00  0.00     0.265 C 
ATOM      2  N   UNL d   1      32.963  22.055 -21.460  0.00  0.00    -0.272 N 
ATOM      3  O   UNL d   1      32.592  20.942 -20.635  0.00  0.00    -0.267 OA
ATOM      4  C   UNL d   1      33.219  22.353 -22.179  0.00  0.00     0.102 C 
ENDROOT
BRANCH   1   5
ATOM      5  C   UNL d   1      32.995  20.751 -21.982  0.00  0.00     0.062 C 
BRANCH   5   6
ATOM      6  C   UNL d   1      32.952  19.919 -21.845  0.00  0.00     0.011 C 
BRANCH   6   7
ATOM      7  C   UNL d   1      33.036  19.365 -22.494  0.00  0.00     0.031 A 
ATOM      8  S   UNL d   1      32.957  18.555 -22.454  0.00  0.00    -0.064 SA
ATOM      9  C   UNL d   1      33.081  18.225 -23.205  0.00  0.00     0.156 A 
ATOM     10  C   UNL d   1      33.241  18.868 -23.712  0.00  0.00     0.031 A 
ATOM     11  C   UNL d   1      33.211  19.538 -23.279  0.00  0.00     0.009 A 
BRANCH   9  12
ATOM     12  N   UNL d   1      33.058  17.429 -23.430  0.00  0.00    -0.107 N 
ATOM     13  O   UNL d   1      32.848  17.205 -24.235  0.00  0.00    -0.531 OA
ATOM     14  O   UNL d   1      33.232  16.778 -22.904  0.00  0.00    -0.531 OA
ENDBRANCH   9  12
ENDBRANCH   6   7
ENDBRANCH   5   6
ENDBRANCH   1   5
BRANCH   2  15
ATOM     15  C   UNL d   1      32.820  22.575 -20.835  0.00  0.00     0.067 A 
ATOM     16  C   UNL d   1      33.213  22.490 -20.131  0.00  0.00     0.018 A 
ATOM     17  C   UNL d   1      33.050  23.023 -19.528  0.00  0.00     0.002 A 
ATOM     18  C   UNL d   1      32.504  23.632 -19.619  0.00  0.00     0.000 A 
ATOM     19  C   UNL d   1      32.113  23.693 -20.363  0.00  0.00     0.002 A 
ATOM     20  C   UNL d   1      32.264  23.179 -20.958  0.00  0.00     0.018 A 
ENDBRANCH   2  15
TORSDOF 5
ENDMDL
MODEL 4
REMARK VINA RESULT:      -1.8      2.555      3.922
REMARK  5 active torsions:
REMARK  status: ('A' for Active; 'I' for Inactive)
REMARK    1  A    between atoms: N_2  and  C_1 
REMARK    2  A    between atoms: C_4  and  C_8 
REMARK       I    between atoms: N_7  and  C_4 
REMARK    3  A    between atoms: C_9  and  C_6 
REMARK    4  A    between atoms: C_14  and  N_7 
REMARK    5  A    between atoms: C_8  and  C_9 
ROOT
ATOM      1  C   UNL d   1      30.254  16.745 -24.116  0.00  0.00     0.265 C 
ATOM      2  N   UNL d   1      30.009  16.026 -23.836  0.00  0.00    -0.272 N 
ATOM      3  O   UNL d   1      29.734  17.302 -24.432  0.00  0.00    -0.267 OA
ATOM      4  C   UNL d   1      30.542  15.486 -23.526  0.00  0.00     0.102 C 
ENDROOT
BRANCH   1   5
ATOM      5  C   UNL d   1      31.057  16.928 -24.083  0.00  0.00     0.062 C 
BRANCH   5   6
ATOM      6  C   UNL d   1      31.317  17.661 -24.412  0.00  0.00     0.011 C 
BRANCH   6   7
ATOM      7  C   UNL d   1      32.000  18.067 -24.090  0.00  0.00     0.031 A 
ATOM      8  S   UNL d   1      32.025  18.506 -23.404  0.00  0.00    -0.064 SA
ATOM      9  C   UNL d   1      32.791  18.804 -23.291  0.00  0.00     0.156 A 
ATOM     10  C   UNL d   1      33.239  18.529 -23.938  0.00  0.00     0.031 A 
ATOM     11  C   UNL d   1      32.760  18.093 -24.404  0.00  0.00     0.009 A 
BRANCH   9  12
ATOM     12  N   UNL d   1      33.076  19.277 -22.675  0.00  0.00    -0.107 N 
ATOM     13  O   UNL d   1      33.241  20.113 -22.801  0.00  0.00    -0.531 OA
ATOM     14  O   UNL d   1      33.226  18.992 -21.883  0.00  0.00    -0.531 OA
ENDBRANCH   9  12
ENDBRANCH   6   7
ENDBRANCH   5   6
ENDBRANCH   1   5
BRANCH   2  15
ATOM     15  C   UNL d   1      29.208  15.832 -23.865  0.00  0.00     0.067 A 
ATOM     16  C   UNL d   1      28.852  15.651 -24.570  0.00  0.00     0.018 A 
ATOM     17  C   UNL d   1      28.053  15.462 -24.567  0.00  0.00     0.002 A 
ATOM     18  C   UNL d   1      27.610  15.453 -23.874  0.00  0.00     0.000 A 
ATOM     19  C   UNL d   1      28.008  15.645 -23.156  0.00  0.00     0.002 A 
ATOM     20  C   UNL d   1      28.788  15.831 -23.148  0.00  0.00     0.018 A 
ENDBRANCH   2  15
TORSDOF 5
ENDMDL
MODEL 5
REMARK VINA RESULT:      -1.3      2.991      5.256
REMARK  5 active torsions:
REMARK  status: ('A' for Active; 'I' for Inactive)
REMARK    1  A    between atoms: N_2  and  C_1 
REMARK    2  A    between atoms: C_4  and  C_8 
REMARK       I    between atoms: N_7  and  C_4 
REMARK    3  A    between atoms: C_9  and  C_6 
REMARK    4  A    between atoms: C_14  and  N_7 
REMARK    5  A    between atoms: C_8  and  C_9 
ROOT
ATOM      1  C   UNL d   1      31.601  17.931 -24.205  0.00  0.00     0.265 C 
ATOM      2  N   UNL d   1      32.271  18.010 -23.758  0.00  0.00    -0.272 N 
ATOM      3  O   UNL d   1      31.224  18.572 -24.563  0.00  0.00    -0.267 OA
ATOM      4  C   UNL d   1      32.630  17.360 -23.412  0.00  0.00     0.102 C 
ENDROOT
BRANCH   1   5
ATOM      5  C   UNL d   1      31.281  17.177 -24.307  0.00  0.00     0.062 C 
BRANCH   5   6
ATOM      6  C   UNL d   1      30.563  17.100 -24.745  0.00  0.00     0.011 C 
BRANCH   6   7
ATOM      7  C   UNL d   1      29.946  16.567 -24.481  0.00  0.00     0.031 A 
ATOM      8  S   UNL d   1      29.225  16.778 -24.166  0.00  0.00    -0.064 SA
ATOM      9  C   UNL d   1      28.790  16.096 -23.982  0.00  0.00     0.156 A 
ATOM     10  C   UNL d   1      29.275  15.453 -24.198  0.00  0.00     0.031 A 
ATOM     11  C   UNL d   1      29.957  15.744 -24.493  0.00  0.00     0.009 A 
BRANCH   9  12
ATOM     12  N   UNL d   1      28.033  16.039 -23.653  0.00  0.00    -0.107 N 
ATOM     13  O   UNL d   1      27.801  16.541 -22.993  0.00  0.00    -0.531 OA
ATOM     14  O   UNL d   1      27.432  15.496 -23.927  0.00  0.00    -0.531 OA
ENDBRANCH   9  12
ENDBRANCH   6   7
ENDBRANCH   5   6
ENDBRANCH   1   5
BRANCH   2  15
ATOM     15  C   UNL d   1      32.599  18.759 -23.650  0.00  0.00     0.067 A 
ATOM     16  C   UNL d   1      32.920  19.162 -24.275  0.00  0.00     0.018 A 
ATOM     17  C   UNL d   1      33.239  19.906 -24.136  0.00  0.00     0.002 A 
ATOM     18  C   UNL d   1      33.241  20.247 -23.387  0.00  0.00     0.000 A 
ATOM     19  C   UNL d   1      32.900  19.803 -22.758  0.00  0.00     0.002 A 
ATOM     20  C   UNL d   1      32.586  19.076 -22.882  0.00  0.00     0.018 A 
ENDBRANCH   2  15
TORSDOF 5
ENDMDL
MODEL 6
REMARK VINA RESULT:      -1.0      2.325      5.838
REMARK  5 active torsions:
REMARK  status: ('A' for Active; 'I' for Inactive)
REMARK    1  A    between atoms: N_2  and  C_1 
REMARK    2  A    between atoms: C_4  and  C_8 
REMARK       I    between atoms: N_7  and  C_4 
REMARK    3  A    between atoms: C_9  and  C_6 
REMARK    4  A    between atoms: C_14  and  N_7 
REMARK    5  A    between atoms: C_8  and  C_9 
ROOT
ATOM      1  C   UNL d   1      32.588  22.229 -19.690  0.00  0.00     0.265 C 
ATOM      2  N   UNL d   1      32.807  22.968 -19.443  0.00  0.00    -0.272 N 
ATOM      3  O   UNL d   1      32.214  21.684 -19.196  0.00  0.00    -0.267 OA
ATOM      4  C   UNL d   1      33.177  23.494 -19.950  0.00  0.00     0.102 C 
ENDROOT
BRANCH   1   5
ATOM      5  C   UNL d   1      32.744  22.012 -20.470  0.00  0.00     0.062 C 
BRANCH   5   6
ATOM      6  C   UNL d   1      32.362  21.326 -20.782  0.00  0.00     0.011 C 
BRANCH   6   7
ATOM      7  C   UNL d   1      32.612  20.989 -21.529  0.00  0.00     0.031 A 
ATOM      8  S   UNL d   1      32.513  20.217 -21.770  0.00  0.00    -0.064 SA
ATOM      9  C   UNL d   1      32.834  20.118 -22.529  0.00  0.00     0.156 A 
ATOM     10  C   UNL d   1      33.137  20.865 -22.746  0.00  0.00     0.031 A 
ATOM     11  C   UNL d   1      33.000  21.372 -22.146  0.00  0.00     0.009 A 
BRANCH   9  12
ATOM     12  N   UNL d   1      32.860  19.434 -22.994  0.00  0.00    -0.107 N 
ATOM     13  O   UNL d   1      33.241  19.440 -23.767  0.00  0.00    -0.531 OA
ATOM     14  O   UNL d   1      32.525  18.683 -22.759  0.00  0.00    -0.531 OA
ENDBRANCH   9  12
ENDBRANCH   6   7
ENDBRANCH   5   6
ENDBRANCH   1   5
BRANCH   2  15
ATOM     15  C   UNL d   1      32.655  23.195 -18.664  0.00  0.00     0.067 A 
ATOM     16  C   UNL d   1      33.236  23.150 -18.101  0.00  0.00     0.018 A 
ATOM     17  C   UNL d   1      33.055  23.384 -17.335  0.00  0.00     0.002 A 
ATOM     18  C   UNL d   1      32.308  23.659 -17.128  0.00  0.00     0.000 A 
ATOM     19  C   UNL d   1      31.725  23.694 -17.736  0.00  0.00     0.002 A 
ATOM     20  C   UNL d   1      31.891  23.469 -18.486  0.00  0.00     0.018 A 
ENDBRANCH   2  15
TORSDOF 5
ENDMDL
MODEL 7
REMARK VINA RESULT:      -0.9      1.385      2.015
REMARK  5 active torsions:
REMARK  status: ('A' for Active; 'I' for Inactive)
REMARK    1  A    between atoms: N_2  and  C_1 
REMARK    2  A    between atoms: C_4  and  C_8 
REMARK       I    between atoms: N_7  and  C_4 
REMARK    3  A    between atoms: C_9  and  C_6 
REMARK    4  A    between atoms: C_14  and  N_7 
REMARK    5  A    between atoms: C_8  and  C_9 
ROOT
ATOM      1  C   UNL d   1      32.767  20.257 -22.279  0.00  0.00     0.265 C 
ATOM      2  N   UNL d   1      32.954  19.475 -22.192  0.00  0.00    -0.272 N 
ATOM      3  O   UNL d   1      32.478  20.572 -22.985  0.00  0.00    -0.267 OA
ATOM      4  C   UNL d   1      33.240  19.182 -21.482  0.00  0.00     0.102 C 
ENDROOT
BRANCH   1   5
ATOM      5  C   UNL d   1      32.871  20.761 -21.635  0.00  0.00     0.062 C 
BRANCH   5   6
ATOM      6  C   UNL d   1      32.611  21.562 -21.704  0.00  0.00     0.011 C 
BRANCH   6   7
ATOM      7  C   UNL d   1      32.789  22.134 -21.091  0.00  0.00     0.031 A 
ATOM      8  S   UNL d   1      32.748  22.012 -20.287  0.00  0.00    -0.064 SA
ATOM      9  C   UNL d   1      32.966  22.706 -19.887  0.00  0.00     0.156 A 
ATOM     10  C   UNL d   1      33.144  23.263 -20.482  0.00  0.00     0.031 A 
ATOM     11  C   UNL d   1      33.036  22.913 -21.190  0.00  0.00     0.009 A 
BRANCH   9  12
ATOM     12  N   UNL d   1      33.006  22.841 -19.072  0.00  0.00    -0.107 N 
ATOM     13  O   UNL d   1      32.809  23.613 -18.743  0.00  0.00    -0.531 OA
ATOM     14  O   UNL d   1      33.239  22.250 -18.499  0.00  0.00    -0.531 OA
ENDBRANCH   9  12
ENDBRANCH   6   7
ENDBRANCH   5   6
ENDBRANCH   1   5
BRANCH   2  15
ATOM     15  C   UNL d   1      32.855  18.961 -22.830  0.00  0.00     0.067 A 
ATOM     16  C   UNL d   1      32.498  18.241 -22.727  0.00  0.00     0.018 A 
ATOM     17  C   UNL d   1      32.413  17.751 -23.381  0.00  0.00     0.002 A 
ATOM     18  C   UNL d   1      32.678  17.972 -24.128  0.00  0.00     0.000 A 
ATOM     19  C   UNL d   1      33.044  18.727 -24.203  0.00  0.00     0.002 A 
ATOM     20  C   UNL d   1      33.132  19.212 -23.571  0.00  0.00     0.018 A 
ENDBRANCH   2  15
TORSDOF 5
ENDMDL
