MODEL 1
REMARK VINA RESULT:      47.8      0.000      0.000
REMARK  8 active torsions:
REMARK  status: ('A' for Active; 'I' for Inactive)
REMARK    1  A    between atoms: S_13  and  C_4 
REMARK    2  A    between atoms: C_5  and  N_10 
REMARK    3  A    between atoms: C_20  and  N_6 
REMARK       I    between atoms: N_10  and  C_14 
REMARK    4  A    between atoms: C_19  and  S_13 
REMARK    5  A    between atoms: C_14  and  C_19 
REMARK    6  A    between atoms: C_22  and  C_20 
REMARK    7  A    between atoms: C_28  and  C_22 
REMARK    8  A    between atoms: N_25  and  C_28 
ROOT
ATOM      1  N   UNL d   1      46.342 -17.742  41.695  0.00  0.00    -0.185 NA
ATOM      2  C   UNL d   1      46.434 -17.618  42.506  0.00  0.00     0.354 A 
ATOM      3  C   UNL d   1      46.171 -19.143  41.929  0.00  0.00     0.040 A 
ATOM      4  C   UNL d   1      46.210 -18.505  41.407  0.00  0.00     0.117 A 
ATOM      5  N   UNL d   1      46.395 -18.257  43.027  0.00  0.00    -0.258 N 
ATOM      6  C   UNL d   1      46.263 -19.019  42.740  0.00  0.00     0.070 A 
ATOM      7  O   UNL d   1      46.567 -16.855  42.803  0.00  0.00    -0.244 OA
ATOM      8  C   UNL d   1      46.049 -19.947  41.814  0.00  0.00     0.004 A 
ATOM      9  C   UNL d   1      46.198 -19.747  43.119  0.00  0.00     0.018 A 
ATOM     10  C   UNL d   1      46.067 -20.317  42.555  0.00  0.00     0.002 A 
ENDROOT
BRANCH   4  11
ATOM     11  S   UNL d   1      46.118 -18.629  40.596  0.00  0.00    -0.062 SA
BRANCH  11  12
ATOM     12  C   UNL d   1      46.381 -18.068  40.065  0.00  0.00     0.099 C 
BRANCH  12  13
ATOM     13  C   UNL d   1      45.878 -17.795  39.471  0.00  0.00     0.288 C 
ATOM     14  N   UNL d   1      45.931 -17.017  39.213  0.00  0.00    -0.182 NA
ATOM     15  O   UNL d   1      45.321 -18.303  39.136  0.00  0.00    -0.265 OA
BRANCH  14  16
ATOM     16  C   UNL d   1      45.428 -16.743  38.618  0.00  0.00     0.197 A 
ATOM     17  N   UNL d   1      45.743 -16.395  37.939  0.00  0.00    -0.221 NA
ATOM     18  C   UNL d   1      45.107 -16.178  37.451  0.00  0.00     0.090 A 
ATOM     19  C   UNL d   1      45.080 -15.814  36.712  0.00  0.00     0.020 A 
ATOM     20  C   UNL d   1      44.415 -16.391  37.825  0.00  0.00     0.050 A 
ATOM     21  C   UNL d   1      44.357 -15.667  36.355  0.00  0.00     0.002 A 
ATOM     22  C   UNL d   1      43.660 -15.880  36.731  0.00  0.00     0.001 A 
ATOM     23  C   UNL d   1      43.684 -16.243  37.467  0.00  0.00     0.008 A 
ATOM     24  C   UNL d   1      42.929 -15.722  36.353  0.00  0.00     0.000 C 
ATOM     25  S   UNL d   1      44.606 -16.742  38.551  0.00  0.00    -0.047 SA
ENDBRANCH  14  16
ENDBRANCH  12  13
ENDBRANCH  11  12
ENDBRANCH   4  11
BRANCH   5  26
ATOM     26  C   UNL d   1      46.487 -18.133  43.838  0.00  0.00     0.086 C 
BRANCH  26  27
ATOM     27  C   UNL d   1      46.412 -17.381  44.152  0.00  0.00     0.038 C 
BRANCH  27  28
ATOM     28  C   UNL d   1      45.769 -17.192  44.632  0.00  0.00     0.082 C 
BRANCH  28  29
ATOM     29  N   UNL d   1      45.625 -16.410  44.840  0.00  0.00    -0.300 N 
ATOM     30  C   UNL d   1      46.254 -15.886  44.940  0.00  0.00     0.100 C 
ATOM     31  C   UNL d   1      44.850 -16.149  44.949  0.00  0.00     0.100 C 
ENDBRANCH  28  29
ENDBRANCH  27  28
ENDBRANCH  26  27
ENDBRANCH   5  26
TORSDOF 8
ENDMDL
