MODEL 1
REMARK VINA RESULT:      -4.4      0.000      0.000
REMARK  6 active torsions:
REMARK  status: ('A' for Active; 'I' for Inactive)
REMARK    1  A    between atoms: C_11  and  S_1 
REMARK    2  A    between atoms: C_2  and  C_5 
REMARK       I    between atoms: N_3  and  C_2 
REMARK    3  A    between atoms: C_12  and  N_3 
REMARK    4  A    between atoms: N_4  and  C_5 
REMARK       I    between atoms: C_6  and  N_4 
REMARK    5  A    between atoms: C_5  and  C_7 
REMARK    6  A    between atoms: C_7  and  C_11 
ROOT
ATOM      1  C   UNL d   1      58.591  -0.693  29.545  0.00  0.00     0.143 C 
ENDROOT
BRANCH   1   2
ATOM      2  C   UNL d   1      58.003  -0.412  30.057  0.00  0.00     0.297 C 
ATOM      3  N   UNL d   1      57.986  -0.660  30.842  0.00  0.00    -0.207 NA
ATOM      4  O   UNL d   1      57.431   0.119  29.781  0.00  0.00    -0.264 OA
BRANCH   3   5
ATOM      5  C   UNL d   1      57.388  -0.371  31.353  0.00  0.00     0.085 A 
ATOM      6  C   UNL d   1      56.964  -0.931  31.793  0.00  0.00     0.019 A 
ATOM      7  C   UNL d   1      56.363  -0.648  32.308  0.00  0.00     0.002 A 
ATOM      8  C   UNL d   1      55.923  -1.203  32.762  0.00  0.00     0.000 C 
ATOM      9  C   UNL d   1      56.208   0.146  32.368  0.00  0.00     0.000 A 
ATOM     10  C   UNL d   1      56.649   0.681  31.915  0.00  0.00     0.002 A 
ATOM     11  C   UNL d   1      57.241   0.412  31.407  0.00  0.00     0.019 A 
ENDBRANCH   3   5
ENDBRANCH   1   2
BRANCH   1  12
ATOM     12  N   UNL d   1      58.927  -0.185  28.990  0.00  0.00    -0.203 NA
ATOM     13  C   UNL d   1      59.650   0.174  29.145  0.00  0.00     0.280 C 
ATOM     14  O   UNL d   1      60.038   0.026  29.854  0.00  0.00    -0.265 OA
ATOM     15  C   UNL d   1      59.986   0.681  28.589  0.00  0.00     0.068 C 
ENDBRANCH   1  12
BRANCH   1  16
ATOM     16  C   UNL d   1      58.840  -1.476  29.592  0.00  0.00     0.036 C 
BRANCH  16  17
ATOM     17  C   UNL d   1      58.704  -1.985  28.962  0.00  0.00     0.096 C 
BRANCH  17  18
ATOM     18  S   UNL d   1      58.911  -2.778  29.026  0.00  0.00     0.192 S 
ATOM     19  O   UNL d   1      58.909  -3.611  29.040  0.00  0.00    -0.222 OA
ATOM     20  O   UNL d   1      58.104  -2.789  28.831  0.00  0.00    -0.222 OA
ATOM     21  C   UNL d   1      59.683  -2.986  29.216  0.00  0.00     0.145 C 
ENDBRANCH  17  18
ENDBRANCH  16  17
ENDBRANCH   1  16
TORSDOF 6
ENDMDL
MODEL 2
REMARK VINA RESULT:      -3.4      1.229      2.226
REMARK  6 active torsions:
REMARK  status: ('A' for Active; 'I' for Inactive)
REMARK    1  A    between atoms: C_11  and  S_1 
REMARK    2  A    between atoms: C_2  and  C_5 
REMARK       I    between atoms: N_3  and  C_2 
REMARK    3  A    between atoms: C_12  and  N_3 
REMARK    4  A    between atoms: N_4  and  C_5 
REMARK       I    between atoms: C_6  and  N_4 
REMARK    5  A    between atoms: C_5  and  C_7 
REMARK    6  A    between atoms: C_7  and  C_11 
ROOT
ATOM      1  C   UNL d   1      58.488  -0.588  30.047  0.00  0.00     0.143 C 
ENDROOT
BRANCH   1   2
ATOM      2  C   UNL d   1      57.889  -0.284  30.533  0.00  0.00     0.297 C 
ATOM      3  N   UNL d   1      57.638  -0.706  31.192  0.00  0.00    -0.207 NA
ATOM      4  O   UNL d   1      57.543   0.447  30.356  0.00  0.00    -0.264 OA
BRANCH   3   5
ATOM      5  C   UNL d   1      57.032  -0.391  31.679  0.00  0.00     0.085 A 
ATOM      6  C   UNL d   1      56.646  -0.917  32.190  0.00  0.00     0.019 A 
ATOM      7  C   UNL d   1      56.038  -0.607  32.680  0.00  0.00     0.002 A 
ATOM      8  C   UNL d   1      55.635  -1.127  33.205  0.00  0.00     0.000 C 
ATOM      9  C   UNL d   1      55.840   0.179  32.649  0.00  0.00     0.000 A 
ATOM     10  C   UNL d   1      56.244   0.679  32.128  0.00  0.00     0.002 A 
ATOM     11  C   UNL d   1      56.843   0.384  31.643  0.00  0.00     0.019 A 
ENDBRANCH   3   5
ENDBRANCH   1   2
BRANCH   1  12
ATOM     12  N   UNL d   1      58.509  -1.395  29.880  0.00  0.00    -0.203 NA
ATOM     13  C   UNL d   1      58.322  -1.663  29.125  0.00  0.00     0.280 C 
ATOM     14  O   UNL d   1      58.114  -1.126  28.539  0.00  0.00    -0.265 OA
ATOM     15  C   UNL d   1      58.343  -2.469  28.958  0.00  0.00     0.068 C 
ENDBRANCH   1  12
BRANCH   1  16
ATOM     16  C   UNL d   1      59.060  -0.087  29.733  0.00  0.00     0.036 C 
BRANCH  16  17
ATOM     17  C   UNL d   1      59.843  -0.161  29.970  0.00  0.00     0.096 C 
BRANCH  17  18
ATOM     18  S   UNL d   1      60.425   0.288  29.603  0.00  0.00     0.192 S 
ATOM     19  O   UNL d   1      61.133   0.678  29.403  0.00  0.00    -0.222 OA
ATOM     20  O   UNL d   1      60.791  -0.007  30.286  0.00  0.00    -0.222 OA
ATOM     21  C   UNL d   1      60.259   0.673  28.895  0.00  0.00     0.145 C 
ENDBRANCH  17  18
ENDBRANCH  16  17
ENDBRANCH   1  16
TORSDOF 6
ENDMDL
