MODEL 1
REMARK VINA RESULT:      -8.7      0.000      0.000
REMARK  2 active torsions:
REMARK  status: ('A' for Active; 'I' for Inactive)
REMARK    1  A    between atoms: C_10  and  N_3 
REMARK    2  A    between atoms: C_15  and  C_10 
ROOT
ATOM      1  C   UNL d   1     -48.544  13.038  23.325  0.00  0.00     0.166 A 
ATOM      2  C   UNL d   1     -48.029  13.608  23.020  0.00  0.00     0.117 A 
ATOM      3  N   UNL d   1     -49.288  13.379  23.330  0.00  0.00    -0.289 N 
ATOM      4  N   UNL d   1     -48.261  12.292  23.552  0.00  0.00    -0.225 NA
ATOM      5  N   UNL d   1     -47.234  13.407  22.953  0.00  0.00    -0.241 NA
ATOM      6  C   UNL d   1     -48.455  14.274  22.848  0.00  0.00     0.037 A 
ATOM      7  C   UNL d   1     -49.244  14.130  23.042  0.00  0.00     0.067 A 
ATOM      8  C   UNL d   1     -47.474  12.114  23.478  0.00  0.00     0.101 A 
ATOM      9  C   UNL d   1     -46.960  12.686  23.174  0.00  0.00     0.099 A 
ATOM     10  C   UNL d   1     -48.233  15.004  22.536  0.00  0.00     0.003 A 
ATOM     11  C   UNL d   1     -49.806  14.718  22.923  0.00  0.00     0.018 A 
ATOM     12  C   UNL d   1     -46.172  12.511  23.098  0.00  0.00     0.021 A 
ATOM     13  C   UNL d   1     -47.201  11.396  23.697  0.00  0.00     0.021 A 
ATOM     14  C   UNL d   1     -48.801  15.592  22.418  0.00  0.00     0.000 A 
ATOM     15  C   UNL d   1     -49.590  15.448  22.612  0.00  0.00     0.002 A 
ATOM     16  C   UNL d   1     -46.385  11.224  23.616  0.00  0.00     0.002 A 
ATOM     17  C   UNL d   1     -45.867  11.770  23.320  0.00  0.00     0.002 A 
ENDROOT
BRANCH   3  18
ATOM     18  C   UNL d   1     -49.967  13.015  23.587  0.00  0.00     0.082 C 
BRANCH  18  19
ATOM     19  C   UNL d   1     -50.404  12.556  23.039  0.00  0.00     0.019 C 
ATOM     20  C   UNL d   1     -51.064  12.167  23.276  0.00  0.00     0.002 C 
ENDBRANCH  18  19
ENDBRANCH   3  18
TORSDOF 2
ENDMDL
MODEL 2
REMARK VINA RESULT:      -8.5      0.995      3.072
REMARK  2 active torsions:
REMARK  status: ('A' for Active; 'I' for Inactive)
REMARK    1  A    between atoms: C_10  and  N_3 
REMARK    2  A    between atoms: C_15  and  C_10 
ROOT
ATOM      1  C   UNL d   1     -48.150  12.514  23.143  0.00  0.00     0.166 A 
ATOM      2  C   UNL d   1     -48.363  13.312  23.108  0.00  0.00     0.117 A 
ATOM      3  N   UNL d   1     -47.344  12.484  22.999  0.00  0.00    -0.289 N 
ATOM      4  N   UNL d   1     -48.719  11.931  23.301  0.00  0.00    -0.225 NA
ATOM      5  N   UNL d   1     -49.154  13.501  23.235  0.00  0.00    -0.241 NA
ATOM      6  C   UNL d   1     -47.701  13.748  22.948  0.00  0.00     0.037 A 
ATOM      7  C   UNL d   1     -47.063  13.230  22.879  0.00  0.00     0.067 A 
ATOM      8  C   UNL d   1     -49.492  12.139  23.422  0.00  0.00     0.101 A 
ATOM      9  C   UNL d   1     -49.704  12.938  23.387  0.00  0.00     0.099 A 
ATOM     10  C   UNL d   1     -47.586  14.559  22.852  0.00  0.00     0.003 A 
ATOM     11  C   UNL d   1     -46.314  13.525  22.716  0.00  0.00     0.018 A 
ATOM     12  C   UNL d   1     -50.477  13.149  23.508  0.00  0.00     0.021 A 
ATOM     13  C   UNL d   1     -50.042  11.579  23.574  0.00  0.00     0.021 A 
ATOM     14  C   UNL d   1     -46.831  14.852  22.688  0.00  0.00     0.000 A 
ATOM     15  C   UNL d   1     -46.193  14.333  22.619  0.00  0.00     0.002 A 
ATOM     16  C   UNL d   1     -50.838  11.806  23.698  0.00  0.00     0.002 A 
ATOM     17  C   UNL d   1     -51.064  12.581  23.668  0.00  0.00     0.002 A 
ENDROOT
BRANCH   3  18
ATOM     18  C   UNL d   1     -46.898  11.807  22.981  0.00  0.00     0.082 C 
BRANCH  18  19
ATOM     19  C   UNL d   1     -46.542  11.545  23.692  0.00  0.00     0.019 C 
ATOM     20  C   UNL d   1     -46.095  10.879  23.698  0.00  0.00     0.002 C 
ENDBRANCH  18  19
ENDBRANCH   3  18
TORSDOF 2
ENDMDL
MODEL 3
REMARK VINA RESULT:      -8.5      0.901      3.875
REMARK  2 active torsions:
REMARK  status: ('A' for Active; 'I' for Inactive)
REMARK    1  A    between atoms: C_10  and  N_3 
REMARK    2  A    between atoms: C_15  and  C_10 
ROOT
ATOM      1  C   UNL d   1     -47.654  13.547  23.018  0.00  0.00     0.166 A 
ATOM      2  C   UNL d   1     -48.251  12.997  23.170  0.00  0.00     0.117 A 
ATOM      3  N   UNL d   1     -46.944  13.149  23.110  0.00  0.00    -0.289 N 
ATOM      4  N   UNL d   1     -47.841  14.331  22.820  0.00  0.00    -0.225 NA
ATOM      5  N   UNL d   1     -49.030  13.255  23.116  0.00  0.00    -0.241 NA
ATOM      6  C   UNL d   1     -47.907  12.286  23.347  0.00  0.00     0.037 A 
ATOM      7  C   UNL d   1     -47.089  12.382  23.309  0.00  0.00     0.067 A 
ATOM      8  C   UNL d   1     -48.615  14.564  22.772  0.00  0.00     0.101 A 
ATOM      9  C   UNL d   1     -49.212  14.013  22.924  0.00  0.00     0.099 A 
ATOM     10  C   UNL d   1     -48.229  11.552  23.541  0.00  0.00     0.003 A 
ATOM     11  C   UNL d   1     -46.597  11.742  23.466  0.00  0.00     0.018 A 
ATOM     12  C   UNL d   1     -49.988  14.244  22.877  0.00  0.00     0.021 A 
ATOM     13  C   UNL d   1     -48.797  15.319  22.581  0.00  0.00     0.021 A 
ATOM     14  C   UNL d   1     -47.731  10.912  23.698  0.00  0.00     0.000 A 
ATOM     15  C   UNL d   1     -46.912  11.008  23.660  0.00  0.00     0.002 A 
ATOM     16  C   UNL d   1     -49.601  15.549  22.534  0.00  0.00     0.002 A 
ATOM     17  C   UNL d   1     -50.199  15.024  22.679  0.00  0.00     0.002 A 
ENDROOT
BRANCH   3  18
ATOM     18  C   UNL d   1     -46.208  13.477  23.013  0.00  0.00     0.082 C 
BRANCH  18  19
ATOM     19  C   UNL d   1     -45.824  13.384  22.275  0.00  0.00     0.019 C 
ATOM     20  C   UNL d   1     -45.079  13.661  22.170  0.00  0.00     0.002 C 
ENDBRANCH  18  19
ENDBRANCH   3  18
TORSDOF 2
ENDMDL
MODEL 4
REMARK VINA RESULT:      -8.2      1.004      3.678
REMARK  2 active torsions:
REMARK  status: ('A' for Active; 'I' for Inactive)
REMARK    1  A    between atoms: C_10  and  N_3 
REMARK    2  A    between atoms: C_15  and  C_10 
ROOT
ATOM      1  C   UNL d   1     -48.193  12.867  22.949  0.00  0.00     0.166 A 
ATOM      2  C   UNL d   1     -48.186  12.122  23.306  0.00  0.00     0.117 A 
ATOM      3  N   UNL d   1     -47.411  13.064  22.810  0.00  0.00    -0.289 N 
ATOM      4  N   UNL d   1     -48.909  13.259  22.801  0.00  0.00    -0.225 NA
ATOM      5  N   UNL d   1     -48.912  11.789  23.507  0.00  0.00    -0.241 NA
ATOM      6  C   UNL d   1     -47.418  11.879  23.379  0.00  0.00     0.037 A 
ATOM      7  C   UNL d   1     -46.932  12.468  23.068  0.00  0.00     0.067 A 
ATOM      8  C   UNL d   1     -49.612  12.913  23.008  0.00  0.00     0.101 A 
ATOM      9  C   UNL d   1     -49.605  12.168  23.365  0.00  0.00     0.099 A 
ATOM     10  C   UNL d   1     -47.086  11.191  23.690  0.00  0.00     0.003 A 
ATOM     11  C   UNL d   1     -46.117  12.367  23.070  0.00  0.00     0.018 A 
ATOM     12  C   UNL d   1     -50.306  11.819  23.573  0.00  0.00     0.021 A 
ATOM     13  C   UNL d   1     -50.304  13.290  22.867  0.00  0.00     0.021 A 
ATOM     14  C   UNL d   1     -46.266  11.093  23.690  0.00  0.00     0.000 A 
ATOM     15  C   UNL d   1     -45.780  11.683  23.379  0.00  0.00     0.002 A 
ATOM     16  C   UNL d   1     -51.024  12.923  23.084  0.00  0.00     0.002 A 
ATOM     17  C   UNL d   1     -51.037  12.194  23.434  0.00  0.00     0.002 A 
ENDROOT
BRANCH   3  18
ATOM     18  C   UNL d   1     -47.155  13.752  22.464  0.00  0.00     0.082 C 
BRANCH  18  19
ATOM     19  C   UNL d   1     -46.994  14.409  22.958  0.00  0.00     0.019 C 
ATOM     20  C   UNL d   1     -46.926  15.143  22.643  0.00  0.00     0.002 C 
ENDBRANCH  18  19
ENDBRANCH   3  18
TORSDOF 2
ENDMDL
MODEL 5
REMARK VINA RESULT:      -8.0      0.827      3.125
REMARK  2 active torsions:
REMARK  status: ('A' for Active; 'I' for Inactive)
REMARK    1  A    between atoms: C_10  and  N_3 
REMARK    2  A    between atoms: C_15  and  C_10 
ROOT
ATOM      1  C   UNL d   1     -48.635  13.502  23.163  0.00  0.00     0.166 A 
ATOM      2  C   UNL d   1     -48.221  12.787  23.188  0.00  0.00     0.117 A 
ATOM      3  N   UNL d   1     -48.078  14.085  23.016  0.00  0.00    -0.289 N 
ATOM      4  N   UNL d   1     -49.456  13.521  23.279  0.00  0.00    -0.225 NA
ATOM      5  N   UNL d   1     -48.654  12.102  23.330  0.00  0.00    -0.241 NA
ATOM      6  C   UNL d   1     -47.437  12.938  23.058  0.00  0.00     0.037 A 
ATOM      7  C   UNL d   1     -47.348  13.751  22.950  0.00  0.00     0.067 A 
ATOM      8  C   UNL d   1     -49.863  12.834  23.417  0.00  0.00     0.101 A 
ATOM      9  C   UNL d   1     -49.449  12.119  23.441  0.00  0.00     0.099 A 
ATOM     10  C   UNL d   1     -46.780  12.442  23.022  0.00  0.00     0.003 A 
ATOM     11  C   UNL d   1     -46.601  14.063  22.807  0.00  0.00     0.018 A 
ATOM     12  C   UNL d   1     -49.853  11.430  23.579  0.00  0.00     0.021 A 
ATOM     13  C   UNL d   1     -50.654  12.850  23.529  0.00  0.00     0.021 A 
ATOM     14  C   UNL d   1     -46.031  12.759  22.877  0.00  0.00     0.000 A 
ATOM     15  C   UNL d   1     -45.942  13.572  22.770  0.00  0.00     0.002 A 
ATOM     16  C   UNL d   1     -51.064  12.133  23.671  0.00  0.00     0.002 A 
ATOM     17  C   UNL d   1     -50.677  11.425  23.698  0.00  0.00     0.002 A 
ENDROOT
BRANCH   3  18
ATOM     18  C   UNL d   1     -48.238  14.878  22.946  0.00  0.00     0.082 C 
BRANCH  18  19
ATOM     19  C   UNL d   1     -48.488  15.170  22.202  0.00  0.00     0.019 C 
ATOM     20  C   UNL d   1     -48.811  15.902  22.144  0.00  0.00     0.002 C 
ENDBRANCH  18  19
ENDBRANCH   3  18
TORSDOF 2
ENDMDL
MODEL 6
REMARK VINA RESULT:      -7.6      0.715      1.054
REMARK  2 active torsions:
REMARK  status: ('A' for Active; 'I' for Inactive)
REMARK    1  A    between atoms: C_10  and  N_3 
REMARK    2  A    between atoms: C_15  and  C_10 
ROOT
ATOM      1  C   UNL d   1     -47.714  12.478  23.299  0.00  0.00     0.166 A 
ATOM      2  C   UNL d   1     -47.125  13.019  23.093  0.00  0.00     0.117 A 
ATOM      3  N   UNL d   1     -48.426  12.880  23.248  0.00  0.00    -0.289 N 
ATOM      4  N   UNL d   1     -47.519  11.698  23.503  0.00  0.00    -0.225 NA
ATOM      5  N   UNL d   1     -46.346  12.756  23.098  0.00  0.00    -0.241 NA
ATOM      6  C   UNL d   1     -47.476  13.728  22.923  0.00  0.00     0.037 A 
ATOM      7  C   UNL d   1     -48.291  13.641  23.020  0.00  0.00     0.067 A 
ATOM      8  C   UNL d   1     -46.745  11.459  23.502  0.00  0.00     0.101 A 
ATOM      9  C   UNL d   1     -46.156  12.001  23.295  0.00  0.00     0.099 A 
ATOM     10  C   UNL d   1     -47.164  14.455  22.689  0.00  0.00     0.003 A 
ATOM     11  C   UNL d   1     -48.788  14.280  22.883  0.00  0.00     0.018 A 
ATOM     12  C   UNL d   1     -45.380  11.766  23.293  0.00  0.00     0.021 A 
ATOM     13  C   UNL d   1     -46.554  10.707  23.698  0.00  0.00     0.021 A 
ATOM     14  C   UNL d   1     -47.668  15.095  22.552  0.00  0.00     0.000 A 
ATOM     15  C   UNL d   1     -48.482  15.007  22.649  0.00  0.00     0.002 A 
ATOM     16  C   UNL d   1     -45.750  10.471  23.693  0.00  0.00     0.002 A 
ATOM     17  C   UNL d   1     -45.161  10.988  23.494  0.00  0.00     0.002 A 
ENDROOT
BRANCH   3  18
ATOM     18  C   UNL d   1     -49.156  12.560  23.404  0.00  0.00     0.082 C 
BRANCH  18  19
ATOM     19  C   UNL d   1     -49.594  12.240  22.766  0.00  0.00     0.019 C 
ATOM     20  C   UNL d   1     -50.316  11.916  22.896  0.00  0.00     0.002 C 
ENDBRANCH  18  19
ENDBRANCH   3  18
TORSDOF 2
ENDMDL
MODEL 7
REMARK VINA RESULT:      -7.1      0.765      2.144
REMARK  2 active torsions:
REMARK  status: ('A' for Active; 'I' for Inactive)
REMARK    1  A    between atoms: C_10  and  N_3 
REMARK    2  A    between atoms: C_15  and  C_10 
ROOT
ATOM      1  C   UNL d   1     -48.423  12.960  23.093  0.00  0.00     0.166 A 
ATOM      2  C   UNL d   1     -48.896  12.307  22.913  0.00  0.00     0.117 A 
ATOM      3  N   UNL d   1     -48.889  13.623  22.978  0.00  0.00    -0.289 N 
ATOM      4  N   UNL d   1     -47.636  12.857  23.336  0.00  0.00    -0.225 NA
ATOM      5  N   UNL d   1     -48.559  11.560  22.983  0.00  0.00    -0.241 NA
ATOM      6  C   UNL d   1     -49.629  12.573  22.695  0.00  0.00     0.037 A 
ATOM      7  C   UNL d   1     -49.624  13.397  22.736  0.00  0.00     0.067 A 
ATOM      8  C   UNL d   1     -47.323  12.113  23.399  0.00  0.00     0.101 A 
ATOM      9  C   UNL d   1     -47.798  11.460  23.218  0.00  0.00     0.099 A 
ATOM     10  C   UNL d   1     -50.312  12.175  22.460  0.00  0.00     0.003 A 
ATOM     11  C   UNL d   1     -50.303  13.818  22.542  0.00  0.00     0.018 A 
ATOM     12  C   UNL d   1     -47.488  10.714  23.280  0.00  0.00     0.021 A 
ATOM     13  C   UNL d   1     -46.566  12.012  23.633  0.00  0.00     0.021 A 
ATOM     14  C   UNL d   1     -50.992  12.602  22.266  0.00  0.00     0.000 A 
ATOM     15  C   UNL d   1     -50.987  13.426  22.307  0.00  0.00     0.002 A 
ATOM     16  C   UNL d   1     -46.253  11.237  23.695  0.00  0.00     0.002 A 
ATOM     17  C   UNL d   1     -46.702  10.587  23.522  0.00  0.00     0.002 A 
ENDROOT
BRANCH   3  18
ATOM     18  C   UNL d   1     -48.649  14.390  23.091  0.00  0.00     0.082 C 
BRANCH  18  19
ATOM     19  C   UNL d   1     -48.363  14.818  22.431  0.00  0.00     0.019 C 
ATOM     20  C   UNL d   1     -48.104  15.572  22.520  0.00  0.00     0.002 C 
ENDBRANCH  18  19
ENDBRANCH   3  18
TORSDOF 2
ENDMDL
MODEL 8
REMARK VINA RESULT:      -6.2      1.142      2.391
REMARK  2 active torsions:
REMARK  status: ('A' for Active; 'I' for Inactive)
REMARK    1  A    between atoms: C_10  and  N_3 
REMARK    2  A    between atoms: C_15  and  C_10 
ROOT
ATOM      1  C   UNL d   1     -48.708  13.780  22.926  0.00  0.00     0.166 A 
ATOM      2  C   UNL d   1     -49.423  13.649  23.319  0.00  0.00     0.117 A 
ATOM      3  N   UNL d   1     -48.688  14.578  22.742  0.00  0.00    -0.289 N 
ATOM      4  N   UNL d   1     -48.178  13.156  22.793  0.00  0.00    -0.225 NA
ATOM      5  N   UNL d   1     -49.585  12.882  23.570  0.00  0.00    -0.241 NA
ATOM      6  C   UNL d   1     -49.821  14.351  23.369  0.00  0.00     0.037 A 
ATOM      7  C   UNL d   1     -49.361  14.933  23.007  0.00  0.00     0.067 A 
ATOM      8  C   UNL d   1     -48.357  12.408  23.048  0.00  0.00     0.101 A 
ATOM      9  C   UNL d   1     -49.073  12.278  23.441  0.00  0.00     0.099 A 
ATOM     10  C   UNL d   1     -50.552  14.548  23.698  0.00  0.00     0.003 A 
ATOM     11  C   UNL d   1     -49.635  15.708  22.977  0.00  0.00     0.018 A 
ATOM     12  C   UNL d   1     -49.255  11.531  23.698  0.00  0.00     0.021 A 
ATOM     13  C   UNL d   1     -47.847  11.806  22.921  0.00  0.00     0.021 A 
ATOM     14  C   UNL d   1     -50.822  15.327  23.665  0.00  0.00     0.000 A 
ATOM     15  C   UNL d   1     -50.363  15.909  23.303  0.00  0.00     0.002 A 
ATOM     16  C   UNL d   1     -48.043  11.037  23.189  0.00  0.00     0.002 A 
ATOM     17  C   UNL d   1     -48.739  10.890  23.575  0.00  0.00     0.002 A 
ENDROOT
BRANCH   3  18
ATOM     18  C   UNL d   1     -48.084  14.954  22.352  0.00  0.00     0.082 C 
BRANCH  18  19
ATOM     19  C   UNL d   1     -47.398  15.160  22.785  0.00  0.00     0.019 C 
ATOM     20  C   UNL d   1     -46.711  15.316  22.402  0.00  0.00     0.002 C 
ENDBRANCH  18  19
ENDBRANCH   3  18
TORSDOF 2
ENDMDL
MODEL 9
REMARK VINA RESULT:      -6.1      1.689      3.284
REMARK  2 active torsions:
REMARK  status: ('A' for Active; 'I' for Inactive)
REMARK    1  A    between atoms: C_10  and  N_3 
REMARK    2  A    between atoms: C_15  and  C_10 
ROOT
ATOM      1  C   UNL d   1     -46.056  12.092  22.945  0.00  0.00     0.166 A 
ATOM      2  C   UNL d   1     -46.465  11.478  23.318  0.00  0.00     0.117 A 
ATOM      3  N   UNL d   1     -46.609  12.674  22.785  0.00  0.00    -0.289 N 
ATOM      4  N   UNL d   1     -45.240  12.033  22.805  0.00  0.00    -0.225 NA
ATOM      5  N   UNL d   1     -46.034  10.814  23.542  0.00  0.00    -0.241 NA
ATOM      6  C   UNL d   1     -47.244  11.688  23.379  0.00  0.00     0.037 A 
ATOM      7  C   UNL d   1     -47.334  12.437  23.045  0.00  0.00     0.067 A 
ATOM      8  C   UNL d   1     -44.835  11.370  23.034  0.00  0.00     0.101 A 
ATOM      9  C   UNL d   1     -45.245  10.756  23.407  0.00  0.00     0.099 A 
ATOM     10  C   UNL d   1     -47.896  11.297  23.698  0.00  0.00     0.003 A 
ATOM     11  C   UNL d   1     -48.076  12.790  23.032  0.00  0.00     0.018 A 
ATOM     12  C   UNL d   1     -44.843  10.091  23.638  0.00  0.00     0.021 A 
ATOM     13  C   UNL d   1     -44.049  11.311  22.900  0.00  0.00     0.021 A 
ATOM     14  C   UNL d   1     -48.640  11.655  23.682  0.00  0.00     0.000 A 
ATOM     15  C   UNL d   1     -48.730  12.404  23.348  0.00  0.00     0.002 A 
ATOM     16  C   UNL d   1     -43.641  10.621  23.141  0.00  0.00     0.002 A 
ATOM     17  C   UNL d   1     -44.024  10.011  23.507  0.00  0.00     0.002 A 
ENDROOT
BRANCH   3  18
ATOM     18  C   UNL d   1     -46.452  13.381  22.419  0.00  0.00     0.082 C 
BRANCH  18  19
ATOM     19  C   UNL d   1     -46.159  14.013  22.884  0.00  0.00     0.019 C 
ATOM     20  C   UNL d   1     -46.382  14.767  22.726  0.00  0.00     0.002 C 
ENDBRANCH  18  19
ENDBRANCH   3  18
TORSDOF 2
ENDMDL
