MODEL 1
REMARK VINA RESULT:       1.4      0.000      0.000
REMARK  8 active torsions:
REMARK  status: ('A' for Active; 'I' for Inactive)
REMARK    1  A    between atoms: C_11  and  C_3 
REMARK    2  A    between atoms: C_10  and  C_4 
REMARK    3  A    between atoms: O_18  and  C_10 
REMARK    4  A    between atoms: N_17  and  C_11 
REMARK    5  A    between atoms: C_12  and  C_15 
REMARK    6  A    between atoms: C_15  and  C_23 
REMARK    7  A    between atoms: C_23  and  N_17 
REMARK    8  A    between atoms: C_24  and  O_18 
ROOT
ATOM      1  C   UNL d   1      58.534  -0.468  30.518  0.00  0.00     0.035 A 
ATOM      2  C   UNL d   1      59.118   0.109  30.634  0.00  0.00     0.100 A 
ATOM      3  C   UNL d   1      58.628  -1.039  29.927  0.00  0.00     0.060 A 
ATOM      4  C   UNL d   1      57.937  -0.342  31.057  0.00  0.00     0.088 A 
ATOM      5  O   UNL d   1      58.874   0.573  31.233  0.00  0.00    -0.307 OA
ATOM      6  C   UNL d   1      58.162   0.312  31.499  0.00  0.00     0.105 A 
ATOM      7  C   UNL d   1      59.306  -1.028  29.456  0.00  0.00     0.197 A 
ATOM      8  C   UNL d   1      59.772   0.103  30.164  0.00  0.00     0.026 A 
ATOM      9  C   UNL d   1      59.867  -0.467  29.573  0.00  0.00     0.041 A 
ATOM     10  O   UNL d   1      59.402  -1.611  28.852  0.00  0.00    -0.286 OA
ATOM     11  C   UNL d   1      57.716   0.633  32.110  0.00  0.00     0.027 C 
ATOM     12  C   UNL d   1      60.356   0.681  30.281  0.00  0.00     0.002 A 
ATOM     13  C   UNL d   1      60.544  -0.456  29.102  0.00  0.00     0.003 A 
ATOM     14  C   UNL d   1      61.121   0.111  29.215  0.00  0.00     0.000 A 
ATOM     15  C   UNL d   1      61.027   0.682  29.806  0.00  0.00     0.000 A 
ENDROOT
BRANCH   3  16
ATOM     16  C   UNL d   1      58.028  -1.638  29.803  0.00  0.00     0.102 C 
BRANCH  16  17
ATOM     17  N   UNL d   1      58.019  -2.091  29.095  0.00  0.00    -0.242 NA
BRANCH  17  18
ATOM     18  C   UNL d   1      58.043  -2.894  29.121  0.00  0.00     0.105 C 
BRANCH  18  19
ATOM     19  C   UNL d   1      58.307  -3.330  28.471  0.00  0.00     0.091 C 
BRANCH  19  20
ATOM     20  C   UNL d   1      58.424  -4.148  28.539  0.00  0.00     0.213 C 
ATOM     21  O   UNL d   1      57.785  -4.666  28.455  0.00  0.00    -0.644 OA
ATOM     22  O   UNL d   1      59.177  -4.439  28.690  0.00  0.00    -0.644 OA
ENDBRANCH  19  20
ENDBRANCH  18  19
ENDBRANCH  17  18
ENDBRANCH  16  17
ENDBRANCH   3  16
BRANCH   4  23
ATOM     23  C   UNL d   1      57.229  -0.762  31.174  0.00  0.00     0.302 C 
ATOM     24  O   UNL d   1      56.663  -0.807  30.557  0.00  0.00    -0.259 OA
BRANCH  23  25
ATOM     25  O   UNL d   1      57.075  -1.134  31.881  0.00  0.00    -0.271 OA
BRANCH  25  26
ATOM     26  C   UNL d   1      56.315  -1.171  32.161  0.00  0.00     0.126 C 
ATOM     27  C   UNL d   1      56.211  -1.200  32.966  0.00  0.00     0.029 C 
ENDBRANCH  25  26
ENDBRANCH  23  25
ENDBRANCH   4  23
TORSDOF 8
ENDMDL
MODEL 2
REMARK VINA RESULT:       1.7      1.182      3.541
REMARK  8 active torsions:
REMARK  status: ('A' for Active; 'I' for Inactive)
REMARK    1  A    between atoms: C_11  and  C_3 
REMARK    2  A    between atoms: C_10  and  C_4 
REMARK    3  A    between atoms: O_18  and  C_10 
REMARK    4  A    between atoms: N_17  and  C_11 
REMARK    5  A    between atoms: C_12  and  C_15 
REMARK    6  A    between atoms: C_15  and  C_23 
REMARK    7  A    between atoms: C_23  and  N_17 
REMARK    8  A    between atoms: C_24  and  O_18 
ROOT
ATOM      1  C   UNL d   1      59.545  -2.092  29.008  0.00  0.00     0.035 A 
ATOM      2  C   UNL d   1      60.250  -1.758  28.728  0.00  0.00     0.100 A 
ATOM      3  C   UNL d   1      58.939  -1.605  29.290  0.00  0.00     0.060 A 
ATOM      4  C   UNL d   1      59.600  -2.902  28.940  0.00  0.00     0.088 A 
ATOM      5  O   UNL d   1      60.720  -2.357  28.497  0.00  0.00    -0.307 OA
ATOM      6  C   UNL d   1      60.339  -3.055  28.619  0.00  0.00     0.105 A 
ATOM      7  C   UNL d   1      59.044  -0.786  29.291  0.00  0.00     0.197 A 
ATOM      8  C   UNL d   1      60.333  -0.956  28.737  0.00  0.00     0.026 A 
ATOM      9  C   UNL d   1      59.728  -0.469  29.020  0.00  0.00     0.041 A 
ATOM     10  O   UNL d   1      58.425  -0.288  29.580  0.00  0.00    -0.286 OA
ATOM     11  C   UNL d   1      60.626  -3.808  28.456  0.00  0.00     0.027 C 
ATOM     12  C   UNL d   1      61.039  -0.622  28.458  0.00  0.00     0.002 A 
ATOM     13  C   UNL d   1      59.833   0.349  29.021  0.00  0.00     0.003 A 
ATOM     14  C   UNL d   1      60.527   0.682  28.746  0.00  0.00     0.000 A 
ATOM     15  C   UNL d   1      61.132   0.194  28.464  0.00  0.00     0.000 A 
ENDROOT
BRANCH   3  16
ATOM     16  C   UNL d   1      58.208  -1.946  29.580  0.00  0.00     0.102 C 
BRANCH  16  17
ATOM     17  N   UNL d   1      57.639  -1.464  29.966  0.00  0.00    -0.242 NA
BRANCH  17  18
ATOM     18  C   UNL d   1      57.519  -1.525  30.759  0.00  0.00     0.105 C 
BRANCH  18  19
ATOM     19  C   UNL d   1      57.008  -1.006  31.149  0.00  0.00     0.091 C 
BRANCH  19  20
ATOM     20  C   UNL d   1      56.648  -1.234  31.861  0.00  0.00     0.213 C 
ATOM     21  O   UNL d   1      55.955  -0.861  32.113  0.00  0.00    -0.644 OA
ATOM     22  O   UNL d   1      56.986  -1.832  32.313  0.00  0.00    -0.644 OA
ENDBRANCH  19  20
ENDBRANCH  18  19
ENDBRANCH  17  18
ENDBRANCH  16  17
ENDBRANCH   3  16
BRANCH   4  23
ATOM     23  C   UNL d   1      59.047  -3.490  29.140  0.00  0.00     0.302 C 
ATOM     24  O   UNL d   1      59.058  -3.830  29.906  0.00  0.00    -0.259 OA
BRANCH  23  25
ATOM     25  O   UNL d   1      58.492  -3.744  28.602  0.00  0.00    -0.271 OA
BRANCH  25  26
ATOM     26  C   UNL d   1      57.867  -4.195  28.849  0.00  0.00     0.126 C 
ATOM     27  C   UNL d   1      57.833  -4.965  28.592  0.00  0.00     0.029 C 
ENDBRANCH  25  26
ENDBRANCH  23  25
ENDBRANCH   4  23
TORSDOF 8
ENDMDL
