MODEL 1
REMARK VINA RESULT:      -7.9      0.000      0.000
REMARK  4 active torsions:
REMARK  status: ('A' for Active; 'I' for Inactive)
REMARK    1  A    between atoms: N_10  and  C_3 
REMARK    2  A    between atoms: C_11  and  C_5 
REMARK    3  A    between atoms: C_13  and  N_10 
REMARK    4  A    between atoms: C_15  and  C_13 
ROOT
ATOM      1  N   UNL d   1      52.213  34.063  53.485  0.00  0.00    -0.195 N 
ATOM      2  C   UNL d   1      52.909  33.811  53.880  0.00  0.00     0.167 A 
ATOM      3  C   UNL d   1      51.773  33.518  53.044  0.00  0.00     0.167 A 
ATOM      4  N   UNL d   1      52.411  35.380  53.975  0.00  0.00    -0.163 NA
ATOM      5  C   UNL d   1      53.339  34.341  54.311  0.00  0.00     0.055 A 
ATOM      6  N   UNL d   1      53.140  33.024  53.820  0.00  0.00    -0.227 NA
ATOM      7  C   UNL d   1      52.014  32.745  52.995  0.00  0.00     0.054 A 
ATOM      8  C   UNL d   1      53.096  35.132  54.364  0.00  0.00     0.104 A 
ATOM      9  C   UNL d   1      52.709  32.485  53.387  0.00  0.00     0.086 A 
ATOM     10  C   UNL d   1      51.706  32.098  52.614  0.00  0.00     0.005 A 
ATOM     11  C   UNL d   1      53.537  35.663  54.802  0.00  0.00     0.023 C 
ATOM     12  C   UNL d   1      52.811  31.686  53.237  0.00  0.00     0.019 A 
ATOM     13  C   UNL d   1      52.180  31.447  52.753  0.00  0.00     0.002 A 
ENDROOT
BRANCH   3  14
ATOM     14  N   UNL d   1      51.070  33.769  52.644  0.00  0.00    -0.224 NA
BRANCH  14  15
ATOM     15  C   UNL d   1      50.805  34.297  52.039  0.00  0.00     0.120 C 
BRANCH  15  16
ATOM     16  C   UNL d   1      49.997  34.496  51.983  0.00  0.00     0.101 A 
ATOM     17  N   UNL d   1      49.606  34.858  52.643  0.00  0.00    -0.242 NA
ATOM     18  C   UNL d   1      48.789  35.061  52.590  0.00  0.00     0.099 A 
ATOM     19  C   UNL d   1      48.363  34.901  51.878  0.00  0.00     0.021 A 
ATOM     20  C   UNL d   1      48.754  34.539  51.220  0.00  0.00     0.003 A 
ATOM     21  C   UNL d   1      49.574  34.338  51.279  0.00  0.00     0.021 A 
ENDBRANCH  15  16
ENDBRANCH  14  15
ENDBRANCH   3  14
BRANCH   5  22
ATOM     22  C   UNL d   1      54.020  34.095  54.697  0.00  0.00     0.004 A 
ATOM     23  C   UNL d   1      54.746  34.142  54.325  0.00  0.00     0.000 A 
ATOM     24  C   UNL d   1      55.435  33.893  54.716  0.00  0.00     0.000 A 
ATOM     25  C   UNL d   1      55.384  33.602  55.471  0.00  0.00     0.000 A 
ATOM     26  C   UNL d   1      54.653  33.553  55.850  0.00  0.00     0.000 A 
ATOM     27  C   UNL d   1      53.976  33.799  55.462  0.00  0.00     0.000 A 
ENDBRANCH   5  22
TORSDOF 4
ENDMDL
MODEL 2
REMARK VINA RESULT:      -7.5      1.650      3.475
REMARK  4 active torsions:
REMARK  status: ('A' for Active; 'I' for Inactive)
REMARK    1  A    between atoms: N_10  and  C_3 
REMARK    2  A    between atoms: C_11  and  C_5 
REMARK    3  A    between atoms: C_13  and  N_10 
REMARK    4  A    between atoms: C_15  and  C_13 
ROOT
ATOM      1  N   UNL d   1      52.948  32.116  53.347  0.00  0.00    -0.195 N 
ATOM      2  C   UNL d   1      53.243  31.453  53.768  0.00  0.00     0.167 A 
ATOM      3  C   UNL d   1      53.136  32.880  53.604  0.00  0.00     0.167 A 
ATOM      4  N   UNL d   1      52.293  31.248  52.436  0.00  0.00    -0.163 NA
ATOM      5  C   UNL d   1      53.060  30.707  53.518  0.00  0.00     0.055 A 
ATOM      6  N   UNL d   1      53.715  31.576  54.430  0.00  0.00    -0.227 NA
ATOM      7  C   UNL d   1      53.604  32.985  54.259  0.00  0.00     0.054 A 
ATOM      8  C   UNL d   1      52.583  30.594  52.850  0.00  0.00     0.104 A 
ATOM      9  C   UNL d   1      53.902  32.327  54.686  0.00  0.00     0.086 A 
ATOM     10  C   UNL d   1      53.877  33.650  54.636  0.00  0.00     0.005 A 
ATOM     11  C   UNL d   1      52.403  29.836  52.604  0.00  0.00     0.023 C 
ATOM     12  C   UNL d   1      54.351  32.603  55.313  0.00  0.00     0.019 A 
ATOM     13  C   UNL d   1      54.332  33.433  55.279  0.00  0.00     0.002 A 
ENDROOT
BRANCH   3  14
ATOM     14  N   UNL d   1      52.841  33.552  53.182  0.00  0.00    -0.224 NA
BRANCH  14  15
ATOM     15  C   UNL d   1      52.332  34.221  53.276  0.00  0.00     0.120 C 
BRANCH  15  16
ATOM     16  C   UNL d   1      51.643  34.289  52.811  0.00  0.00     0.101 A 
ATOM     17  N   UNL d   1      51.707  34.325  51.966  0.00  0.00    -0.242 NA
ATOM     18  C   UNL d   1      51.013  34.394  51.492  0.00  0.00     0.099 A 
ATOM     19  C   UNL d   1      50.255  34.427  51.863  0.00  0.00     0.021 A 
ATOM     20  C   UNL d   1      50.191  34.390  52.706  0.00  0.00     0.003 A 
ATOM     21  C   UNL d   1      50.892  34.321  53.176  0.00  0.00     0.021 A 
ENDBRANCH  15  16
ENDBRANCH  14  15
ENDBRANCH   3  14
BRANCH   5  22
ATOM     22  C   UNL d   1      53.348  30.058  53.930  0.00  0.00     0.004 A 
ATOM     23  C   UNL d   1      52.930  29.750  54.560  0.00  0.00     0.000 A 
ATOM     24  C   UNL d   1      53.221  29.093  54.977  0.00  0.00     0.000 A 
ATOM     25  C   UNL d   1      53.925  28.758  54.754  0.00  0.00     0.000 A 
ATOM     26  C   UNL d   1      54.351  29.066  54.118  0.00  0.00     0.000 A 
ATOM     27  C   UNL d   1      54.060  29.713  53.711  0.00  0.00     0.000 A 
ENDBRANCH   5  22
TORSDOF 4
ENDMDL
MODEL 3
REMARK VINA RESULT:      -5.9      1.390      3.729
REMARK  4 active torsions:
REMARK  status: ('A' for Active; 'I' for Inactive)
REMARK    1  A    between atoms: N_10  and  C_3 
REMARK    2  A    between atoms: C_11  and  C_5 
REMARK    3  A    between atoms: C_13  and  N_10 
REMARK    4  A    between atoms: C_15  and  C_13 
ROOT
ATOM      1  N   UNL d   1      52.880  32.860  53.800  0.00  0.00    -0.195 N 
ATOM      2  C   UNL d   1      52.829  33.685  53.944  0.00  0.00     0.167 A 
ATOM      3  C   UNL d   1      52.279  32.481  53.376  0.00  0.00     0.167 A 
ATOM      4  N   UNL d   1      54.114  32.814  54.499  0.00  0.00    -0.163 NA
ATOM      5  C   UNL d   1      53.414  34.055  54.358  0.00  0.00     0.055 A 
ATOM      6  N   UNL d   1      52.179  34.102  53.659  0.00  0.00    -0.227 NA
ATOM      7  C   UNL d   1      51.645  32.906  53.101  0.00  0.00     0.054 A 
ATOM      8  C   UNL d   1      54.064  33.626  54.641  0.00  0.00     0.104 A 
ATOM      9  C   UNL d   1      51.586  33.731  53.241  0.00  0.00     0.086 A 
ATOM     10  C   UNL d   1      50.985  32.695  52.678  0.00  0.00     0.005 A 
ATOM     11  C   UNL d   1      54.653  34.009  55.059  0.00  0.00     0.023 C 
ATOM     12  C   UNL d   1      50.893  34.007  52.901  0.00  0.00     0.019 A 
ATOM     13  C   UNL d   1      50.519  33.354  52.549  0.00  0.00     0.002 A 
ENDROOT
BRANCH   3  14
ATOM     14  N   UNL d   1      52.327  31.649  53.228  0.00  0.00    -0.224 NA
BRANCH  14  15
ATOM     15  C   UNL d   1      52.841  31.064  52.899  0.00  0.00     0.120 C 
BRANCH  15  16
ATOM     16  C   UNL d   1      52.912  30.317  53.265  0.00  0.00     0.101 A 
ATOM     17  N   UNL d   1      52.247  29.791  53.282  0.00  0.00    -0.242 NA
ATOM     18  C   UNL d   1      52.315  29.037  53.651  0.00  0.00     0.099 A 
ATOM     19  C   UNL d   1      53.048  28.808  54.004  0.00  0.00     0.021 A 
ATOM     20  C   UNL d   1      53.712  29.333  53.987  0.00  0.00     0.003 A 
ATOM     21  C   UNL d   1      53.637  30.089  53.615  0.00  0.00     0.021 A 
ENDBRANCH  15  16
ENDBRANCH  14  15
ENDBRANCH   3  14
BRANCH   5  22
ATOM     22  C   UNL d   1      53.365  34.862  54.500  0.00  0.00     0.004 A 
ATOM     23  C   UNL d   1      53.659  35.396  53.955  0.00  0.00     0.000 A 
ATOM     24  C   UNL d   1      53.609  36.213  54.098  0.00  0.00     0.000 A 
ATOM     25  C   UNL d   1      53.265  36.479  54.783  0.00  0.00     0.000 A 
ATOM     26  C   UNL d   1      52.967  35.944  55.335  0.00  0.00     0.000 A 
ATOM     27  C   UNL d   1      53.018  35.140  55.190  0.00  0.00     0.000 A 
ENDBRANCH   5  22
TORSDOF 4
ENDMDL
MODEL 4
REMARK VINA RESULT:      -5.3      1.148      2.348
REMARK  4 active torsions:
REMARK  status: ('A' for Active; 'I' for Inactive)
REMARK    1  A    between atoms: N_10  and  C_3 
REMARK    2  A    between atoms: C_11  and  C_5 
REMARK    3  A    between atoms: C_13  and  N_10 
REMARK    4  A    between atoms: C_15  and  C_13 
ROOT
ATOM      1  N   UNL d   1      51.722  33.687  53.161  0.00  0.00    -0.195 N 
ATOM      2  C   UNL d   1      52.487  33.491  53.445  0.00  0.00     0.167 A 
ATOM      3  C   UNL d   1      51.405  34.433  53.324  0.00  0.00     0.167 A 
ATOM      4  N   UNL d   1      51.613  32.403  52.567  0.00  0.00    -0.163 NA
ATOM      5  C   UNL d   1      52.798  32.763  53.287  0.00  0.00     0.055 A 
ATOM      6  N   UNL d   1      52.907  34.048  53.882  0.00  0.00    -0.227 NA
ATOM      7  C   UNL d   1      51.831  34.972  53.756  0.00  0.00     0.054 A 
ATOM      8  C   UNL d   1      52.366  32.210  52.847  0.00  0.00     0.104 A 
ATOM      9  C   UNL d   1      52.596  34.784  54.044  0.00  0.00     0.086 A 
ATOM     10  C   UNL d   1      51.671  35.730  53.999  0.00  0.00     0.005 A 
ATOM     11  C   UNL d   1      52.689  31.474  52.691  0.00  0.00     0.023 C 
ATOM     12  C   UNL d   1      52.888  35.429  54.456  0.00  0.00     0.019 A 
ATOM     13  C   UNL d   1      52.305  36.020  54.425  0.00  0.00     0.002 A 
ENDROOT
BRANCH   3  14
ATOM     14  N   UNL d   1      50.633  34.635  53.039  0.00  0.00    -0.224 NA
BRANCH  14  15
ATOM     15  C   UNL d   1      49.863  34.304  52.923  0.00  0.00     0.120 C 
BRANCH  15  16
ATOM     16  C   UNL d   1      49.262  34.763  52.570  0.00  0.00     0.101 A 
ATOM     17  N   UNL d   1      48.826  35.319  53.039  0.00  0.00    -0.242 NA
ATOM     18  C   UNL d   1      48.218  35.784  52.686  0.00  0.00     0.099 A 
ATOM     19  C   UNL d   1      48.044  35.692  51.865  0.00  0.00     0.021 A 
ATOM     20  C   UNL d   1      48.479  35.136  51.397  0.00  0.00     0.003 A 
ATOM     21  C   UNL d   1      49.089  34.673  51.757  0.00  0.00     0.021 A 
ENDBRANCH  15  16
ENDBRANCH  14  15
ENDBRANCH   3  14
BRANCH   5  22
ATOM     22  C   UNL d   1      53.546  32.571  53.565  0.00  0.00     0.004 A 
ATOM     23  C   UNL d   1      54.208  32.732  53.114  0.00  0.00     0.000 A 
ATOM     24  C   UNL d   1      54.965  32.538  53.396  0.00  0.00     0.000 A 
ATOM     25  C   UNL d   1      55.044  32.186  54.122  0.00  0.00     0.000 A 
ATOM     26  C   UNL d   1      54.379  32.022  54.580  0.00  0.00     0.000 A 
ATOM     27  C   UNL d   1      53.635  32.215  54.300  0.00  0.00     0.000 A 
ENDBRANCH   5  22
TORSDOF 4
ENDMDL
MODEL 5
REMARK VINA RESULT:      -5.1      9.903     11.116
REMARK  4 active torsions:
REMARK  status: ('A' for Active; 'I' for Inactive)
REMARK    1  A    between atoms: N_10  and  C_3 
REMARK    2  A    between atoms: C_11  and  C_5 
REMARK    3  A    between atoms: C_13  and  N_10 
REMARK    4  A    between atoms: C_15  and  C_13 
ROOT
ATOM      1  N   UNL d   1      44.854  27.542  57.256  0.00  0.00    -0.195 N 
ATOM      2  C   UNL d   1      44.859  28.190  57.789  0.00  0.00     0.167 A 
ATOM      3  C   UNL d   1      44.739  26.775  57.545  0.00  0.00     0.167 A 
ATOM      4  N   UNL d   1      45.073  28.432  56.173  0.00  0.00    -0.163 NA
ATOM      5  C   UNL d   1      44.971  28.938  57.508  0.00  0.00     0.055 A 
ATOM      6  N   UNL d   1      44.751  28.047  58.592  0.00  0.00    -0.227 NA
ATOM      7  C   UNL d   1      44.634  26.651  58.340  0.00  0.00     0.054 A 
ATOM      8  C   UNL d   1      45.079  29.069  56.698  0.00  0.00     0.104 A 
ATOM      9  C   UNL d   1      44.638  27.293  58.880  0.00  0.00     0.086 A 
ATOM     10  C   UNL d   1      44.512  25.979  58.778  0.00  0.00     0.005 A 
ATOM     11  C   UNL d   1      45.191  29.831  56.421  0.00  0.00     0.023 C 
ATOM     12  C   UNL d   1      44.519  27.001  59.636  0.00  0.00     0.019 A 
ATOM     13  C   UNL d   1      44.441  26.177  59.568  0.00  0.00     0.002 A 
ENDROOT
BRANCH   3  14
ATOM     14  N   UNL d   1      44.733  26.119  57.009  0.00  0.00    -0.224 NA
BRANCH  14  15
ATOM     15  C   UNL d   1      45.233  25.698  56.473  0.00  0.00     0.120 C 
BRANCH  15  16
ATOM     16  C   UNL d   1      44.928  25.056  56.035  0.00  0.00     0.101 A 
ATOM     17  N   UNL d   1      44.908  24.282  56.382  0.00  0.00    -0.242 NA
ATOM     18  C   UNL d   1      44.601  23.631  55.943  0.00  0.00     0.099 A 
ATOM     19  C   UNL d   1      44.314  23.753  55.158  0.00  0.00     0.021 A 
ATOM     20  C   UNL d   1      44.334  24.526  54.812  0.00  0.00     0.003 A 
ATOM     21  C   UNL d   1      44.644  25.176  55.258  0.00  0.00     0.021 A 
ENDBRANCH  15  16
ENDBRANCH  14  15
ENDBRANCH   3  14
BRANCH   5  22
ATOM     22  C   UNL d   1      44.977  29.572  58.030  0.00  0.00     0.004 A 
ATOM     23  C   UNL d   1      44.331  30.070  58.082  0.00  0.00     0.000 A 
ATOM     24  C   UNL d   1      44.337  30.712  58.610  0.00  0.00     0.000 A 
ATOM     25  C   UNL d   1      44.988  30.841  59.075  0.00  0.00     0.000 A 
ATOM     26  C   UNL d   1      45.642  30.340  59.026  0.00  0.00     0.000 A 
ATOM     27  C   UNL d   1      45.632  29.710  58.505  0.00  0.00     0.000 A 
ENDBRANCH   5  22
TORSDOF 4
ENDMDL
