MODEL 1
REMARK VINA RESULT:      -1.3      0.000      0.000
REMARK  5 active torsions:
REMARK  status: ('A' for Active; 'I' for Inactive)
REMARK    1  A    between atoms: C_11  and  N_1 
REMARK    2  A    between atoms: S_14  and  C_2 
REMARK    3  A    between atoms: C_12  and  C_3 
REMARK    4  A    between atoms: C_8  and  C_12 
REMARK    5  A    between atoms: C_20  and  S_14 
ROOT
ATOM      1  N   UNL d   1      58.353   0.105  31.047  0.00  0.00    -0.269 N 
ATOM      2  C   UNL d   1      59.005   0.453  31.380  0.00  0.00     0.201 A 
ATOM      3  C   UNL d   1      57.809  -0.026  31.649  0.00  0.00     0.172 A 
ATOM      4  N   UNL d   1      58.886   0.545  32.177  0.00  0.00    -0.121 NA
ATOM      5  N   UNL d   1      58.138   0.245  32.346  0.00  0.00    -0.128 NA
ENDROOT
BRANCH   3   6
ATOM      6  C   UNL d   1      57.094  -0.372  31.481  0.00  0.00     0.059 C 
BRANCH   6   7
ATOM      7  C   UNL d   1      56.546  -0.483  32.084  0.00  0.00     0.094 A 
ATOM      8  C   UNL d   1      56.034   0.123  32.292  0.00  0.00     0.082 A 
ATOM      9  C   UNL d   1      55.486   0.009  32.897  0.00  0.00     0.285 A 
ATOM     10  O   UNL d   1      54.958   0.629  33.114  0.00  0.00    -0.265 OA
ATOM     11  N   UNL d   1      55.461  -0.725  33.291  0.00  0.00    -0.152 NA
ATOM     12  C   UNL d   1      55.970  -1.326  33.082  0.00  0.00     0.371 A 
ATOM     13  N   UNL d   1      56.520  -1.204  32.471  0.00  0.00    -0.191 NA
ATOM     14  O   UNL d   1      55.936  -2.049  33.479  0.00  0.00    -0.242 OA
ENDBRANCH   6   7
ENDBRANCH   3   6
BRANCH   1  15
ATOM     15  C   UNL d   1      58.283  -0.070  30.250  0.00  0.00     0.067 A 
ATOM     16  C   UNL d   1      58.432  -0.840  29.984  0.00  0.00     0.018 A 
ATOM     17  C   UNL d   1      58.361  -1.018  29.174  0.00  0.00     0.001 A 
ATOM     18  C   UNL d   1      58.513  -1.799  28.903  0.00  0.00     0.000 C 
ATOM     19  C   UNL d   1      58.144  -0.427  28.644  0.00  0.00     0.000 A 
ATOM     20  C   UNL d   1      57.996   0.340  28.916  0.00  0.00     0.002 A 
ATOM     21  C   UNL d   1      58.066   0.516  29.717  0.00  0.00     0.018 A 
ENDBRANCH   1  15
BRANCH   2  22
ATOM     22  S   UNL d   1      59.696   0.682  30.956  0.00  0.00    -0.048 SA
BRANCH  22  23
ATOM     23  C   UNL d   1      60.436   0.675  31.343  0.00  0.00     0.032 C 
ATOM     24  C   UNL d   1      61.133   0.661  30.897  0.00  0.00     0.007 C 
ATOM     25  C   UNL d   1      60.463   0.682  32.168  0.00  0.00     0.007 C 
ENDBRANCH  22  23
ENDBRANCH   2  22
TORSDOF 5
ENDMDL
MODEL 2
REMARK VINA RESULT:       0.4      1.255      1.793
REMARK  5 active torsions:
REMARK  status: ('A' for Active; 'I' for Inactive)
REMARK    1  A    between atoms: C_11  and  N_1 
REMARK    2  A    between atoms: S_14  and  C_2 
REMARK    3  A    between atoms: C_12  and  C_3 
REMARK    4  A    between atoms: C_8  and  C_12 
REMARK    5  A    between atoms: C_20  and  S_14 
ROOT
ATOM      1  N   UNL d   1      58.716  -0.694  29.899  0.00  0.00    -0.269 N 
ATOM      2  C   UNL d   1      59.215  -0.074  29.741  0.00  0.00     0.201 A 
ATOM      3  C   UNL d   1      58.190  -0.445  30.480  0.00  0.00     0.172 A 
ATOM      4  N   UNL d   1      59.017   0.559  30.207  0.00  0.00    -0.121 NA
ATOM      5  N   UNL d   1      58.376   0.328  30.670  0.00  0.00    -0.128 NA
ENDROOT
BRANCH   3   6
ATOM      6  C   UNL d   1      57.618  -0.952  30.754  0.00  0.00     0.059 C 
BRANCH   6   7
ATOM      7  C   UNL d   1      57.228  -0.781  31.456  0.00  0.00     0.094 A 
ATOM      8  C   UNL d   1      57.465  -0.143  31.914  0.00  0.00     0.082 A 
ATOM      9  C   UNL d   1      57.071   0.027  32.619  0.00  0.00     0.285 A 
ATOM     10  O   UNL d   1      57.311   0.681  33.093  0.00  0.00    -0.265 OA
ATOM     11  N   UNL d   1      56.433  -0.456  32.855  0.00  0.00    -0.152 NA
ATOM     12  C   UNL d   1      56.200  -1.088  32.398  0.00  0.00     0.371 A 
ATOM     13  N   UNL d   1      56.601  -1.254  31.689  0.00  0.00    -0.191 NA
ATOM     14  O   UNL d   1      55.567  -1.559  32.642  0.00  0.00    -0.242 OA
ENDBRANCH   6   7
ENDBRANCH   3   6
BRANCH   1  15
ATOM     15  C   UNL d   1      58.757  -1.422  29.528  0.00  0.00     0.067 A 
ATOM     16  C   UNL d   1      59.377  -1.941  29.710  0.00  0.00     0.018 A 
ATOM     17  C   UNL d   1      59.420  -2.682  29.333  0.00  0.00     0.001 A 
ATOM     18  C   UNL d   1      60.047  -3.209  29.517  0.00  0.00     0.000 C 
ATOM     19  C   UNL d   1      58.845  -2.892  28.782  0.00  0.00     0.000 A 
ATOM     20  C   UNL d   1      58.230  -2.370  28.604  0.00  0.00     0.002 A 
ATOM     21  C   UNL d   1      58.187  -1.637  28.977  0.00  0.00     0.018 A 
ENDBRANCH   1  15
BRANCH   2  22
ATOM     22  S   UNL d   1      59.841  -0.094  29.177  0.00  0.00    -0.048 SA
BRANCH  22  23
ATOM     23  C   UNL d   1      60.487   0.427  29.264  0.00  0.00     0.032 C 
ATOM     24  C   UNL d   1      60.902   0.682  28.595  0.00  0.00     0.007 C 
ATOM     25  C   UNL d   1      60.706   0.682  30.018  0.00  0.00     0.007 C 
ENDBRANCH  22  23
ENDBRANCH   2  22
TORSDOF 5
ENDMDL
MODEL 3
REMARK VINA RESULT:       0.4      2.090      3.700
REMARK  5 active torsions:
REMARK  status: ('A' for Active; 'I' for Inactive)
REMARK    1  A    between atoms: C_11  and  N_1 
REMARK    2  A    between atoms: S_14  and  C_2 
REMARK    3  A    between atoms: C_12  and  C_3 
REMARK    4  A    between atoms: C_8  and  C_12 
REMARK    5  A    between atoms: C_20  and  S_14 
ROOT
ATOM      1  N   UNL d   1      57.407   0.162  32.291  0.00  0.00    -0.269 N 
ATOM      2  C   UNL d   1      57.932   0.510  32.803  0.00  0.00     0.201 A 
ATOM      3  C   UNL d   1      57.780   0.095  31.562  0.00  0.00     0.172 A 
ATOM      4  N   UNL d   1      58.627   0.663  32.414  0.00  0.00    -0.121 NA
ATOM      5  N   UNL d   1      58.533   0.404  31.638  0.00  0.00    -0.128 NA
ENDROOT
BRANCH   3   6
ATOM      6  C   UNL d   1      57.386  -0.236  30.934  0.00  0.00     0.059 C 
BRANCH   6   7
ATOM      7  C   UNL d   1      57.795  -0.395  30.239  0.00  0.00     0.094 A 
ATOM      8  C   UNL d   1      58.007   0.217  29.736  0.00  0.00     0.082 A 
ATOM      9  C   UNL d   1      58.417   0.054  29.039  0.00  0.00     0.285 A 
ATOM     10  O   UNL d   1      58.637   0.680  28.519  0.00  0.00    -0.265 OA
ATOM     11  N   UNL d   1      58.610  -0.736  28.856  0.00  0.00    -0.152 NA
ATOM     12  C   UNL d   1      58.398  -1.342  29.358  0.00  0.00     0.371 A 
ATOM     13  N   UNL d   1      57.986  -1.170  30.058  0.00  0.00    -0.191 NA
ATOM     14  O   UNL d   1      58.596  -2.121  29.166  0.00  0.00    -0.242 OA
ENDBRANCH   6   7
ENDBRANCH   3   6
BRANCH   1  15
ATOM     15  C   UNL d   1      56.649  -0.067  32.499  0.00  0.00     0.067 A 
ATOM     16  C   UNL d   1      56.484  -0.867  32.633  0.00  0.00     0.018 A 
ATOM     17  C   UNL d   1      55.713  -1.101  32.844  0.00  0.00     0.001 A 
ATOM     18  C   UNL d   1      55.546  -1.913  32.980  0.00  0.00     0.000 C 
ATOM     19  C   UNL d   1      55.121  -0.534  32.917  0.00  0.00     0.000 A 
ATOM     20  C   UNL d   1      55.291   0.263  32.782  0.00  0.00     0.002 A 
ATOM     21  C   UNL d   1      56.054   0.495  32.573  0.00  0.00     0.018 A 
ENDBRANCH   1  15
BRANCH   2  22
ATOM     22  S   UNL d   1      57.772   0.681  33.612  0.00  0.00    -0.048 SA
BRANCH  22  23
ATOM     23  C   UNL d   1      58.397   0.672  34.164  0.00  0.00     0.032 C 
ATOM     24  C   UNL d   1      58.230   0.665  34.975  0.00  0.00     0.007 C 
ATOM     25  C   UNL d   1      59.178   0.671  33.895  0.00  0.00     0.007 C 
ENDBRANCH  22  23
ENDBRANCH   2  22
TORSDOF 5
ENDMDL
