MODEL 1
REMARK VINA RESULT:      -7.5      0.000      0.000
REMARK  4 active torsions:
REMARK  status: ('A' for Active; 'I' for Inactive)
REMARK    1  A    between atoms: C_6  and  N_2 
REMARK    2  A    between atoms: C_11  and  C_6 
REMARK    3  A    between atoms: C_10  and  C_11 
REMARK       I    between atoms: N_14  and  C_10 
REMARK    4  A    between atoms: C_16  and  N_14 
ROOT
ATOM      1  C   UNL d   1     -47.052  12.699  22.577  0.00  0.00     0.082 C 
ENDROOT
BRANCH   1   2
ATOM      2  C   UNL d   1     -47.548  13.241  22.654  0.00  0.00     0.281 C 
ATOM      3  N   UNL d   1     -47.670  13.891  23.140  0.00  0.00    -0.208 NA
ATOM      4  O   UNL d   1     -47.887  12.897  22.061  0.00  0.00    -0.265 OA
BRANCH   3   5
ATOM      5  C   UNL d   1     -48.338  14.371  23.019  0.00  0.00     0.087 A 
ATOM      6  C   UNL d   1     -49.034  14.200  23.419  0.00  0.00     0.046 A 
ATOM      7  C   UNL d   1     -49.700  14.680  23.298  0.00  0.00     0.124 A 
ATOM      8  O   UNL d   1     -50.396  14.509  23.698  0.00  0.00    -0.301 OA
ATOM      9  C   UNL d   1     -49.670  15.315  22.788  0.00  0.00     0.123 A 
ATOM     10  C   UNL d   1     -51.063  14.974  23.588  0.00  0.00     0.149 A 
ATOM     11  C   UNL d   1     -51.024  15.615  23.070  0.00  0.00     0.149 A 
ATOM     12  O   UNL d   1     -50.328  15.786  22.670  0.00  0.00    -0.301 OA
ATOM     13  C   UNL d   1     -48.965  15.477  22.392  0.00  0.00     0.028 A 
ATOM     14  C   UNL d   1     -48.298  15.011  22.502  0.00  0.00     0.021 A 
ENDBRANCH   3   5
ENDBRANCH   1   2
BRANCH   1  15
ATOM     15  C   UNL d   1     -46.407  12.348  22.940  0.00  0.00     0.100 C 
BRANCH  15  16
ATOM     16  N   UNL d   1     -45.624  12.255  22.775  0.00  0.00    -0.197 N 
ATOM     17  S   UNL d   1     -44.806  12.212  22.571  0.00  0.00     0.274 S 
ATOM     18  C   UNL d   1     -44.494  11.495  22.899  0.00  0.00     0.109 A 
ATOM     19  O   UNL d   1     -43.975  11.939  22.497  0.00  0.00    -0.200 OA
ATOM     20  O   UNL d   1     -44.431  12.813  22.120  0.00  0.00    -0.200 OA
ATOM     21  C   UNL d   1     -45.117  11.100  23.300  0.00  0.00     0.069 A 
ATOM     22  C   UNL d   1     -43.728  11.156  22.880  0.00  0.00     0.013 A 
ATOM     23  C   UNL d   1     -44.978  10.365  23.686  0.00  0.00     0.005 A 
ATOM     24  C   UNL d   1     -45.812  11.565  23.226  0.00  0.00     0.275 A 
ATOM     25  C   UNL d   1     -44.211  10.036  23.661  0.00  0.00     0.000 A 
ATOM     26  C   UNL d   1     -43.588  10.431  23.259  0.00  0.00     0.001 A 
ATOM     27  O   UNL d   1     -46.476  11.490  23.455  0.00  0.00    -0.266 OA
ENDBRANCH  15  16
ENDBRANCH   1  15
TORSDOF 4
ENDMDL
MODEL 2
REMARK VINA RESULT:      -7.1      1.416      5.810
REMARK  4 active torsions:
REMARK  status: ('A' for Active; 'I' for Inactive)
REMARK    1  A    between atoms: C_6  and  N_2 
REMARK    2  A    between atoms: C_11  and  C_6 
REMARK    3  A    between atoms: C_10  and  C_11 
REMARK       I    between atoms: N_14  and  C_10 
REMARK    4  A    between atoms: C_16  and  N_14 
ROOT
ATOM      1  C   UNL d   1     -47.475  13.315  22.087  0.00  0.00     0.082 C 
ENDROOT
BRANCH   1   2
ATOM      2  C   UNL d   1     -46.861  12.963  22.299  0.00  0.00     0.281 C 
ATOM      3  N   UNL d   1     -46.378  12.924  22.962  0.00  0.00    -0.208 NA
ATOM      4  O   UNL d   1     -46.901  12.656  21.600  0.00  0.00    -0.265 OA
BRANCH   3   5
ATOM      5  C   UNL d   1     -45.713  12.427  22.953  0.00  0.00     0.087 A 
ATOM      6  C   UNL d   1     -45.749  11.699  23.330  0.00  0.00     0.046 A 
ATOM      7  C   UNL d   1     -45.084  11.203  23.321  0.00  0.00     0.124 A 
ATOM      8  O   UNL d   1     -45.120  10.475  23.698  0.00  0.00    -0.301 OA
ATOM      9  C   UNL d   1     -44.399  11.431  22.943  0.00  0.00     0.123 A 
ATOM     10  C   UNL d   1     -44.470   9.974  23.697  0.00  0.00     0.149 A 
ATOM     11  C   UNL d   1     -43.781  10.212  23.312  0.00  0.00     0.149 A 
ATOM     12  O   UNL d   1     -43.745  10.941  22.935  0.00  0.00    -0.301 OA
ATOM     13  C   UNL d   1     -44.374  12.165  22.567  0.00  0.00     0.028 A 
ATOM     14  C   UNL d   1     -45.024  12.666  22.568  0.00  0.00     0.021 A 
ENDBRANCH   3   5
ENDBRANCH   1   2
BRANCH   1  15
ATOM     15  C   UNL d   1     -48.095  13.772  22.367  0.00  0.00     0.100 C 
BRANCH  15  16
ATOM     16  N   UNL d   1     -48.897  13.776  22.291  0.00  0.00    -0.197 N 
ATOM     17  S   UNL d   1     -49.731  13.725  22.178  0.00  0.00     0.274 S 
ATOM     18  C   UNL d   1     -50.086  14.395  22.560  0.00  0.00     0.109 A 
ATOM     19  O   UNL d   1     -50.592  13.901  22.203  0.00  0.00    -0.200 OA
ATOM     20  O   UNL d   1     -50.083  13.093  21.751  0.00  0.00    -0.200 OA
ATOM     21  C   UNL d   1     -49.471  14.853  22.904  0.00  0.00     0.069 A 
ATOM     22  C   UNL d   1     -50.883  14.642  22.635  0.00  0.00     0.013 A 
ATOM     23  C   UNL d   1     -49.651  15.559  23.325  0.00  0.00     0.005 A 
ATOM     24  C   UNL d   1     -48.740  14.474  22.740  0.00  0.00     0.275 A 
ATOM     25  C   UNL d   1     -50.448  15.796  23.394  0.00  0.00     0.000 A 
ATOM     26  C   UNL d   1     -51.062  15.338  23.050  0.00  0.00     0.001 A 
ATOM     27  O   UNL d   1     -48.068  14.622  22.898  0.00  0.00    -0.266 OA
ENDBRANCH  15  16
ENDBRANCH   1  15
TORSDOF 4
ENDMDL
MODEL 3
REMARK VINA RESULT:      -6.1      1.552      5.842
REMARK  4 active torsions:
REMARK  status: ('A' for Active; 'I' for Inactive)
REMARK    1  A    between atoms: C_6  and  N_2 
REMARK    2  A    between atoms: C_11  and  C_6 
REMARK    3  A    between atoms: C_10  and  C_11 
REMARK       I    between atoms: N_14  and  C_10 
REMARK    4  A    between atoms: C_16  and  N_14 
ROOT
ATOM      1  C   UNL d   1     -47.710  13.113  22.435  0.00  0.00     0.082 C 
ENDROOT
BRANCH   1   2
ATOM      2  C   UNL d   1     -46.984  12.970  22.422  0.00  0.00     0.281 C 
ATOM      3  N   UNL d   1     -46.316  13.169  22.855  0.00  0.00    -0.208 NA
ATOM      4  O   UNL d   1     -47.167  12.550  21.809  0.00  0.00    -0.265 OA
BRANCH   3   5
ATOM      5  C   UNL d   1     -45.578  12.865  22.626  0.00  0.00     0.087 A 
ATOM      6  C   UNL d   1     -45.075  13.328  22.172  0.00  0.00     0.046 A 
ATOM      7  C   UNL d   1     -44.337  13.023  21.944  0.00  0.00     0.124 A 
ATOM      8  O   UNL d   1     -43.834  13.487  21.490  0.00  0.00    -0.301 OA
ATOM      9  C   UNL d   1     -44.109  12.273  22.166  0.00  0.00     0.123 A 
ATOM     10  C   UNL d   1     -43.101  13.199  21.258  0.00  0.00     0.149 A 
ATOM     11  C   UNL d   1     -42.878  12.439  21.486  0.00  0.00     0.149 A 
ATOM     12  O   UNL d   1     -43.381  11.976  21.940  0.00  0.00    -0.301 OA
ATOM     13  C   UNL d   1     -44.622  11.817  22.622  0.00  0.00     0.028 A 
ATOM     14  C   UNL d   1     -45.355  12.105  22.855  0.00  0.00     0.021 A 
ENDBRANCH   3   5
ENDBRANCH   1   2
BRANCH   1  15
ATOM     15  C   UNL d   1     -48.264  13.646  22.715  0.00  0.00     0.100 C 
BRANCH  15  16
ATOM     16  N   UNL d   1     -49.031  13.615  22.963  0.00  0.00    -0.197 N 
ATOM     17  S   UNL d   1     -49.828  13.519  23.219  0.00  0.00     0.274 S 
ATOM     18  C   UNL d   1     -50.152  14.291  23.357  0.00  0.00     0.109 A 
ATOM     19  O   UNL d   1     -50.646  13.687  23.492  0.00  0.00    -0.200 OA
ATOM     20  O   UNL d   1     -50.179  12.759  23.301  0.00  0.00    -0.200 OA
ATOM     21  C   UNL d   1     -49.555  14.857  23.186  0.00  0.00     0.069 A 
ATOM     22  C   UNL d   1     -50.908  14.546  23.613  0.00  0.00     0.013 A 
ATOM     23  C   UNL d   1     -49.710  15.679  23.271  0.00  0.00     0.005 A 
ATOM     24  C   UNL d   1     -48.865  14.443  22.944  0.00  0.00     0.275 A 
ATOM     25  C   UNL d   1     -50.466  15.922  23.527  0.00  0.00     0.000 A 
ATOM     26  C   UNL d   1     -51.063  15.356  23.698  0.00  0.00     0.001 A 
ATOM     27  O   UNL d   1     -48.220  14.648  22.742  0.00  0.00    -0.266 OA
ENDBRANCH  15  16
ENDBRANCH   1  15
TORSDOF 4
ENDMDL
MODEL 4
REMARK VINA RESULT:      -5.5      3.420      6.527
REMARK  4 active torsions:
REMARK  status: ('A' for Active; 'I' for Inactive)
REMARK    1  A    between atoms: C_6  and  N_2 
REMARK    2  A    between atoms: C_11  and  C_6 
REMARK    3  A    between atoms: C_10  and  C_11 
REMARK       I    between atoms: N_14  and  C_10 
REMARK    4  A    between atoms: C_16  and  N_14 
ROOT
ATOM      1  C   UNL d   1     -43.487  12.835  21.473  0.00  0.00     0.082 C 
ENDROOT
BRANCH   1   2
ATOM      2  C   UNL d   1     -42.841  13.156  21.315  0.00  0.00     0.281 C 
ATOM      3  N   UNL d   1     -42.433  13.839  21.520  0.00  0.00    -0.208 NA
ATOM      4  O   UNL d   1     -42.744  12.542  20.870  0.00  0.00    -0.265 OA
BRANCH   3   5
ATOM      5  C   UNL d   1     -41.684  13.980  21.189  0.00  0.00     0.087 A 
ATOM      6  C   UNL d   1     -41.626  14.415  20.495  0.00  0.00     0.046 A 
ATOM      7  C   UNL d   1     -40.877  14.556  20.166  0.00  0.00     0.124 A 
ATOM      8  O   UNL d   1     -40.819  14.990  19.472  0.00  0.00    -0.301 OA
ATOM      9  C   UNL d   1     -40.203  14.268  20.523  0.00  0.00     0.123 A 
ATOM     10  C   UNL d   1     -40.085  15.137  19.135  0.00  0.00     0.149 A 
ATOM     11  C   UNL d   1     -39.409  14.843  19.503  0.00  0.00     0.149 A 
ATOM     12  O   UNL d   1     -39.467  14.409  20.197  0.00  0.00    -0.301 OA
ATOM     13  C   UNL d   1     -40.274  13.833  21.220  0.00  0.00     0.028 A 
ATOM     14  C   UNL d   1     -41.008  13.686  21.557  0.00  0.00     0.021 A 
ENDBRANCH   3   5
ENDBRANCH   1   2
BRANCH   1  15
ATOM     15  C   UNL d   1     -44.196  12.954  21.867  0.00  0.00     0.100 C 
BRANCH  15  16
ATOM     16  N   UNL d   1     -44.659  12.533  22.375  0.00  0.00    -0.197 N 
ATOM     17  S   UNL d   1     -45.094  12.052  22.913  0.00  0.00     0.274 S 
ATOM     18  C   UNL d   1     -45.855  12.409  23.024  0.00  0.00     0.109 A 
ATOM     19  O   UNL d   1     -45.733  11.740  23.429  0.00  0.00    -0.200 OA
ATOM     20  O   UNL d   1     -44.769  11.351  23.244  0.00  0.00    -0.200 OA
ATOM     21  C   UNL d   1     -45.885  13.106  22.556  0.00  0.00     0.069 A 
ATOM     22  C   UNL d   1     -46.517  12.189  23.488  0.00  0.00     0.013 A 
ATOM     23  C   UNL d   1     -46.577  13.586  22.549  0.00  0.00     0.005 A 
ATOM     24  C   UNL d   1     -45.150  13.184  22.157  0.00  0.00     0.275 A 
ATOM     25  C   UNL d   1     -47.230  13.357  23.015  0.00  0.00     0.000 A 
ATOM     26  C   UNL d   1     -47.200  12.661  23.483  0.00  0.00     0.001 A 
ATOM     27  O   UNL d   1     -44.890  13.660  21.704  0.00  0.00    -0.266 OA
ENDBRANCH  15  16
ENDBRANCH   1  15
TORSDOF 4
ENDMDL
MODEL 5
REMARK VINA RESULT:      -5.0      1.887      2.495
REMARK  4 active torsions:
REMARK  status: ('A' for Active; 'I' for Inactive)
REMARK    1  A    between atoms: C_6  and  N_2 
REMARK    2  A    between atoms: C_11  and  C_6 
REMARK    3  A    between atoms: C_10  and  C_11 
REMARK       I    between atoms: N_14  and  C_10 
REMARK    4  A    between atoms: C_16  and  N_14 
ROOT
ATOM      1  C   UNL d   1     -46.278  12.894  22.914  0.00  0.00     0.082 C 
ENDROOT
BRANCH   1   2
ATOM      2  C   UNL d   1     -47.012  12.843  22.848  0.00  0.00     0.281 C 
ATOM      3  N   UNL d   1     -47.565  12.741  22.250  0.00  0.00    -0.208 NA
ATOM      4  O   UNL d   1     -46.999  12.932  23.607  0.00  0.00    -0.265 OA
BRANCH   3   5
ATOM      5  C   UNL d   1     -48.373  12.716  22.442  0.00  0.00     0.087 A 
ATOM      6  C   UNL d   1     -48.667  12.074  22.860  0.00  0.00     0.046 A 
ATOM      7  C   UNL d   1     -49.475  12.050  23.051  0.00  0.00     0.124 A 
ATOM      8  O   UNL d   1     -49.769  11.408  23.469  0.00  0.00    -0.301 OA
ATOM      9  C   UNL d   1     -49.975  12.654  22.829  0.00  0.00     0.123 A 
ATOM     10  C   UNL d   1     -50.565  11.370  23.666  0.00  0.00     0.149 A 
ATOM     11  C   UNL d   1     -51.064  11.985  23.437  0.00  0.00     0.149 A 
ATOM     12  O   UNL d   1     -50.769  12.627  23.019  0.00  0.00    -0.301 OA
ATOM     13  C   UNL d   1     -49.667  13.294  22.410  0.00  0.00     0.028 A 
ATOM     14  C   UNL d   1     -48.872  13.331  22.213  0.00  0.00     0.021 A 
ENDBRANCH   3   5
ENDBRANCH   1   2
BRANCH   1  15
ATOM     15  C   UNL d   1     -45.584  12.924  22.479  0.00  0.00     0.100 C 
BRANCH  15  16
ATOM     16  N   UNL d   1     -44.892  12.512  22.454  0.00  0.00    -0.197 N 
ATOM     17  S   UNL d   1     -44.196  12.037  22.466  0.00  0.00     0.274 S 
ATOM     18  C   UNL d   1     -43.610  12.423  21.990  0.00  0.00     0.109 A 
ATOM     19  O   UNL d   1     -43.382  11.740  22.320  0.00  0.00    -0.200 OA
ATOM     20  O   UNL d   1     -44.158  11.316  22.897  0.00  0.00    -0.200 OA
ATOM     21  C   UNL d   1     -43.947  13.131  21.688  0.00  0.00     0.069 A 
ATOM     22  C   UNL d   1     -42.820  12.220  21.796  0.00  0.00     0.013 A 
ATOM     23  C   UNL d   1     -43.496  13.639  21.190  0.00  0.00     0.005 A 
ATOM     24  C   UNL d   1     -44.735  13.187  21.972  0.00  0.00     0.275 A 
ATOM     25  C   UNL d   1     -42.711  13.427  21.004  0.00  0.00     0.000 A 
ATOM     26  C   UNL d   1     -42.374  12.720  21.306  0.00  0.00     0.001 A 
ATOM     27  O   UNL d   1     -45.251  13.662  21.886  0.00  0.00    -0.266 OA
ENDBRANCH  15  16
ENDBRANCH   1  15
TORSDOF 4
ENDMDL
