MODEL 1
REMARK VINA RESULT:      29.9      0.000      0.000
REMARK  3 active torsions:
REMARK  status: ('A' for Active; 'I' for Inactive)
REMARK    1  A    between atoms: C_9  and  C_3 
REMARK    2  A    between atoms: C_8  and  C_5 
REMARK    3  A    between atoms: O_19  and  C_9 
ROOT
ATOM      1  N   UNL d   1     -51.330  24.602  33.428  0.00  0.00    -0.278 N 
ATOM      2  C   UNL d   1     -52.141  24.750  33.448  0.00  0.00     0.178 A 
ATOM      3  C   UNL d   1     -51.074  26.010  33.398  0.00  0.00     0.075 A 
ATOM      4  N   UNL d   1     -52.435  25.533  33.443  0.00  0.00    -0.223 NA
ATOM      5  C   UNL d   1     -50.802  25.236  33.403  0.00  0.00     0.178 A 
ATOM      6  C   UNL d   1     -51.886  26.158  33.418  0.00  0.00     0.086 A 
ATOM      7  C   UNL d   1     -51.058  23.828  33.433  0.00  0.00     0.263 A 
ATOM      8  S   UNL d   1     -52.691  24.126  33.473  0.00  0.00    -0.050 SA
ATOM      9  C   UNL d   1     -51.586  23.191  33.458  0.00  0.00     0.068 A 
ATOM     10  O   UNL d   1     -50.248  23.680  33.413  0.00  0.00    -0.267 OA
ATOM     11  C   UNL d   1     -52.398  23.338  33.478  0.00  0.00     0.043 A 
ATOM     12  C   UNL d   1     -52.193  26.967  33.413  0.00  0.00     0.021 C 
ENDROOT
BRANCH   5  13
ATOM     13  C   UNL d   1     -49.992  25.088  33.384  0.00  0.00     0.024 A 
ATOM     14  S   UNL d   1     -49.332  25.581  33.425  0.00  0.00    -0.089 SA
ATOM     15  C   UNL d   1     -48.664  25.119  33.377  0.00  0.00     0.035 A 
ATOM     16  C   UNL d   1     -48.900  24.352  33.307  0.00  0.00     0.007 A 
ATOM     17  C   UNL d   1     -49.703  24.314  33.309  0.00  0.00     0.004 A 
ENDBRANCH   5  13
BRANCH   3  18
ATOM     18  C   UNL d   1     -50.542  26.666  33.373  0.00  0.00     0.295 C 
ATOM     19  O   UNL d   1     -49.732  26.521  33.417  0.00  0.00    -0.259 OA
BRANCH  18  20
ATOM     20  O   UNL d   1     -50.814  27.437  33.307  0.00  0.00    -0.296 OA
ATOM     21  C   UNL d   1     -50.292  28.071  33.346  0.00  0.00     0.185 C 
ENDBRANCH  18  20
ENDBRANCH   3  18
TORSDOF 3
ENDMDL
