MODEL 1
REMARK VINA RESULT:      29.9      0.000      0.000
REMARK  5 active torsions:
REMARK  status: ('A' for Active; 'I' for Inactive)
REMARK    1  A    between atoms: C_4  and  C_1 
REMARK    2  A    between atoms: N_8  and  C_4 
REMARK    3  A    between atoms: C_11  and  N_8 
REMARK    4  A    between atoms: O_17  and  C_12 
REMARK    5  A    between atoms: C_20  and  O_17 
ROOT
ATOM      1  C   UNL d   1      14.000  12.176  -3.080  0.00  0.00     0.105 C 
ENDROOT
BRANCH   1   2
ATOM      2  C   UNL d   1      14.152  12.104  -2.261  0.00  0.00     0.096 A 
ATOM      3  C   UNL d   1      13.545  11.909  -1.743  0.00  0.00     0.196 A 
ATOM      4  C   UNL d   1      13.706  11.840  -0.933  0.00  0.00     0.019 A 
ATOM      5  O   UNL d   1      12.769  11.779  -2.026  0.00  0.00    -0.287 OA
ATOM      6  C   UNL d   1      14.473  11.966  -0.647  0.00  0.00     0.043 A 
ATOM      7  C   UNL d   1      15.078  12.163  -1.177  0.00  0.00     0.019 A 
ATOM      8  C   UNL d   1      13.998  11.784  -0.015  0.00  0.00     0.009 C 
ATOM      9  C   UNL d   1      15.002  11.999  -0.015  0.00  0.00     0.009 C 
ATOM     10  C   UNL d   1      14.924  12.233  -1.981  0.00  0.00     0.196 A 
ATOM     11  O   UNL d   1      15.548  12.432  -2.498  0.00  0.00    -0.287 OA
ENDBRANCH   1   2
BRANCH   1  12
ATOM     12  N   UNL d   1      13.264  12.406  -3.356  0.00  0.00    -0.244 NA
BRANCH  12  13
ATOM     13  C   UNL d   1      13.203  13.047  -3.866  0.00  0.00     0.082 A 
ATOM     14  C   UNL d   1      13.263  12.919  -4.679  0.00  0.00     0.021 A 
ATOM     15  C   UNL d   1      13.201  13.568  -5.190  0.00  0.00     0.026 A 
ATOM     16  C   UNL d   1      13.082  14.331  -4.901  0.00  0.00     0.100 A 
ATOM     17  C   UNL d   1      13.025  14.445  -4.083  0.00  0.00     0.026 A 
ATOM     18  C   UNL d   1      13.085  13.805  -3.569  0.00  0.00     0.021 A 
BRANCH  16  19
ATOM     19  O   UNL d   1      13.020  14.991  -5.426  0.00  0.00    -0.305 OA
BRANCH  19  20
ATOM     20  C   UNL d   1      13.483  15.687  -5.307  0.00  0.00     0.123 C 
ATOM     21  C   UNL d   1      13.722  16.121  -5.966  0.00  0.00     0.029 C 
ENDBRANCH  19  20
ENDBRANCH  16  19
ENDBRANCH  12  13
ENDBRANCH   1  12
TORSDOF 5
ENDMDL
MODEL 2
REMARK VINA RESULT:      30.4      1.158      4.378
REMARK  5 active torsions:
REMARK  status: ('A' for Active; 'I' for Inactive)
REMARK    1  A    between atoms: C_4  and  C_1 
REMARK    2  A    between atoms: N_8  and  C_4 
REMARK    3  A    between atoms: C_11  and  N_8 
REMARK    4  A    between atoms: O_17  and  C_12 
REMARK    5  A    between atoms: C_20  and  O_17 
ROOT
ATOM      1  C   UNL d   1      12.894  12.300  -3.608  0.00  0.00     0.105 C 
ENDROOT
BRANCH   1   2
ATOM      2  C   UNL d   1      13.030  12.920  -4.154  0.00  0.00     0.096 A 
ATOM      3  C   UNL d   1      13.012  13.702  -3.905  0.00  0.00     0.196 A 
ATOM      4  C   UNL d   1      13.148  14.308  -4.454  0.00  0.00     0.019 A 
ATOM      5  O   UNL d   1      12.858  13.890  -3.105  0.00  0.00    -0.287 OA
ATOM      6  C   UNL d   1      13.302  14.127  -5.247  0.00  0.00     0.043 A 
ATOM      7  C   UNL d   1      13.318  13.335  -5.489  0.00  0.00     0.019 A 
ATOM      8  C   UNL d   1      13.319  14.934  -5.168  0.00  0.00     0.009 C 
ATOM      9  C   UNL d   1      13.468  14.375  -6.017  0.00  0.00     0.009 C 
ATOM     10  C   UNL d   1      13.184  12.730  -4.949  0.00  0.00     0.196 A 
ATOM     11  O   UNL d   1      13.205  11.938  -5.213  0.00  0.00    -0.287 OA
ENDBRANCH   1   2
BRANCH   1  12
ATOM     12  N   UNL d   1      13.498  11.796  -3.380  0.00  0.00    -0.244 NA
BRANCH  12  13
ATOM     13  C   UNL d   1      13.761  11.804  -2.602  0.00  0.00     0.082 A 
ATOM     14  C   UNL d   1      13.208  11.779  -1.992  0.00  0.00     0.021 A 
ATOM     15  C   UNL d   1      13.478  11.788  -1.208  0.00  0.00     0.026 A 
ATOM     16  C   UNL d   1      14.284  11.820  -1.034  0.00  0.00     0.100 A 
ATOM     17  C   UNL d   1      14.828  11.844  -1.656  0.00  0.00     0.026 A 
ATOM     18  C   UNL d   1      14.567  11.837  -2.437  0.00  0.00     0.021 A 
BRANCH  16  19
ATOM     19  O   UNL d   1      14.556  11.828  -0.233  0.00  0.00    -0.305 OA
BRANCH  19  20
ATOM     20  C   UNL d   1      15.252  12.253  -0.015  0.00  0.00     0.123 C 
ATOM     21  C   UNL d   1      15.234  13.078  -0.034  0.00  0.00     0.029 C 
ENDBRANCH  19  20
ENDBRANCH  16  19
ENDBRANCH  12  13
ENDBRANCH   1  12
TORSDOF 5
ENDMDL
MODEL 3
REMARK VINA RESULT:      31.8      2.574      3.768
REMARK  5 active torsions:
REMARK  status: ('A' for Active; 'I' for Inactive)
REMARK    1  A    between atoms: C_4  and  C_1 
REMARK    2  A    between atoms: N_8  and  C_4 
REMARK    3  A    between atoms: C_11  and  N_8 
REMARK    4  A    between atoms: O_17  and  C_12 
REMARK    5  A    between atoms: C_20  and  O_17 
ROOT
ATOM      1  C   UNL d   1      15.328  12.623  -0.815  0.00  0.00     0.105 C 
ENDROOT
BRANCH   1   2
ATOM      2  C   UNL d   1      14.754  12.434  -1.395  0.00  0.00     0.096 A 
ATOM      3  C   UNL d   1      14.006  12.182  -1.169  0.00  0.00     0.196 A 
ATOM      4  C   UNL d   1      13.446  11.997  -1.751  0.00  0.00     0.019 A 
ATOM      5  O   UNL d   1      13.808  12.109  -0.360  0.00  0.00    -0.287 OA
ATOM      6  C   UNL d   1      13.637  12.067  -2.554  0.00  0.00     0.043 A 
ATOM      7  C   UNL d   1      14.394  12.323  -2.771  0.00  0.00     0.019 A 
ATOM      8  C   UNL d   1      12.870  11.809  -2.502  0.00  0.00     0.009 C 
ATOM      9  C   UNL d   1      13.421  12.000  -3.347  0.00  0.00     0.009 C 
ATOM     10  C   UNL d   1      14.954  12.507  -2.199  0.00  0.00     0.196 A 
ATOM     11  O   UNL d   1      15.711  12.763  -2.439  0.00  0.00    -0.287 OA
ENDBRANCH   1   2
BRANCH   1  12
ATOM     12  N   UNL d   1      15.133  13.065  -0.154  0.00  0.00    -0.244 NA
BRANCH  12  13
ATOM     13  C   UNL d   1      15.267  13.875  -0.153  0.00  0.00     0.082 A 
ATOM     14  C   UNL d   1      16.031  14.154  -0.290  0.00  0.00     0.021 A 
ATOM     15  C   UNL d   1      16.162  14.973  -0.287  0.00  0.00     0.026 A 
ATOM     16  C   UNL d   1      15.547  15.504  -0.151  0.00  0.00     0.100 A 
ATOM     17  C   UNL d   1      14.785  15.210  -0.015  0.00  0.00     0.026 A 
ATOM     18  C   UNL d   1      14.647  14.399  -0.016  0.00  0.00     0.021 A 
BRANCH  16  19
ATOM     19  O   UNL d   1      15.685  16.339  -0.149  0.00  0.00    -0.305 OA
BRANCH  19  20
ATOM     20  C   UNL d   1      15.381  16.831  -0.765  0.00  0.00     0.123 C 
ATOM     21  C   UNL d   1      15.762  17.545  -0.924  0.00  0.00     0.029 C 
ENDBRANCH  19  20
ENDBRANCH  16  19
ENDBRANCH  12  13
ENDBRANCH   1  12
TORSDOF 5
ENDMDL
