MODEL 1
REMARK VINA RESULT:      49.0      0.000      0.000
REMARK  6 active torsions:
REMARK  status: ('A' for Active; 'I' for Inactive)
REMARK    1  A    between atoms: C_18  and  N_1 
REMARK    2  A    between atoms: S_7  and  C_2 
REMARK    3  A    between atoms: C_20  and  S_7 
REMARK    4  A    between atoms: C_10  and  C_20 
REMARK       I    between atoms: N_13  and  C_10 
REMARK    5  A    between atoms: C_16  and  N_13 
REMARK    6  A    between atoms: C_21  and  C_18 
ROOT
ATOM      1  N   UNL d   1      13.572  13.776  -3.692  0.00  0.00    -0.253 N 
ATOM      2  C   UNL d   1      13.290  13.031  -3.328  0.00  0.00     0.182 A 
ATOM      3  C   UNL d   1      13.706  13.805  -4.482  0.00  0.00     0.268 A 
ATOM      4  N   UNL d   1      13.175  12.402  -3.794  0.00  0.00    -0.222 NA
ATOM      5  C   UNL d   1      13.583  13.151  -4.944  0.00  0.00     0.074 A 
ATOM      6  C   UNL d   1      13.312  12.432  -4.599  0.00  0.00     0.088 A 
ATOM      7  O   UNL d   1      13.982  14.552  -4.806  0.00  0.00    -0.267 OA
ATOM      8  C   UNL d   1      13.723  13.188  -5.754  0.00  0.00     0.006 A 
ATOM      9  C   UNL d   1      13.192  11.779  -5.078  0.00  0.00     0.019 A 
ATOM     10  C   UNL d   1      13.601  12.537  -6.218  0.00  0.00     0.000 A 
ATOM     11  C   UNL d   1      13.333  11.821  -5.890  0.00  0.00     0.002 A 
ENDROOT
BRANCH   2  12
ATOM     12  S   UNL d   1      13.146  12.985  -2.505  0.00  0.00    -0.044 SA
BRANCH  12  13
ATOM     13  C   UNL d   1      13.749  12.697  -1.961  0.00  0.00     0.101 C 
BRANCH  13  14
ATOM     14  C   UNL d   1      13.515  12.282  -1.282  0.00  0.00     0.286 C 
ATOM     15  N   UNL d   1      13.918  12.361  -0.582  0.00  0.00    -0.207 NA
ATOM     16  O   UNL d   1      12.861  11.779  -1.322  0.00  0.00    -0.265 OA
BRANCH  15  17
ATOM     17  C   UNL d   1      14.584  12.870  -0.535  0.00  0.00     0.087 A 
ATOM     18  C   UNL d   1      14.454  13.652  -0.289  0.00  0.00     0.045 A 
ATOM     19  C   UNL d   1      15.100  14.168  -0.237  0.00  0.00     0.121 A 
ATOM     20  O   UNL d   1      15.149  14.962  -0.015  0.00  0.00    -0.299 OA
ATOM     21  C   UNL d   1      15.847  13.902  -0.425  0.00  0.00     0.119 A 
ATOM     22  C   UNL d   1      15.953  15.166  -0.076  0.00  0.00     0.304 A 
ATOM     23  O   UNL d   1      16.387  14.545  -0.320  0.00  0.00    -0.300 OA
ATOM     24  C   UNL d   1      15.970  13.114  -0.671  0.00  0.00     0.028 A 
ATOM     25  C   UNL d   1      15.327  12.605  -0.722  0.00  0.00     0.021 A 
ENDBRANCH  15  17
ENDBRANCH  13  14
ENDBRANCH  12  13
ENDBRANCH   2  12
BRANCH   1  26
ATOM     26  C   UNL d   1      13.711  14.479  -3.237  0.00  0.00     0.085 C 
BRANCH  26  27
ATOM     27  C   UNL d   1      13.573  15.227  -3.562  0.00  0.00     0.019 C 
ATOM     28  C   UNL d   1      13.990  15.869  -3.301  0.00  0.00     0.002 C 
ENDBRANCH  26  27
ENDBRANCH   1  26
TORSDOF 6
ENDMDL
