MODEL 1
REMARK VINA RESULT:      -4.8      0.000      0.000
REMARK  11 active torsions:
REMARK  status: ('A' for Active; 'I' for Inactive)
REMARK    1  A    between atoms: C_2  and  C_1 
REMARK       I    between atoms: N_5  and  C_1 
REMARK    2  A    between atoms: C_4  and  C_2 
REMARK    3  A    between atoms: C_3  and  C_4 
REMARK    4  A    between atoms: O_10  and  C_3 
REMARK    5  A    between atoms: N_9  and  C_4 
REMARK    6  A    between atoms: C_8  and  N_5 
REMARK    7  A    between atoms: C_17  and  N_9 
REMARK    8  A    between atoms: O_16  and  C_11 
REMARK    9  A    between atoms: C_19  and  C_17 
REMARK   10  A    between atoms: C_21  and  C_19 
REMARK   11  A    between atoms: C_20  and  C_21 
ROOT
ATOM      1  C   UNK d   1     -46.364  13.603  22.829  0.00  0.00     0.084 C 
ENDROOT
BRANCH   1   2
ATOM      2  C   UNK d   1     -47.150  13.822  22.669  0.00  0.00     0.259 C 
ATOM      3  N   UNK d   1     -47.530  14.368  23.152  0.00  0.00    -0.321 N 
ATOM      4  H   UNK d   1     -47.136  14.701  23.797  0.00  0.00     0.169 HD
ATOM      5  O   UNK d   1     -47.536  13.487  22.026  0.00  0.00    -0.267 OA
BRANCH   3   6
ATOM      6  C   UNK d   1     -48.320  14.583  22.984  0.00  0.00     0.059 A 
ATOM      7  C   UNK d   1     -48.938  14.209  23.377  0.00  0.00     0.019 A 
ATOM      8  C   UNK d   1     -49.714  14.424  23.208  0.00  0.00     0.026 A 
ATOM      9  C   UNK d   1     -49.875  15.009  22.649  0.00  0.00     0.094 A 
ATOM     10  C   UNK d   1     -49.250  15.381  22.258  0.00  0.00     0.026 A 
ATOM     11  C   UNK d   1     -48.471  15.162  22.431  0.00  0.00     0.019 A 
BRANCH   9  12
ATOM     12  O   UNK d   1     -50.652  15.224  22.481  0.00  0.00    -0.328 OA
ATOM     13  C   UNK d   1     -51.023  14.930  21.810  0.00  0.00     0.181 C 
ENDBRANCH   9  12
ENDBRANCH   3   6
ENDBRANCH   1   2
BRANCH   1  14
ATOM     14  C   UNK d   1     -46.069  12.889  22.559  0.00  0.00     0.124 C 
BRANCH  14  15
ATOM     15  C   UNK d   1     -46.273  12.188  22.940  0.00  0.00     0.194 C 
ATOM     16  O   UNK d   1     -46.772  11.637  22.566  0.00  0.00    -0.645 OA
BRANCH  15  17
ATOM     17  O   UNK d   1     -45.986  12.027  23.692  0.00  0.00    -0.772 OA
ATOM     18  H   UNK d   1     -46.328  11.429  24.144  0.00  0.00     0.167 HD
ENDBRANCH  15  17
ENDBRANCH  14  15
BRANCH  14  19
ATOM     19  N   UNK d   1     -45.563  12.874  21.900  0.00  0.00    -0.347 N 
ATOM     20  H   UNK d   1     -45.875  12.728  21.151  0.00  0.00     0.166 HD
BRANCH  19  21
ATOM     21  C   UNK d   0     -44.755  13.002  21.997  0.00  0.00     0.073 C 
BRANCH  21  22
ATOM     22  C   UNK d   0     -44.239  12.853  21.372  0.00  0.00     0.018 C 
BRANCH  22  23
ATOM     23  C   UNK d   0     -43.515  13.253  21.340  0.00  0.00     0.002 C 
BRANCH  23  24
ATOM     24  C   UNK d   0     -42.822  12.857  21.140  0.00  0.00     0.000 C 
ATOM     25  C   UNK d   0     -42.131  13.294  21.025  0.00  0.00     0.000 C 
ENDBRANCH  23  24
ENDBRANCH  22  23
ENDBRANCH  21  22
ENDBRANCH  19  21
ENDBRANCH  14  19
ENDBRANCH   1  14
TORSDOF 11
ENDMDL
MODEL 2
REMARK VINA RESULT:      -4.5      1.753      2.192
REMARK  11 active torsions:
REMARK  status: ('A' for Active; 'I' for Inactive)
REMARK    1  A    between atoms: C_2  and  C_1 
REMARK       I    between atoms: N_5  and  C_1 
REMARK    2  A    between atoms: C_4  and  C_2 
REMARK    3  A    between atoms: C_3  and  C_4 
REMARK    4  A    between atoms: O_10  and  C_3 
REMARK    5  A    between atoms: N_9  and  C_4 
REMARK    6  A    between atoms: C_8  and  N_5 
REMARK    7  A    between atoms: C_17  and  N_9 
REMARK    8  A    between atoms: O_16  and  C_11 
REMARK    9  A    between atoms: C_19  and  C_17 
REMARK   10  A    between atoms: C_21  and  C_19 
REMARK   11  A    between atoms: C_20  and  C_21 
ROOT
ATOM      1  C   UNK d   1     -47.160  12.872  22.351  0.00  0.00     0.084 C 
ENDROOT
BRANCH   1   2
ATOM      2  C   UNK d   1     -47.834  13.309  22.564  0.00  0.00     0.259 C 
ATOM      3  N   UNK d   1     -48.333  13.602  21.980  0.00  0.00    -0.321 N 
ATOM      4  H   UNK d   1     -48.170  13.465  21.182  0.00  0.00     0.169 HD
ATOM      5  O   UNK d   1     -47.990  13.441  23.359  0.00  0.00    -0.267 OA
BRANCH   3   6
ATOM      6  C   UNK d   1     -49.009  14.041  22.203  0.00  0.00     0.059 A 
ATOM      7  C   UNK d   1     -48.940  14.644  22.757  0.00  0.00     0.019 A 
ATOM      8  C   UNK d   1     -49.609  15.073  22.973  0.00  0.00     0.026 A 
ATOM      9  C   UNK d   1     -50.344  14.902  22.639  0.00  0.00     0.094 A 
ATOM     10  C   UNK d   1     -50.406  14.295  22.084  0.00  0.00     0.026 A 
ATOM     11  C   UNK d   1     -49.732  13.865  21.868  0.00  0.00     0.019 A 
BRANCH   9  12
ATOM     12  O   UNK d   1     -51.011  15.332  22.856  0.00  0.00    -0.328 OA
ATOM     13  C   UNK d   1     -51.011  15.767  23.552  0.00  0.00     0.181 C 
ENDBRANCH   9  12
ENDBRANCH   3   6
ENDBRANCH   1   2
BRANCH   1  14
ATOM     14  C   UNK d   1     -46.471  12.931  22.788  0.00  0.00     0.124 C 
BRANCH  14  15
ATOM     15  C   UNK d   1     -45.946  13.550  22.650  0.00  0.00     0.194 C 
ATOM     16  O   UNK d   1     -45.689  13.719  21.877  0.00  0.00    -0.645 OA
BRANCH  15  17
ATOM     17  O   UNK d   1     -45.673  14.008  23.275  0.00  0.00    -0.772 OA
ATOM     18  H   UNK d   1     -45.031  13.751  23.722  0.00  0.00     0.167 HD
ENDBRANCH  15  17
ENDBRANCH  14  15
BRANCH  14  19
ATOM     19  N   UNK d   1     -46.302  12.364  23.372  0.00  0.00    -0.347 N 
ATOM     20  H   UNK d   1     -46.249  12.597  24.162  0.00  0.00     0.166 HD
BRANCH  19  21
ATOM     21  C   UNK d   0     -46.189  11.576  23.162  0.00  0.00     0.073 C 
BRANCH  21  22
ATOM     22  C   UNK d   0     -45.795  11.067  23.678  0.00  0.00     0.018 C 
BRANCH  22  23
ATOM     23  C   UNK d   0     -45.388  10.415  23.371  0.00  0.00     0.002 C 
BRANCH  23  24
ATOM     24  C   UNK d   0     -44.669  10.176  23.694  0.00  0.00     0.000 C 
ATOM     25  C   UNK d   0     -44.149   9.735  23.228  0.00  0.00     0.000 C 
ENDBRANCH  23  24
ENDBRANCH  22  23
ENDBRANCH  21  22
ENDBRANCH  19  21
ENDBRANCH  14  19
ENDBRANCH   1  14
TORSDOF 11
ENDMDL
MODEL 3
REMARK VINA RESULT:      -4.5      6.858      8.876
REMARK  11 active torsions:
REMARK  status: ('A' for Active; 'I' for Inactive)
REMARK    1  A    between atoms: C_2  and  C_1 
REMARK       I    between atoms: N_5  and  C_1 
REMARK    2  A    between atoms: C_4  and  C_2 
REMARK    3  A    between atoms: C_3  and  C_4 
REMARK    4  A    between atoms: O_10  and  C_3 
REMARK    5  A    between atoms: N_9  and  C_4 
REMARK    6  A    between atoms: C_8  and  N_5 
REMARK    7  A    between atoms: C_17  and  N_9 
REMARK    8  A    between atoms: O_16  and  C_11 
REMARK    9  A    between atoms: C_19  and  C_17 
REMARK   10  A    between atoms: C_21  and  C_19 
REMARK   11  A    between atoms: C_20  and  C_21 
ROOT
ATOM      1  C   UNK d   1     -40.438  14.156  20.048  0.00  0.00     0.084 C 
ENDROOT
BRANCH   1   2
ATOM      2  C   UNK d   1     -40.035  14.351  19.348  0.00  0.00     0.259 C 
ATOM      3  N   UNK d   1     -40.324  14.092  18.623  0.00  0.00    -0.321 N 
ATOM      4  H   UNK d   1     -41.013  13.639  18.586  0.00  0.00     0.169 HD
ATOM      5  O   UNK d   1     -39.349  14.802  19.392  0.00  0.00    -0.267 OA
BRANCH   3   6
ATOM      6  C   UNK d   1     -39.912  14.292  17.924  0.00  0.00     0.059 A 
ATOM      7  C   UNK d   1     -39.301  13.811  17.657  0.00  0.00     0.019 A 
ATOM      8  C   UNK d   1     -38.899  14.012  16.968  0.00  0.00     0.026 A 
ATOM      9  C   UNK d   1     -39.104  14.691  16.545  0.00  0.00     0.094 A 
ATOM     10  C   UNK d   1     -39.718  15.170  16.818  0.00  0.00     0.026 A 
ATOM     11  C   UNK d   1     -40.121  14.964  17.512  0.00  0.00     0.019 A 
BRANCH   9  12
ATOM     12  O   UNK d   1     -38.701  14.891  15.856  0.00  0.00    -0.328 OA
ATOM     13  C   UNK d   1     -37.968  14.556  15.696  0.00  0.00     0.181 C 
ENDBRANCH   9  12
ENDBRANCH   3   6
ENDBRANCH   1   2
BRANCH   1  14
ATOM     14  C   UNK d   1     -40.343  14.610  20.722  0.00  0.00     0.124 C 
BRANCH  14  15
ATOM     15  C   UNK d   1     -40.939  15.128  20.957  0.00  0.00     0.194 C 
ATOM     16  O   UNK d   1     -41.715  14.852  21.071  0.00  0.00    -0.645 OA
BRANCH  15  17
ATOM     17  O   UNK d   1     -40.771  15.922  21.082  0.00  0.00    -0.772 OA
ATOM     18  H   UNK d   1     -41.376  16.444  21.284  0.00  0.00     0.167 HD
ENDBRANCH  15  17
ENDBRANCH  14  15
BRANCH  14  19
ATOM     19  N   UNK d   1     -39.645  14.548  21.168  0.00  0.00    -0.347 N 
ATOM     20  H   UNK d   1     -38.989  15.005  20.965  0.00  0.00     0.166 HD
BRANCH  19  21
ATOM     21  C   UNK d   0     -39.610  14.032  21.809  0.00  0.00     0.073 C 
BRANCH  21  22
ATOM     22  C   UNK d   0     -38.907  13.954  22.234  0.00  0.00     0.018 C 
BRANCH  22  23
ATOM     23  C   UNK d   0     -38.930  13.644  23.002  0.00  0.00     0.002 C 
BRANCH  23  24
ATOM     24  C   UNK d   0     -38.247  13.595  23.457  0.00  0.00     0.000 C 
ATOM     25  C   UNK d   0     -37.940  12.849  23.636  0.00  0.00     0.000 C 
ENDBRANCH  23  24
ENDBRANCH  22  23
ENDBRANCH  21  22
ENDBRANCH  19  21
ENDBRANCH  14  19
ENDBRANCH   1  14
TORSDOF 11
ENDMDL
MODEL 4
REMARK VINA RESULT:      -4.3      7.921      9.250
REMARK  11 active torsions:
REMARK  status: ('A' for Active; 'I' for Inactive)
REMARK    1  A    between atoms: C_2  and  C_1 
REMARK       I    between atoms: N_5  and  C_1 
REMARK    2  A    between atoms: C_4  and  C_2 
REMARK    3  A    between atoms: C_3  and  C_4 
REMARK    4  A    between atoms: O_10  and  C_3 
REMARK    5  A    between atoms: N_9  and  C_4 
REMARK    6  A    between atoms: C_8  and  N_5 
REMARK    7  A    between atoms: C_17  and  N_9 
REMARK    8  A    between atoms: O_16  and  C_11 
REMARK    9  A    between atoms: C_19  and  C_17 
REMARK   10  A    between atoms: C_21  and  C_19 
REMARK   11  A    between atoms: C_20  and  C_21 
ROOT
ATOM      1  C   UNK d   1     -39.413  14.807  18.842  0.00  0.00     0.084 C 
ENDROOT
BRANCH   1   2
ATOM      2  C   UNK d   1     -39.153  14.402  19.520  0.00  0.00     0.259 C 
ATOM      3  N   UNK d   1     -39.347  14.686  20.267  0.00  0.00    -0.321 N 
ATOM      4  H   UNK d   1     -39.799  15.373  20.349  0.00  0.00     0.169 HD
ATOM      5  O   UNK d   1     -38.704  13.720  19.432  0.00  0.00    -0.267 OA
BRANCH   3   6
ATOM      6  C   UNK d   1     -39.082  14.273  20.944  0.00  0.00     0.059 A 
ATOM      7  C   UNK d   1     -38.308  14.000  20.979  0.00  0.00     0.019 A 
ATOM      8  C   UNK d   1     -38.052  13.594  21.647  0.00  0.00     0.026 A 
ATOM      9  C   UNK d   1     -38.565  13.460  22.279  0.00  0.00     0.094 A 
ATOM     10  C   UNK d   1     -39.342  13.736  22.238  0.00  0.00     0.026 A 
ATOM     11  C   UNK d   1     -39.596  14.145  21.564  0.00  0.00     0.019 A 
BRANCH   9  12
ATOM     12  O   UNK d   1     -38.308  13.053  22.947  0.00  0.00    -0.328 OA
ATOM     13  C   UNK d   1     -38.666  13.188  23.673  0.00  0.00     0.181 C 
ENDBRANCH   9  12
ENDBRANCH   3   6
ENDBRANCH   1   2
BRANCH   1  14
ATOM     14  C   UNK d   1     -39.725  14.396  18.208  0.00  0.00     0.124 C 
BRANCH  14  15
ATOM     15  C   UNK d   1     -40.536  14.415  18.063  0.00  0.00     0.194 C 
ATOM     16  O   UNK d   1     -40.916  15.135  17.892  0.00  0.00    -0.645 OA
BRANCH  15  17
ATOM     17  O   UNK d   1     -40.976  13.722  18.087  0.00  0.00    -0.772 OA
ATOM     18  H   UNK d   1     -41.612  13.621  17.573  0.00  0.00     0.167 HD
ENDBRANCH  15  17
ENDBRANCH  14  15
BRANCH  14  19
ATOM     19  N   UNK d   1     -39.223  13.960  17.709  0.00  0.00    -0.347 N 
ATOM     20  H   UNK d   1     -38.930  13.232  17.962  0.00  0.00     0.166 HD
BRANCH  19  21
ATOM     21  C   UNK d   0     -39.021  14.255  16.967  0.00  0.00     0.073 C 
BRANCH  21  22
ATOM     22  C   UNK d   0     -38.483  13.845  16.496  0.00  0.00     0.018 C 
BRANCH  22  23
ATOM     23  C   UNK d   0     -38.270  14.155  15.759  0.00  0.00     0.002 C 
BRANCH  23  24
ATOM     24  C   UNK d   0     -37.940  13.675  15.178  0.00  0.00     0.000 C 
ATOM     25  C   UNK d   0     -38.221  13.734  14.404  0.00  0.00     0.000 C 
ENDBRANCH  23  24
ENDBRANCH  22  23
ENDBRANCH  21  22
ENDBRANCH  19  21
ENDBRANCH  14  19
ENDBRANCH   1  14
TORSDOF 11
ENDMDL
MODEL 5
REMARK VINA RESULT:      -4.1      5.400      8.665
REMARK  11 active torsions:
REMARK  status: ('A' for Active; 'I' for Inactive)
REMARK    1  A    between atoms: C_2  and  C_1 
REMARK       I    between atoms: N_5  and  C_1 
REMARK    2  A    between atoms: C_4  and  C_2 
REMARK    3  A    between atoms: C_3  and  C_4 
REMARK    4  A    between atoms: O_10  and  C_3 
REMARK    5  A    between atoms: N_9  and  C_4 
REMARK    6  A    between atoms: C_8  and  N_5 
REMARK    7  A    between atoms: C_17  and  N_9 
REMARK    8  A    between atoms: O_16  and  C_11 
REMARK    9  A    between atoms: C_19  and  C_17 
REMARK   10  A    between atoms: C_21  and  C_19 
REMARK   11  A    between atoms: C_20  and  C_21 
ROOT
ATOM      1  C   UNK d   1     -40.623  15.282  19.960  0.00  0.00     0.084 C 
ENDROOT
BRANCH   1   2
ATOM      2  C   UNK d   1     -40.195  15.087  19.275  0.00  0.00     0.259 C 
ATOM      3  N   UNK d   1     -40.287  15.535  18.592  0.00  0.00    -0.321 N 
ATOM      4  H   UNK d   1     -40.804  16.179  18.581  0.00  0.00     0.169 HD
ATOM      5  O   UNK d   1     -39.682  14.445  19.293  0.00  0.00    -0.267 OA
BRANCH   3   6
ATOM      6  C   UNK d   1     -39.852  15.331  17.908  0.00  0.00     0.059 A 
ATOM      7  C   UNK d   1     -40.160  14.786  17.375  0.00  0.00     0.019 A 
ATOM      8  C   UNK d   1     -39.728  14.589  16.703  0.00  0.00     0.026 A 
ATOM      9  C   UNK d   1     -38.992  14.933  16.561  0.00  0.00     0.094 A 
ATOM     10  C   UNK d   1     -38.688  15.480  17.100  0.00  0.00     0.026 A 
ATOM     11  C   UNK d   1     -39.125  15.676  17.775  0.00  0.00     0.019 A 
BRANCH   9  12
ATOM     12  O   UNK d   1     -38.560  14.735  15.888  0.00  0.00    -0.328 OA
ATOM     13  C   UNK d   1     -38.161  14.018  15.852  0.00  0.00     0.181 C 
ENDBRANCH   9  12
ENDBRANCH   3   6
ENDBRANCH   1   2
BRANCH   1  14
ATOM     14  C   UNK d   1     -40.520  14.856  20.650  0.00  0.00     0.124 C 
BRANCH  14  15
ATOM     15  C   UNK d   1     -40.028  15.147  21.244  0.00  0.00     0.194 C 
ATOM     16  O   UNK d   1     -39.447  14.659  21.585  0.00  0.00    -0.645 OA
BRANCH  15  17
ATOM     17  O   UNK d   1     -40.108  15.921  21.506  0.00  0.00    -0.772 OA
ATOM     18  H   UNK d   1     -39.495  16.279  21.924  0.00  0.00     0.167 HD
ENDBRANCH  15  17
ENDBRANCH  14  15
BRANCH  14  19
ATOM     19  N   UNK d   1     -40.911  14.130  20.752  0.00  0.00    -0.347 N 
ATOM     20  H   UNK d   1     -40.516  13.427  20.578  0.00  0.00     0.166 HD
BRANCH  19  21
ATOM     21  C   UNK d   0     -41.688  14.115  21.024  0.00  0.00     0.073 C 
BRANCH  21  22
ATOM     22  C   UNK d   0     -42.107  13.404  21.028  0.00  0.00     0.018 C 
BRANCH  22  23
ATOM     23  C   UNK d   0     -42.864  13.382  21.361  0.00  0.00     0.002 C 
BRANCH  23  24
ATOM     24  C   UNK d   0     -43.288  12.677  21.398  0.00  0.00     0.000 C 
ATOM     25  C   UNK d   0     -44.078  12.699  21.637  0.00  0.00     0.000 C 
ENDBRANCH  23  24
ENDBRANCH  22  23
ENDBRANCH  21  22
ENDBRANCH  19  21
ENDBRANCH  14  19
ENDBRANCH   1  14
TORSDOF 11
ENDMDL
MODEL 6
REMARK VINA RESULT:      -4.0      1.663      5.245
REMARK  11 active torsions:
REMARK  status: ('A' for Active; 'I' for Inactive)
REMARK    1  A    between atoms: C_2  and  C_1 
REMARK       I    between atoms: N_5  and  C_1 
REMARK    2  A    between atoms: C_4  and  C_2 
REMARK    3  A    between atoms: C_3  and  C_4 
REMARK    4  A    between atoms: O_10  and  C_3 
REMARK    5  A    between atoms: N_9  and  C_4 
REMARK    6  A    between atoms: C_8  and  N_5 
REMARK    7  A    between atoms: C_17  and  N_9 
REMARK    8  A    between atoms: O_16  and  C_11 
REMARK    9  A    between atoms: C_19  and  C_17 
REMARK   10  A    between atoms: C_21  and  C_19 
REMARK   11  A    between atoms: C_20  and  C_21 
ROOT
ATOM      1  C   UNK d   1     -47.826  14.028  22.182  0.00  0.00     0.084 C 
ENDROOT
BRANCH   1   2
ATOM      2  C   UNK d   1     -47.256  13.551  22.554  0.00  0.00     0.259 C 
ATOM      3  N   UNK d   1     -46.996  12.862  22.188  0.00  0.00    -0.321 N 
ATOM      4  H   UNK d   1     -47.299  12.640  21.453  0.00  0.00     0.169 HD
ATOM      5  O   UNK d   1     -46.958  13.778  23.285  0.00  0.00    -0.267 OA
BRANCH   3   6
ATOM      6  C   UNK d   1     -46.422  12.388  22.569  0.00  0.00     0.059 A 
ATOM      7  C   UNK d   1     -45.624  12.537  22.447  0.00  0.00     0.019 A 
ATOM      8  C   UNK d   1     -45.062  12.067  22.824  0.00  0.00     0.026 A 
ATOM      9  C   UNK d   1     -45.296  11.451  23.321  0.00  0.00     0.094 A 
ATOM     10  C   UNK d   1     -46.100  11.307  23.439  0.00  0.00     0.026 A 
ATOM     11  C   UNK d   1     -46.662  11.781  23.058  0.00  0.00     0.019 A 
BRANCH   9  12
ATOM     12  O   UNK d   1     -44.734  10.982  23.698  0.00  0.00    -0.328 OA
ATOM     13  C   UNK d   1     -44.512  10.263  23.369  0.00  0.00     0.181 C 
ENDBRANCH   9  12
ENDBRANCH   3   6
ENDBRANCH   1   2
BRANCH   1  14
ATOM     14  C   UNK d   1     -48.342  14.481  22.627  0.00  0.00     0.124 C 
BRANCH  14  15
ATOM     15  C   UNK d   1     -48.266  15.301  22.638  0.00  0.00     0.194 C 
ATOM     16  O   UNK d   1     -47.826  15.691  22.050  0.00  0.00    -0.645 OA
BRANCH  15  17
ATOM     17  O   UNK d   1     -48.624  15.741  23.231  0.00  0.00    -0.772 OA
ATOM     18  H   UNK d   1     -48.989  16.458  23.049  0.00  0.00     0.167 HD
ENDBRANCH  15  17
ENDBRANCH  14  15
BRANCH  14  19
ATOM     19  N   UNK d   1     -48.942  14.112  23.067  0.00  0.00    -0.347 N 
ATOM     20  H   UNK d   1     -48.846  14.007  23.879  0.00  0.00     0.166 HD
BRANCH  19  21
ATOM     21  C   UNK d   0     -49.629  13.854  22.692  0.00  0.00     0.073 C 
BRANCH  21  22
ATOM     22  C   UNK d   0     -50.276  13.613  23.143  0.00  0.00     0.018 C 
BRANCH  22  23
ATOM     23  C   UNK d   0     -50.575  12.847  23.047  0.00  0.00     0.002 C 
BRANCH  23  24
ATOM     24  C   UNK d   0     -50.805  12.399  23.698  0.00  0.00     0.000 C 
ATOM     25  C   UNK d   0     -50.806  11.576  23.635  0.00  0.00     0.000 C 
ENDBRANCH  23  24
ENDBRANCH  22  23
ENDBRANCH  21  22
ENDBRANCH  19  21
ENDBRANCH  14  19
ENDBRANCH   1  14
TORSDOF 11
ENDMDL
MODEL 7
REMARK VINA RESULT:      -3.4      1.628      5.140
REMARK  11 active torsions:
REMARK  status: ('A' for Active; 'I' for Inactive)
REMARK    1  A    between atoms: C_2  and  C_1 
REMARK       I    between atoms: N_5  and  C_1 
REMARK    2  A    between atoms: C_4  and  C_2 
REMARK    3  A    between atoms: C_3  and  C_4 
REMARK    4  A    between atoms: O_10  and  C_3 
REMARK    5  A    between atoms: N_9  and  C_4 
REMARK    6  A    between atoms: C_8  and  N_5 
REMARK    7  A    between atoms: C_17  and  N_9 
REMARK    8  A    between atoms: O_16  and  C_11 
REMARK    9  A    between atoms: C_19  and  C_17 
REMARK   10  A    between atoms: C_21  and  C_19 
REMARK   11  A    between atoms: C_20  and  C_21 
ROOT
ATOM      1  C   UNK d   1     -48.369  12.636  23.482  0.00  0.00     0.084 C 
ENDROOT
BRANCH   1   2
ATOM      2  C   UNK d   1     -47.668  12.654  23.037  0.00  0.00     0.259 C 
ATOM      3  N   UNK d   1     -46.943  12.734  23.417  0.00  0.00    -0.321 N 
ATOM      4  H   UNK d   1     -46.906  12.797  24.239  0.00  0.00     0.169 HD
ATOM      5  O   UNK d   1     -47.711  12.591  22.219  0.00  0.00    -0.267 OA
BRANCH   3   6
ATOM      6  C   UNK d   1     -46.242  12.751  22.961  0.00  0.00     0.059 A 
ATOM      7  C   UNK d   1     -46.068  13.411  22.503  0.00  0.00     0.019 A 
ATOM      8  C   UNK d   1     -45.377  13.423  22.056  0.00  0.00     0.026 A 
ATOM      9  C   UNK d   1     -44.860  12.779  22.065  0.00  0.00     0.094 A 
ATOM     10  C   UNK d   1     -45.041  12.119  22.528  0.00  0.00     0.026 A 
ATOM     11  C   UNK d   1     -45.737  12.111  22.976  0.00  0.00     0.019 A 
BRANCH   9  12
ATOM     12  O   UNK d   1     -44.169  12.792  21.618  0.00  0.00    -0.328 OA
ATOM     13  C   UNK d   1     -43.479  12.463  21.919  0.00  0.00     0.181 C 
ENDBRANCH   9  12
ENDBRANCH   3   6
ENDBRANCH   1   2
BRANCH   1  14
ATOM     14  C   UNK d   1     -49.080  12.440  23.129  0.00  0.00     0.124 C 
BRANCH  14  15
ATOM     15  C   UNK d   1     -49.306  11.651  23.067  0.00  0.00     0.194 C 
ATOM     16  O   UNK d   1     -49.913  11.427  22.543  0.00  0.00    -0.645 OA
BRANCH  15  17
ATOM     17  O   UNK d   1     -48.935  11.077  23.522  0.00  0.00    -0.772 OA
ATOM     18  H   UNK d   1     -48.163  10.848  23.346  0.00  0.00     0.167 HD
ENDBRANCH  15  17
ENDBRANCH  14  15
BRANCH  14  19
ATOM     19  N   UNK d   1     -49.574  13.039  22.833  0.00  0.00    -0.347 N 
ATOM     20  H   UNK d   1     -49.961  12.930  22.113  0.00  0.00     0.166 HD
BRANCH  19  21
ATOM     21  C   UNK d   0     -49.677  13.738  23.258  0.00  0.00     0.073 C 
BRANCH  21  22
ATOM     22  C   UNK d   0     -50.084  14.369  22.917  0.00  0.00     0.018 C 
BRANCH  22  23
ATOM     23  C   UNK d   0     -50.830  14.575  23.210  0.00  0.00     0.002 C 
BRANCH  23  24
ATOM     24  C   UNK d   0     -51.064  15.363  23.249  0.00  0.00     0.000 C 
ATOM     25  C   UNK d   0     -50.614  15.891  23.698  0.00  0.00     0.000 C 
ENDBRANCH  23  24
ENDBRANCH  22  23
ENDBRANCH  21  22
ENDBRANCH  19  21
ENDBRANCH  14  19
ENDBRANCH   1  14
TORSDOF 11
ENDMDL
MODEL 8
REMARK VINA RESULT:      -2.0      3.353      5.706
REMARK  11 active torsions:
REMARK  status: ('A' for Active; 'I' for Inactive)
REMARK    1  A    between atoms: C_2  and  C_1 
REMARK       I    between atoms: N_5  and  C_1 
REMARK    2  A    between atoms: C_4  and  C_2 
REMARK    3  A    between atoms: C_3  and  C_4 
REMARK    4  A    between atoms: O_10  and  C_3 
REMARK    5  A    between atoms: N_9  and  C_4 
REMARK    6  A    between atoms: C_8  and  N_5 
REMARK    7  A    between atoms: C_17  and  N_9 
REMARK    8  A    between atoms: O_16  and  C_11 
REMARK    9  A    between atoms: C_19  and  C_17 
REMARK   10  A    between atoms: C_21  and  C_19 
REMARK   11  A    between atoms: C_20  and  C_21 
ROOT
ATOM      1  C   UNK d   1     -41.403  13.749  20.696  0.00  0.00     0.084 C 
ENDROOT
BRANCH   1   2
ATOM      2  C   UNK d   1     -42.110  13.607  21.109  0.00  0.00     0.259 C 
ATOM      3  N   UNK d   1     -42.528  12.911  20.980  0.00  0.00    -0.321 N 
ATOM      4  H   UNK d   1     -42.249  12.349  20.442  0.00  0.00     0.169 HD
ATOM      5  O   UNK d   1     -42.383  14.170  21.642  0.00  0.00    -0.267 OA
BRANCH   3   6
ATOM      6  C   UNK d   1     -43.239  12.777  21.399  0.00  0.00     0.059 A 
ATOM      7  C   UNK d   1     -43.260  12.216  21.999  0.00  0.00     0.019 A 
ATOM      8  C   UNK d   1     -43.962  12.088  22.409  0.00  0.00     0.026 A 
ATOM      9  C   UNK d   1     -44.642  12.516  22.222  0.00  0.00     0.094 A 
ATOM     10  C   UNK d   1     -44.614  13.078  21.617  0.00  0.00     0.026 A 
ATOM     11  C   UNK d   1     -43.906  13.205  21.207  0.00  0.00     0.019 A 
BRANCH   9  12
ATOM     12  O   UNK d   1     -45.344  12.387  22.632  0.00  0.00    -0.328 OA
ATOM     13  C   UNK d   1     -45.849  13.015  22.790  0.00  0.00     0.181 C 
ENDBRANCH   9  12
ENDBRANCH   3   6
ENDBRANCH   1   2
BRANCH   1  14
ATOM     14  C   UNK d   1     -40.933  14.391  20.885  0.00  0.00     0.124 C 
BRANCH  14  15
ATOM     15  C   UNK d   1     -40.962  15.073  20.423  0.00  0.00     0.194 C 
ATOM     16  O   UNK d   1     -41.130  15.809  20.772  0.00  0.00    -0.645 OA
BRANCH  15  17
ATOM     17  O   UNK d   1     -40.824  15.031  19.615  0.00  0.00    -0.772 OA
ATOM     18  H   UNK d   1     -40.463  15.662  19.226  0.00  0.00     0.167 HD
ENDBRANCH  15  17
ENDBRANCH  14  15
BRANCH  14  19
ATOM     19  N   UNK d   1     -40.428  14.355  21.544  0.00  0.00    -0.347 N 
ATOM     20  H   UNK d   1     -40.679  14.662  22.267  0.00  0.00     0.166 HD
BRANCH  19  21
ATOM     21  C   UNK d   0     -39.682  14.014  21.473  0.00  0.00     0.073 C 
BRANCH  21  22
ATOM     22  C   UNK d   0     -39.191  13.960  22.134  0.00  0.00     0.018 C 
BRANCH  22  23
ATOM     23  C   UNK d   0     -38.557  13.428  22.125  0.00  0.00     0.002 C 
BRANCH  23  24
ATOM     24  C   UNK d   0     -37.942  13.497  22.668  0.00  0.00     0.000 C 
ATOM     25  C   UNK d   0     -38.008  13.112  23.396  0.00  0.00     0.000 C 
ENDBRANCH  23  24
ENDBRANCH  22  23
ENDBRANCH  21  22
ENDBRANCH  19  21
ENDBRANCH  14  19
ENDBRANCH   1  14
TORSDOF 11
ENDMDL
MODEL 9
REMARK VINA RESULT:      -2.0      1.697      5.413
REMARK  11 active torsions:
REMARK  status: ('A' for Active; 'I' for Inactive)
REMARK    1  A    between atoms: C_2  and  C_1 
REMARK       I    between atoms: N_5  and  C_1 
REMARK    2  A    between atoms: C_4  and  C_2 
REMARK    3  A    between atoms: C_3  and  C_4 
REMARK    4  A    between atoms: O_10  and  C_3 
REMARK    5  A    between atoms: N_9  and  C_4 
REMARK    6  A    between atoms: C_8  and  N_5 
REMARK    7  A    between atoms: C_17  and  N_9 
REMARK    8  A    between atoms: O_16  and  C_11 
REMARK    9  A    between atoms: C_19  and  C_17 
REMARK   10  A    between atoms: C_21  and  C_19 
REMARK   11  A    between atoms: C_20  and  C_21 
ROOT
ATOM      1  C   UNK d   1     -46.600  12.993  22.146  0.00  0.00     0.084 C 
ENDROOT
BRANCH   1   2
ATOM      2  C   UNK d   1     -45.771  12.960  22.194  0.00  0.00     0.259 C 
ATOM      3  N   UNK d   1     -45.321  12.916  21.507  0.00  0.00    -0.321 N 
ATOM      4  H   UNK d   1     -45.688  12.904  20.768  0.00  0.00     0.169 HD
ATOM      5  O   UNK d   1     -45.412  12.971  22.934  0.00  0.00    -0.267 OA
BRANCH   3   6
ATOM      6  C   UNK d   1     -44.488  12.882  21.565  0.00  0.00     0.059 A 
ATOM      7  C   UNK d   1     -44.124  12.197  21.835  0.00  0.00     0.019 A 
ATOM      8  C   UNK d   1     -43.303  12.169  21.891  0.00  0.00     0.026 A 
ATOM      9  C   UNK d   1     -42.846  12.822  21.678  0.00  0.00     0.094 A 
ATOM     10  C   UNK d   1     -43.217  13.508  21.408  0.00  0.00     0.026 A 
ATOM     11  C   UNK d   1     -44.043  13.532  21.353  0.00  0.00     0.019 A 
BRANCH   9  12
ATOM     12  O   UNK d   1     -42.025  12.793  21.734  0.00  0.00    -0.328 OA
ATOM     13  C   UNK d   1     -41.567  13.364  21.361  0.00  0.00     0.181 C 
ENDBRANCH   9  12
ENDBRANCH   3   6
ENDBRANCH   1   2
BRANCH   1  14
ATOM     14  C   UNK d   1     -47.040  13.305  22.760  0.00  0.00     0.124 C 
BRANCH  14  15
ATOM     15  C   UNK d   1     -47.140  14.121  22.824  0.00  0.00     0.194 C 
ATOM     16  O   UNK d   1     -47.613  14.530  22.275  0.00  0.00    -0.645 OA
BRANCH  15  17
ATOM     17  O   UNK d   1     -46.773  14.537  23.429  0.00  0.00    -0.772 OA
ATOM     18  H   UNK d   1     -47.199  15.094  23.862  0.00  0.00     0.167 HD
ENDBRANCH  15  17
ENDBRANCH  14  15
BRANCH  14  19
ATOM     19  N   UNK d   1     -47.385  12.799  23.321  0.00  0.00    -0.347 N 
ATOM     20  H   UNK d   1     -47.061  12.747  24.078  0.00  0.00     0.166 HD
BRANCH  19  21
ATOM     21  C   UNK d   0     -48.048  12.353  23.121  0.00  0.00     0.073 C 
BRANCH  21  22
ATOM     22  C   UNK d   0     -48.618  12.186  23.693  0.00  0.00     0.018 C 
BRANCH  22  23
ATOM     23  C   UNK d   0     -49.096  11.516  23.606  0.00  0.00     0.002 C 
BRANCH  23  24
ATOM     24  C   UNK d   0     -49.912  11.565  23.698  0.00  0.00     0.000 C 
ATOM     25  C   UNK d   0     -50.359  11.922  23.102  0.00  0.00     0.000 C 
ENDBRANCH  23  24
ENDBRANCH  22  23
ENDBRANCH  21  22
ENDBRANCH  19  21
ENDBRANCH  14  19
ENDBRANCH   1  14
TORSDOF 11
ENDMDL
