MODEL 1
REMARK VINA RESULT:      -8.3      0.000      0.000
REMARK  4 active torsions:
REMARK  status: ('A' for Active; 'I' for Inactive)
REMARK    1  A    between atoms: S_11  and  C_2 
REMARK    2  A    between atoms: C_7  and  C_3 
REMARK    3  A    between atoms: C_17  and  S_11 
REMARK    4  A    between atoms: C_13  and  C_17 
ROOT
ATOM      1  C   UNL d   1     -47.565  12.350  23.198  0.00  0.00     0.092 A 
ATOM      2  C   UNL d   1     -46.786  12.229  23.394  0.00  0.00     0.124 A 
ATOM      3  C   UNL d   1     -47.813  13.100  22.933  0.00  0.00     0.017 A 
ATOM      4  N   UNL d   1     -46.240  12.857  23.328  0.00  0.00    -0.201 NA
ATOM      5  C   UNL d   1     -46.491  13.598  23.065  0.00  0.00     0.280 A 
ATOM      6  C   UNL d   1     -48.109  11.727  23.263  0.00  0.00     0.103 C 
ATOM      7  N   UNL d   1     -48.648  11.098  23.330  0.00  0.00    -0.191 NA
ATOM      8  C   UNL d   1     -47.270  13.718  22.869  0.00  0.00     0.063 A 
ATOM      9  O   UNL d   1     -45.947  14.221  23.000  0.00  0.00    -0.265 OA
ENDROOT
BRANCH   2  10
ATOM     10  S   UNL d   1     -46.536  11.483  23.658  0.00  0.00    -0.067 SA
BRANCH  10  11
ATOM     11  C   UNL d   1     -45.748  11.238  23.541  0.00  0.00     0.037 C 
BRANCH  11  12
ATOM     12  C   UNL d   1     -45.445  10.381  23.686  0.00  0.00     0.007 C 
ATOM     13  C   UNL d   1     -44.484  10.076  23.692  0.00  0.00     0.001 C 
ENDBRANCH  11  12
ENDBRANCH  10  11
ENDBRANCH   2  10
BRANCH   3  14
ATOM     14  C   UNL d   1     -48.602  13.222  22.734  0.00  0.00     0.011 A 
ATOM     15  C   UNL d   1     -48.836  13.168  21.959  0.00  0.00     0.058 A 
ATOM     16 CL   UNL d   1     -48.304  12.965  21.136  0.00  0.00    -0.082 Cl
ATOM     17  C   UNL d   1     -49.643  13.295  21.773  0.00  0.00     0.011 A 
ATOM     18  C   UNL d   1     -50.186  13.471  22.368  0.00  0.00     0.001 A 
ATOM     19  C   UNL d   1     -49.935  13.521  23.136  0.00  0.00     0.000 A 
ATOM     20  C   UNL d   1     -49.133  13.396  23.326  0.00  0.00     0.001 A 
ENDBRANCH   3  14
TORSDOF 4
ENDMDL
MODEL 2
REMARK VINA RESULT:      -7.8      1.498      2.079
REMARK  4 active torsions:
REMARK  status: ('A' for Active; 'I' for Inactive)
REMARK    1  A    between atoms: S_11  and  C_2 
REMARK    2  A    between atoms: C_7  and  C_3 
REMARK    3  A    between atoms: C_17  and  S_11 
REMARK    4  A    between atoms: C_13  and  C_17 
ROOT
ATOM      1  C   UNL d   1     -48.202  12.973  23.133  0.00  0.00     0.092 A 
ATOM      2  C   UNL d   1     -47.887  12.251  23.327  0.00  0.00     0.124 A 
ATOM      3  C   UNL d   1     -49.029  13.075  23.122  0.00  0.00     0.017 A 
ATOM      4  N   UNL d   1     -48.393  11.615  23.514  0.00  0.00    -0.201 NA
ATOM      5  C   UNL d   1     -49.212  11.720  23.502  0.00  0.00     0.280 A 
ATOM      6  C   UNL d   1     -47.700  13.607  22.947  0.00  0.00     0.103 C 
ATOM      7  N   UNL d   1     -47.191  14.238  22.762  0.00  0.00    -0.191 NA
ATOM      8  C   UNL d   1     -49.527  12.443  23.308  0.00  0.00     0.063 A 
ATOM      9  O   UNL d   1     -49.714  11.086  23.688  0.00  0.00    -0.265 OA
ENDROOT
BRANCH   2  10
ATOM     10  S   UNL d   1     -47.064  12.147  23.338  0.00  0.00    -0.067 SA
BRANCH  10  11
ATOM     11  C   UNL d   1     -46.733  11.425  23.594  0.00  0.00     0.037 C 
BRANCH  11  12
ATOM     12  C   UNL d   1     -45.830  11.254  23.634  0.00  0.00     0.007 C 
ATOM     13  C   UNL d   1     -45.393  10.347  23.698  0.00  0.00     0.001 C 
ENDBRANCH  11  12
ENDBRANCH  10  11
ENDBRANCH   2  10
BRANCH   3  14
ATOM     14  C   UNL d   1     -49.348  13.807  22.926  0.00  0.00     0.011 A 
ATOM     15  C   UNL d   1     -49.728  13.905  22.215  0.00  0.00     0.058 A 
ATOM     16 CL   UNL d   1     -49.892  13.250  21.475  0.00  0.00    -0.082 Cl
ATOM     17  C   UNL d   1     -50.047  14.656  22.029  0.00  0.00     0.011 A 
ATOM     18  C   UNL d   1     -49.977  15.283  22.560  0.00  0.00     0.001 A 
ATOM     19  C   UNL d   1     -49.595  15.167  23.265  0.00  0.00     0.000 A 
ATOM     20  C   UNL d   1     -49.275  14.422  23.455  0.00  0.00     0.001 A 
ENDBRANCH   3  14
TORSDOF 4
ENDMDL
MODEL 3
REMARK VINA RESULT:      -7.8      1.698      2.204
REMARK  4 active torsions:
REMARK  status: ('A' for Active; 'I' for Inactive)
REMARK    1  A    between atoms: S_11  and  C_2 
REMARK    2  A    between atoms: C_7  and  C_3 
REMARK    3  A    between atoms: C_17  and  S_11 
REMARK    4  A    between atoms: C_13  and  C_17 
ROOT
ATOM      1  C   UNL d   1     -48.185  13.394  22.845  0.00  0.00     0.092 A 
ATOM      2  C   UNL d   1     -47.466  13.025  22.923  0.00  0.00     0.124 A 
ATOM      3  C   UNL d   1     -48.885  12.979  23.028  0.00  0.00     0.017 A 
ATOM      4  N   UNL d   1     -47.433  12.234  23.185  0.00  0.00    -0.201 NA
ATOM      5  C   UNL d   1     -48.128  11.827  23.365  0.00  0.00     0.280 A 
ATOM      6  C   UNL d   1     -48.220  14.181  22.584  0.00  0.00     0.103 C 
ATOM      7  N   UNL d   1     -48.248  14.969  22.323  0.00  0.00    -0.191 NA
ATOM      8  C   UNL d   1     -48.847  12.196  23.287  0.00  0.00     0.063 A 
ATOM      9  O   UNL d   1     -48.092  11.040  23.625  0.00  0.00    -0.265 OA
ENDROOT
BRANCH   2  10
ATOM     10  S   UNL d   1     -46.768  13.435  22.741  0.00  0.00    -0.067 SA
BRANCH  10  11
ATOM     11  C   UNL d   1     -46.069  13.018  22.561  0.00  0.00     0.037 C 
BRANCH  11  12
ATOM     12  C   UNL d   1     -45.312  13.403  22.207  0.00  0.00     0.007 C 
ATOM     13  C   UNL d   1     -44.513  12.919  21.828  0.00  0.00     0.001 C 
ENDBRANCH  11  12
ENDBRANCH  10  11
ENDBRANCH   2  10
BRANCH   3  14
ATOM     14  C   UNL d   1     -49.613  13.353  22.949  0.00  0.00     0.011 A 
ATOM     15  C   UNL d   1     -50.090  13.179  22.316  0.00  0.00     0.058 A 
ATOM     16 CL   UNL d   1     -49.946  12.546  21.553  0.00  0.00    -0.082 Cl
ATOM     17  C   UNL d   1     -50.828  13.568  22.249  0.00  0.00     0.011 A 
ATOM     18  C   UNL d   1     -51.064  14.116  22.818  0.00  0.00     0.001 A 
ATOM     19  C   UNL d   1     -50.576  14.277  23.444  0.00  0.00     0.000 A 
ATOM     20  C   UNL d   1     -49.840  13.893  23.514  0.00  0.00     0.001 A 
ENDBRANCH   3  14
TORSDOF 4
ENDMDL
MODEL 4
REMARK VINA RESULT:      -6.5      2.067      4.015
REMARK  4 active torsions:
REMARK  status: ('A' for Active; 'I' for Inactive)
REMARK    1  A    between atoms: S_11  and  C_2 
REMARK    2  A    between atoms: C_7  and  C_3 
REMARK    3  A    between atoms: C_17  and  S_11 
REMARK    4  A    between atoms: C_13  and  C_17 
ROOT
ATOM      1  C   UNL d   1     -48.360  13.704  22.912  0.00  0.00     0.092 A 
ATOM      2  C   UNL d   1     -49.148  13.665  23.107  0.00  0.00     0.124 A 
ATOM      3  C   UNL d   1     -47.915  13.002  22.844  0.00  0.00     0.017 A 
ATOM      4  N   UNL d   1     -49.505  12.923  23.237  0.00  0.00    -0.201 NA
ATOM      5  C   UNL d   1     -49.061  12.231  23.168  0.00  0.00     0.280 A 
ATOM      6  C   UNL d   1     -48.003  14.441  22.782  0.00  0.00     0.103 C 
ATOM      7  N   UNL d   1     -47.651  15.183  22.653  0.00  0.00    -0.191 NA
ATOM      8  C   UNL d   1     -48.273  12.270  22.974  0.00  0.00     0.063 A 
ATOM      9  O   UNL d   1     -49.419  11.493  23.298  0.00  0.00    -0.265 OA
ENDROOT
BRANCH   2  10
ATOM     10  S   UNL d   1     -49.593  14.362  23.175  0.00  0.00    -0.067 SA
BRANCH  10  11
ATOM     11  C   UNL d   1     -50.399  14.327  23.387  0.00  0.00     0.037 C 
BRANCH  11  12
ATOM     12  C   UNL d   1     -51.006  14.998  23.222  0.00  0.00     0.007 C 
ATOM     13  C   UNL d   1     -51.064  15.886  23.698  0.00  0.00     0.001 C 
ENDBRANCH  11  12
ENDBRANCH  10  11
ENDBRANCH   2  10
BRANCH   3  14
ATOM     14  C   UNL d   1     -47.118  13.042  22.647  0.00  0.00     0.011 A 
ATOM     15  C   UNL d   1     -46.879  12.863  21.892  0.00  0.00     0.058 A 
ATOM     16 CL   UNL d   1     -47.415  12.581  21.095  0.00  0.00    -0.082 Cl
ATOM     17  C   UNL d   1     -46.064  12.908  21.706  0.00  0.00     0.011 A 
ATOM     18  C   UNL d   1     -45.516  13.131  22.281  0.00  0.00     0.001 A 
ATOM     19  C   UNL d   1     -45.772  13.306  23.029  0.00  0.00     0.000 A 
ATOM     20  C   UNL d   1     -46.582  13.262  23.219  0.00  0.00     0.001 A 
ENDBRANCH   3  14
TORSDOF 4
ENDMDL
MODEL 5
REMARK VINA RESULT:      -6.3      1.598      2.074
REMARK  4 active torsions:
REMARK  status: ('A' for Active; 'I' for Inactive)
REMARK    1  A    between atoms: S_11  and  C_2 
REMARK    2  A    between atoms: C_7  and  C_3 
REMARK    3  A    between atoms: C_17  and  S_11 
REMARK    4  A    between atoms: C_13  and  C_17 
ROOT
ATOM      1  C   UNL d   1     -47.306  12.964  22.845  0.00  0.00     0.092 A 
ATOM      2  C   UNL d   1     -46.530  12.725  22.861  0.00  0.00     0.124 A 
ATOM      3  C   UNL d   1     -47.903  12.448  23.115  0.00  0.00     0.017 A 
ATOM      4  N   UNL d   1     -46.336  11.965  23.147  0.00  0.00    -0.201 NA
ATOM      5  C   UNL d   1     -46.931  11.459  23.413  0.00  0.00     0.280 A 
ATOM      6  C   UNL d   1     -47.501  13.718  22.561  0.00  0.00     0.103 C 
ATOM      7  N   UNL d   1     -47.689  14.476  22.275  0.00  0.00    -0.191 NA
ATOM      8  C   UNL d   1     -47.707  11.698  23.397  0.00  0.00     0.063 A 
ATOM      9  O   UNL d   1     -46.736  10.704  23.697  0.00  0.00    -0.265 OA
ENDROOT
BRANCH   2  10
ATOM     10  S   UNL d   1     -45.934  13.236  22.593  0.00  0.00    -0.067 SA
BRANCH  10  11
ATOM     11  C   UNL d   1     -45.176  12.939  22.411  0.00  0.00     0.037 C 
BRANCH  11  12
ATOM     12  C   UNL d   1     -44.654  13.243  21.718  0.00  0.00     0.007 C 
ATOM     13  C   UNL d   1     -43.692  12.999  21.538  0.00  0.00     0.001 C 
ENDBRANCH  11  12
ENDBRANCH  10  11
ENDBRANCH   2  10
BRANCH   3  14
ATOM     14  C   UNL d   1     -48.689  12.690  23.099  0.00  0.00     0.011 A 
ATOM     15  C   UNL d   1     -49.207  12.346  22.578  0.00  0.00     0.058 A 
ATOM     16 CL   UNL d   1     -49.057  11.627  21.898  0.00  0.00    -0.082 Cl
ATOM     17  C   UNL d   1     -50.004  12.603  22.573  0.00  0.00     0.011 A 
ATOM     18  C   UNL d   1     -50.255  13.195  23.090  0.00  0.00     0.001 A 
ATOM     19  C   UNL d   1     -49.724  13.527  23.604  0.00  0.00     0.000 A 
ATOM     20  C   UNL d   1     -48.931  13.275  23.612  0.00  0.00     0.001 A 
ENDBRANCH   3  14
TORSDOF 4
ENDMDL
MODEL 6
REMARK VINA RESULT:      -6.3      1.510      3.643
REMARK  4 active torsions:
REMARK  status: ('A' for Active; 'I' for Inactive)
REMARK    1  A    between atoms: S_11  and  C_2 
REMARK    2  A    between atoms: C_7  and  C_3 
REMARK    3  A    between atoms: C_17  and  S_11 
REMARK    4  A    between atoms: C_13  and  C_17 
ROOT
ATOM      1  C   UNL d   1     -47.852  13.123  22.628  0.00  0.00     0.092 A 
ATOM      2  C   UNL d   1     -48.350  13.746  22.476  0.00  0.00     0.124 A 
ATOM      3  C   UNL d   1     -47.060  13.269  22.844  0.00  0.00     0.017 A 
ATOM      4  N   UNL d   1     -48.066  14.527  22.538  0.00  0.00    -0.201 NA
ATOM      5  C   UNL d   1     -47.281  14.667  22.753  0.00  0.00     0.280 A 
ATOM      6  C   UNL d   1     -48.133  12.344  22.567  0.00  0.00     0.103 C 
ATOM      7  N   UNL d   1     -48.420  11.567  22.504  0.00  0.00    -0.191 NA
ATOM      8  C   UNL d   1     -46.783  14.044  22.905  0.00  0.00     0.063 A 
ATOM      9  O   UNL d   1     -47.001  15.446  22.814  0.00  0.00    -0.265 OA
ENDROOT
BRANCH   2  10
ATOM     10  S   UNL d   1     -49.138  13.603  22.260  0.00  0.00    -0.067 SA
BRANCH  10  11
ATOM     11  C   UNL d   1     -49.588  14.199  21.889  0.00  0.00     0.037 C 
BRANCH  11  12
ATOM     12  C   UNL d   1     -50.506  14.200  21.838  0.00  0.00     0.007 C 
ATOM     13  C   UNL d   1     -51.064  13.911  21.049  0.00  0.00     0.001 C 
ENDBRANCH  11  12
ENDBRANCH  10  11
ENDBRANCH   2  10
BRANCH   3  14
ATOM     14  C   UNL d   1     -46.556  12.638  22.998  0.00  0.00     0.011 A 
ATOM     15  C   UNL d   1     -45.842  12.589  22.615  0.00  0.00     0.058 A 
ATOM     16 CL   UNL d   1     -45.428  13.201  21.939  0.00  0.00    -0.082 Cl
ATOM     17  C   UNL d   1     -45.339  11.941  22.782  0.00  0.00     0.011 A 
ATOM     18  C   UNL d   1     -45.568  11.364  23.325  0.00  0.00     0.001 A 
ATOM     19  C   UNL d   1     -46.284  11.428  23.698  0.00  0.00     0.000 A 
ATOM     20  C   UNL d   1     -46.787  12.072  23.535  0.00  0.00     0.001 A 
ENDBRANCH   3  14
TORSDOF 4
ENDMDL
MODEL 7
REMARK VINA RESULT:      -5.9      8.833     10.228
REMARK  4 active torsions:
REMARK  status: ('A' for Active; 'I' for Inactive)
REMARK    1  A    between atoms: S_11  and  C_2 
REMARK    2  A    between atoms: C_7  and  C_3 
REMARK    3  A    between atoms: C_17  and  S_11 
REMARK    4  A    between atoms: C_13  and  C_17 
ROOT
ATOM      1  C   UNL d   1     -39.639  14.877  18.106  0.00  0.00     0.092 A 
ATOM      2  C   UNL d   1     -40.224  15.347  18.415  0.00  0.00     0.124 A 
ATOM      3  C   UNL d   1     -39.709  14.588  17.326  0.00  0.00     0.017 A 
ATOM      4  N   UNL d   1     -40.890  15.539  17.952  0.00  0.00    -0.201 NA
ATOM      5  C   UNL d   1     -40.955  15.251  17.181  0.00  0.00     0.280 A 
ATOM      6  C   UNL d   1     -38.975  14.685  18.565  0.00  0.00     0.103 C 
ATOM      7  N   UNL d   1     -38.313  14.497  19.031  0.00  0.00    -0.191 NA
ATOM      8  C   UNL d   1     -40.370  14.780  16.871  0.00  0.00     0.063 A 
ATOM      9  O   UNL d   1     -41.619  15.442  16.722  0.00  0.00    -0.265 OA
ENDROOT
BRANCH   2  10
ATOM     10  S   UNL d   1     -40.156  15.635  19.190  0.00  0.00    -0.067 SA
BRANCH  10  11
ATOM     11  C   UNL d   1     -40.830  15.915  19.596  0.00  0.00     0.037 C 
BRANCH  11  12
ATOM     12  C   UNL d   1     -40.917  15.922  20.511  0.00  0.00     0.007 C 
ATOM     13  C   UNL d   1     -41.637  15.465  21.050  0.00  0.00     0.001 C 
ENDBRANCH  11  12
ENDBRANCH  10  11
ENDBRANCH   2  10
BRANCH   3  14
ATOM     14  C   UNL d   1     -39.117  14.112  17.013  0.00  0.00     0.011 A 
ATOM     15  C   UNL d   1     -38.642  14.396  16.419  0.00  0.00     0.058 A 
ATOM     16 CL   UNL d   1     -38.642  15.287  15.962  0.00  0.00    -0.082 Cl
ATOM     17  C   UNL d   1     -38.043  13.899  16.110  0.00  0.00     0.011 A 
ATOM     18  C   UNL d   1     -37.940  13.136  16.405  0.00  0.00     0.001 A 
ATOM     19  C   UNL d   1     -38.423  12.869  16.997  0.00  0.00     0.000 A 
ATOM     20  C   UNL d   1     -39.020  13.360  17.308  0.00  0.00     0.001 A 
ENDBRANCH   3  14
TORSDOF 4
ENDMDL
MODEL 8
REMARK VINA RESULT:      -5.5      7.978      9.048
REMARK  4 active torsions:
REMARK  status: ('A' for Active; 'I' for Inactive)
REMARK    1  A    between atoms: S_11  and  C_2 
REMARK    2  A    between atoms: C_7  and  C_3 
REMARK    3  A    between atoms: C_17  and  S_11 
REMARK    4  A    between atoms: C_13  and  C_17 
ROOT
ATOM      1  C   UNL d   1     -39.486  14.903  20.034  0.00  0.00     0.092 A 
ATOM      2  C   UNL d   1     -39.602  14.859  20.837  0.00  0.00     0.124 A 
ATOM      3  C   UNL d   1     -40.061  15.266  19.552  0.00  0.00     0.017 A 
ATOM      4  N   UNL d   1     -40.295  15.178  21.172  0.00  0.00    -0.201 NA
ATOM      5  C   UNL d   1     -40.862  15.537  20.691  0.00  0.00     0.280 A 
ATOM      6  C   UNL d   1     -38.796  14.586  19.698  0.00  0.00     0.103 C 
ATOM      7  N   UNL d   1     -38.104  14.266  19.368  0.00  0.00    -0.191 NA
ATOM      8  C   UNL d   1     -40.745  15.580  19.888  0.00  0.00     0.063 A 
ATOM      9  O   UNL d   1     -41.551  15.854  21.027  0.00  0.00    -0.265 OA
ENDROOT
BRANCH   2  10
ATOM     10  S   UNL d   1     -39.031  14.498  21.319  0.00  0.00    -0.067 SA
BRANCH  10  11
ATOM     11  C   UNL d   1     -39.212  14.299  22.108  0.00  0.00     0.037 C 
BRANCH  11  12
ATOM     12  C   UNL d   1     -38.586  14.067  22.740  0.00  0.00     0.007 C 
ATOM     13  C   UNL d   1     -38.624  13.273  23.362  0.00  0.00     0.001 C 
ENDBRANCH  11  12
ENDBRANCH  10  11
ENDBRANCH   2  10
BRANCH   3  14
ATOM     14  C   UNL d   1     -39.943  15.310  18.739  0.00  0.00     0.011 A 
ATOM     15  C   UNL d   1     -40.337  14.799  18.246  0.00  0.00     0.058 A 
ATOM     16 CL   UNL d   1     -40.990  14.071  18.458  0.00  0.00    -0.082 Cl
ATOM     17  C   UNL d   1     -40.207  14.856  17.421  0.00  0.00     0.011 A 
ATOM     18  C   UNL d   1     -39.688  15.421  17.118  0.00  0.00     0.001 A 
ATOM     19  C   UNL d   1     -39.303  15.922  17.624  0.00  0.00     0.000 A 
ATOM     20  C   UNL d   1     -39.429  15.869  18.446  0.00  0.00     0.001 A 
ENDBRANCH   3  14
TORSDOF 4
ENDMDL
MODEL 9
REMARK VINA RESULT:      -5.5      7.940      9.206
REMARK  4 active torsions:
REMARK  status: ('A' for Active; 'I' for Inactive)
REMARK    1  A    between atoms: S_11  and  C_2 
REMARK    2  A    between atoms: C_7  and  C_3 
REMARK    3  A    between atoms: C_17  and  S_11 
REMARK    4  A    between atoms: C_13  and  C_17 
ROOT
ATOM      1  C   UNL d   1     -39.723  14.693  20.298  0.00  0.00     0.092 A 
ATOM      2  C   UNL d   1     -40.222  15.021  19.748  0.00  0.00     0.124 A 
ATOM      3  C   UNL d   1     -39.894  14.773  21.111  0.00  0.00     0.017 A 
ATOM      4  N   UNL d   1     -40.902  15.434  19.999  0.00  0.00    -0.201 NA
ATOM      5  C   UNL d   1     -41.067  15.510  20.804  0.00  0.00     0.280 A 
ATOM      6  C   UNL d   1     -39.047  14.282  20.051  0.00  0.00     0.103 C 
ATOM      7  N   UNL d   1     -38.371  13.871  19.796  0.00  0.00    -0.191 NA
ATOM      8  C   UNL d   1     -40.568  15.183  21.354  0.00  0.00     0.063 A 
ATOM      9  O   UNL d   1     -41.744  15.921  21.051  0.00  0.00    -0.265 OA
ENDROOT
BRANCH   2  10
ATOM     10  S   UNL d   1     -40.054  14.943  18.939  0.00  0.00    -0.067 SA
BRANCH  10  11
ATOM     11  C   UNL d   1     -40.515  15.347  18.373  0.00  0.00     0.037 C 
BRANCH  11  12
ATOM     12  C   UNL d   1     -40.493  15.174  17.469  0.00  0.00     0.007 C 
ATOM     13  C   UNL d   1     -40.841  15.772  16.735  0.00  0.00     0.001 C 
ENDBRANCH  11  12
ENDBRANCH  10  11
ENDBRANCH   2  10
BRANCH   3  14
ATOM     14  C   UNL d   1     -39.389  14.442  21.668  0.00  0.00     0.011 A 
ATOM     15  C   UNL d   1     -38.958  14.923  22.160  0.00  0.00     0.058 A 
ATOM     16 CL   UNL d   1     -38.924  15.922  22.218  0.00  0.00    -0.082 Cl
ATOM     17  C   UNL d   1     -38.448  14.571  22.722  0.00  0.00     0.011 A 
ATOM     18  C   UNL d   1     -38.386  13.750  22.775  0.00  0.00     0.001 A 
ATOM     19  C   UNL d   1     -38.824  13.285  22.277  0.00  0.00     0.000 A 
ATOM     20  C   UNL d   1     -39.333  13.631  21.715  0.00  0.00     0.001 A 
ENDBRANCH   3  14
TORSDOF 4
ENDMDL
