MODEL 1
REMARK VINA RESULT:      -4.0      0.000      0.000
REMARK  4 active torsions:
REMARK  status: ('A' for Active; 'I' for Inactive)
REMARK    1  A    between atoms: N_2  and  S_1 
REMARK    2  A    between atoms: C_3  and  S_1 
REMARK    3  A    between atoms: O_15  and  C_7 
REMARK    4  A    between atoms: C_18  and  O_15 
ROOT
ATOM      1  C   UNL d   1      57.708  -0.056  30.742  0.00  0.00     0.106 A 
ATOM      2  C   UNL d   1      58.132  -0.707  30.466  0.00  0.00     0.040 A 
ATOM      3  C   UNL d   1      58.531  -0.664  29.753  0.00  0.00     0.128 A 
ATOM      4  C   UNL d   1      58.510   0.031  29.309  0.00  0.00     0.163 A 
ATOM      5  C   UNL d   1      57.686   0.639  30.298  0.00  0.00     0.015 A 
ATOM      6  C   UNL d   1      58.086   0.682  29.584  0.00  0.00     0.032 A 
ATOM      7  F   UNL d   1      58.914   0.074  28.588  0.00  0.00    -0.202 F 
ENDROOT
BRANCH   1   8
ATOM      8  S   UNL d   1      57.304  -0.099  31.462  0.00  0.00     0.272 S 
ATOM      9  O   UNL d   1      57.943   0.263  31.842  0.00  0.00    -0.200 OA
ATOM     10  O   UNL d   1      56.666  -0.461  31.083  0.00  0.00    -0.200 OA
BRANCH   8  11
ATOM     11  N   UNL d   1      56.901  -0.142  32.182  0.00  0.00    -0.225 N 
ATOM     12  C   UNL d   1      56.366  -0.755  32.321  0.00  0.00     0.118 A 
ATOM     13  C   UNL d   1      55.963  -0.799  33.041  0.00  0.00     0.142 A 
ATOM     14  O   UNL d   1      56.094  -0.229  33.623  0.00  0.00    -0.300 OA
ATOM     15  C   UNL d   1      56.629   0.384  33.485  0.00  0.00     0.142 A 
ATOM     16  C   UNL d   1      57.032   0.427  32.765  0.00  0.00     0.118 A 
ENDBRANCH   8  11
ENDBRANCH   1   8
BRANCH   3  17
ATOM     17  O   UNL d   1      58.959  -1.324  29.478  0.00  0.00    -0.303 OA
BRANCH  17  18
ATOM     18  C   UNL d   1      58.577  -2.046  29.360  0.00  0.00     0.123 C 
ATOM     19  C   UNL d   1      59.016  -2.719  29.161  0.00  0.00     0.029 C 
ENDBRANCH  17  18
ENDBRANCH   3  17
TORSDOF 4
ENDMDL
MODEL 2
REMARK VINA RESULT:      -3.0      1.992      4.215
REMARK  4 active torsions:
REMARK  status: ('A' for Active; 'I' for Inactive)
REMARK    1  A    between atoms: N_2  and  S_1 
REMARK    2  A    between atoms: C_3  and  S_1 
REMARK    3  A    between atoms: O_15  and  C_7 
REMARK    4  A    between atoms: C_18  and  O_15 
ROOT
ATOM      1  C   UNL d   1      56.695  -0.393  32.190  0.00  0.00     0.106 A 
ATOM      2  C   UNL d   1      56.351   0.125  32.732  0.00  0.00     0.040 A 
ATOM      3  C   UNL d   1      55.762  -0.141  33.236  0.00  0.00     0.128 A 
ATOM      4  C   UNL d   1      55.513  -0.927  33.202  0.00  0.00     0.163 A 
ATOM      5  C   UNL d   1      56.446  -1.178  32.156  0.00  0.00     0.015 A 
ATOM      6  C   UNL d   1      55.858  -1.444  32.660  0.00  0.00     0.032 A 
ATOM      7  F   UNL d   1      54.919  -1.195  33.711  0.00  0.00    -0.202 F 
ENDROOT
BRANCH   1   8
ATOM      8  S   UNL d   1      57.289  -0.124  31.682  0.00  0.00     0.272 S 
ATOM      9  O   UNL d   1      57.135  -0.755  31.169  0.00  0.00    -0.200 OA
ATOM     10  O   UNL d   1      57.443   0.506  32.194  0.00  0.00    -0.200 OA
BRANCH   8  11
ATOM     11  N   UNL d   1      57.883   0.144  31.173  0.00  0.00    -0.225 N 
ATOM     12  C   UNL d   1      58.630   0.328  31.471  0.00  0.00     0.118 A 
ATOM     13  C   UNL d   1      59.224   0.596  30.963  0.00  0.00     0.142 A 
ATOM     14  O   UNL d   1      59.071   0.681  30.156  0.00  0.00    -0.300 OA
ATOM     15  C   UNL d   1      58.324   0.497  29.859  0.00  0.00     0.142 A 
ATOM     16  C   UNL d   1      57.730   0.229  30.367  0.00  0.00     0.118 A 
ENDBRANCH   8  11
ENDBRANCH   1   8
BRANCH   3  17
ATOM     17  O   UNL d   1      55.417   0.385  33.782  0.00  0.00    -0.303 OA
BRANCH  17  18
ATOM     18  C   UNL d   1      55.861   0.681  34.411  0.00  0.00     0.123 C 
ATOM     19  C   UNL d   1      55.545   0.682  35.177  0.00  0.00     0.029 C 
ENDBRANCH  17  18
ENDBRANCH   3  17
TORSDOF 4
ENDMDL
MODEL 3
REMARK VINA RESULT:      -3.0      1.766      2.639
REMARK  4 active torsions:
REMARK  status: ('A' for Active; 'I' for Inactive)
REMARK    1  A    between atoms: N_2  and  S_1 
REMARK    2  A    between atoms: C_3  and  S_1 
REMARK    3  A    between atoms: O_15  and  C_7 
REMARK    4  A    between atoms: C_18  and  O_15 
ROOT
ATOM      1  C   UNL d   1      56.363  -0.523  32.556  0.00  0.00     0.106 A 
ATOM      2  C   UNL d   1      56.850  -0.034  32.104  0.00  0.00     0.040 A 
ATOM      3  C   UNL d   1      57.228  -0.333  31.441  0.00  0.00     0.128 A 
ATOM      4  C   UNL d   1      57.123  -1.122  31.225  0.00  0.00     0.163 A 
ATOM      5  C   UNL d   1      56.257  -1.312  32.340  0.00  0.00     0.015 A 
ATOM      6  C   UNL d   1      56.635  -1.610  31.678  0.00  0.00     0.032 A 
ATOM      7  F   UNL d   1      57.504  -1.423  30.556  0.00  0.00    -0.202 F 
ENDROOT
BRANCH   1   8
ATOM      8  S   UNL d   1      55.982  -0.221  33.225  0.00  0.00     0.272 S 
ATOM      9  O   UNL d   1      55.416   0.138  32.740  0.00  0.00    -0.200 OA
ATOM     10  O   UNL d   1      56.546  -0.580  33.709  0.00  0.00    -0.200 OA
BRANCH   8  11
ATOM     11  N   UNL d   1      55.600   0.079  33.893  0.00  0.00    -0.225 N 
ATOM     12  C   UNL d   1      54.815   0.328  33.845  0.00  0.00     0.118 A 
ATOM     13  C   UNL d   1      54.433   0.629  34.513  0.00  0.00     0.142 A 
ATOM     14  O   UNL d   1      54.837   0.682  35.231  0.00  0.00    -0.300 OA
ATOM     15  C   UNL d   1      55.623   0.434  35.279  0.00  0.00     0.142 A 
ATOM     16  C   UNL d   1      56.004   0.133  34.611  0.00  0.00     0.118 A 
ENDBRANCH   8  11
ENDBRANCH   1   8
BRANCH   3  17
ATOM     17  O   UNL d   1      57.719   0.164  30.987  0.00  0.00    -0.303 OA
BRANCH  17  18
ATOM     18  C   UNL d   1      58.386   0.510  31.326  0.00  0.00     0.123 C 
ATOM     19  C   UNL d   1      59.049   0.680  30.859  0.00  0.00     0.029 C 
ENDBRANCH  17  18
ENDBRANCH   3  17
TORSDOF 4
ENDMDL
MODEL 4
REMARK VINA RESULT:      -2.5      1.691      3.841
REMARK  4 active torsions:
REMARK  status: ('A' for Active; 'I' for Inactive)
REMARK    1  A    between atoms: N_2  and  S_1 
REMARK    2  A    between atoms: C_3  and  S_1 
REMARK    3  A    between atoms: O_15  and  C_7 
REMARK    4  A    between atoms: C_18  and  O_15 
ROOT
ATOM      1  C   UNL d   1      57.717  -0.512  30.701  0.00  0.00     0.106 A 
ATOM      2  C   UNL d   1      57.432  -0.914  31.362  0.00  0.00     0.040 A 
ATOM      3  C   UNL d   1      56.976  -0.519  31.917  0.00  0.00     0.128 A 
ATOM      4  C   UNL d   1      56.801   0.280  31.814  0.00  0.00     0.163 A 
ATOM      5  C   UNL d   1      57.542   0.288  30.598  0.00  0.00     0.015 A 
ATOM      6  C   UNL d   1      57.086   0.682  31.153  0.00  0.00     0.032 A 
ATOM      7  F   UNL d   1      56.340   0.678  32.374  0.00  0.00    -0.202 F 
ENDROOT
BRANCH   1   8
ATOM      8  S   UNL d   1      58.177  -0.910  30.141  0.00  0.00     0.272 S 
ATOM      9  O   UNL d   1      57.636  -1.535  30.141  0.00  0.00    -0.200 OA
ATOM     10  O   UNL d   1      58.717  -0.285  30.141  0.00  0.00    -0.200 OA
BRANCH   8  11
ATOM     11  N   UNL d   1      58.637  -1.308  29.582  0.00  0.00    -0.225 N 
ATOM     12  C   UNL d   1      59.203  -0.897  29.143  0.00  0.00     0.118 A 
ATOM     13  C   UNL d   1      59.663  -1.295  28.584  0.00  0.00     0.142 A 
ATOM     14  O   UNL d   1      59.558  -2.104  28.462  0.00  0.00    -0.300 OA
ATOM     15  C   UNL d   1      58.992  -2.515  28.901  0.00  0.00     0.142 A 
ATOM     16  C   UNL d   1      58.532  -2.117  29.460  0.00  0.00     0.118 A 
ENDBRANCH   8  11
ENDBRANCH   1   8
BRANCH   3  17
ATOM     17  O   UNL d   1      56.690  -0.929  32.583  0.00  0.00    -0.303 OA
BRANCH  17  18
ATOM     18  C   UNL d   1      55.920  -1.224  32.590  0.00  0.00     0.123 C 
ATOM     19  C   UNL d   1      55.615  -1.570  33.278  0.00  0.00     0.029 C 
ENDBRANCH  17  18
ENDBRANCH   3  17
TORSDOF 4
ENDMDL
MODEL 5
REMARK VINA RESULT:      -1.5      9.237      9.647
REMARK  4 active torsions:
REMARK  status: ('A' for Active; 'I' for Inactive)
REMARK    1  A    between atoms: N_2  and  S_1 
REMARK    2  A    between atoms: C_3  and  S_1 
REMARK    3  A    between atoms: O_15  and  C_7 
REMARK    4  A    between atoms: C_18  and  O_15 
ROOT
ATOM      1  C   UNL d   1      59.345  -9.397  33.300  0.00  0.00     0.106 A 
ATOM      2  C   UNL d   1      59.858  -9.537  32.670  0.00  0.00     0.040 A 
ATOM      3  C   UNL d   1      59.558  -9.677  31.920  0.00  0.00     0.128 A 
ATOM      4  C   UNL d   1      58.743  -9.677  31.795  0.00  0.00     0.163 A 
ATOM      5  C   UNL d   1      58.529  -9.398  33.175  0.00  0.00     0.015 A 
ATOM      6  C   UNL d   1      58.230  -9.537  32.426  0.00  0.00     0.032 A 
ATOM      7  F   UNL d   1      58.440  -9.818  31.038  0.00  0.00    -0.202 F 
ENDROOT
BRANCH   1   8
ATOM      8  S   UNL d   1      59.647  -9.256  34.057  0.00  0.00     0.272 S 
ATOM      9  O   UNL d   1      60.291  -9.749  33.891  0.00  0.00    -0.200 OA
ATOM     10  O   UNL d   1      59.004  -8.765  34.223  0.00  0.00    -0.200 OA
BRANCH   8  11
ATOM     11  N   UNL d   1      59.949  -9.116  34.813  0.00  0.00    -0.225 N 
ATOM     12  C   UNL d   1      60.240  -8.369  35.010  0.00  0.00     0.118 A 
ATOM     13  C   UNL d   1      60.542  -8.228  35.766  0.00  0.00     0.142 A 
ATOM     14  O   UNL d   1      60.554  -8.834  36.326  0.00  0.00    -0.300 OA
ATOM     15  C   UNL d   1      60.264  -9.581  36.129  0.00  0.00     0.142 A 
ATOM     16  C   UNL d   1      59.962  -9.722  35.373  0.00  0.00     0.118 A 
ENDBRANCH   8  11
ENDBRANCH   1   8
BRANCH   3  17
ATOM     17  O   UNL d   1      60.079  -9.818  31.287  0.00  0.00    -0.303 OA
BRANCH  17  18
ATOM     18  C   UNL d   1      60.423  -9.186  30.883  0.00  0.00     0.123 C 
ATOM     19  C   UNL d   1      61.007  -9.326  30.313  0.00  0.00     0.029 C 
ENDBRANCH  17  18
ENDBRANCH   3  17
TORSDOF 4
ENDMDL
