MODEL 1
REMARK VINA RESULT:      -5.1      0.000      0.000
REMARK  3 active torsions:
REMARK  status: ('A' for Active; 'I' for Inactive)
REMARK    1  A    between atoms: C_10  and  C_1 
REMARK    2  A    between atoms: C_8  and  N_5 
REMARK    3  A    between atoms: N_9  and  C_10 
ROOT
ATOM      1  C   UNL d   1     -41.241-121.616 -52.395  0.00  0.00     0.084 C 
ENDROOT
BRANCH   1   2
ATOM      2  N   UNL d   1     -41.441-121.976 -51.679  0.00  0.00    -0.300 N 
ATOM      3  C   UNL d   1     -41.132-122.714 -51.489  0.00  0.00     0.100 A 
ATOM      4  C   UNL d   1     -41.332-123.077 -50.770  0.00  0.00     0.101 A 
ATOM      5  N   UNL d   1     -41.842-122.695 -50.247  0.00  0.00    -0.286 N 
ATOM      6  C   UNL d   1     -42.159-121.945 -50.435  0.00  0.00     0.101 A 
ATOM      7  C   UNL d   1     -41.952-121.585 -51.163  0.00  0.00     0.100 A 
BRANCH   5   8
ATOM      8  C   UNL d   1     -42.050-123.040 -49.531  0.00  0.00     0.148 A 
ATOM      9  N   UNL d   1     -42.820-123.365 -49.452  0.00  0.00    -0.227 NA
ATOM     10  C   UNL d   1     -43.040-123.717 -48.727  0.00  0.00     0.101 A 
ATOM     11  C   UNL d   1     -42.501-123.740 -48.104  0.00  0.00     0.021 A 
ATOM     12  C   UNL d   1     -41.742-123.416 -48.191  0.00  0.00     0.005 A 
ATOM     13  C   UNL d   1     -41.520-123.068 -48.902  0.00  0.00     0.037 A 
ENDBRANCH   5   8
ENDBRANCH   1   2
BRANCH   1  14
ATOM     14  C   UNL d   1     -41.462-121.964 -53.115  0.00  0.00     0.059 A 
ATOM     15  C   UNL d   1     -41.969-121.551 -53.640  0.00  0.00     0.214 A 
ATOM     16  C   UNL d   1     -42.177-121.912 -54.348  0.00  0.00     0.121 A 
ATOM     17  O   UNL d   1     -42.248-120.805 -53.447  0.00  0.00    -0.285 OA
ATOM     18  N   UNL d   1     -42.674-121.510 -54.867  0.00  0.00    -0.241 NA
ATOM     19  C   UNL d   1     -41.900-122.654 -54.541  0.00  0.00     0.032 A 
ATOM     20  C   UNL d   1     -42.901-121.858 -55.597  0.00  0.00     0.099 A 
ATOM     21  C   UNL d   1     -42.621-122.608 -55.791  0.00  0.00     0.021 A 
ATOM     22  C   UNL d   1     -42.118-123.010 -55.263  0.00  0.00     0.004 A 
ATOM     23  C   UNL d   1     -41.404-123.063 -54.033  0.00  0.00     0.059 A 
ATOM     24  C   UNL d   1     -41.180-122.707 -53.300  0.00  0.00     0.016 A 
ATOM     25 CL   UNL d   1     -41.123-123.816 -54.228  0.00  0.00    -0.082 Cl
ENDBRANCH   1  14
TORSDOF 3
ENDMDL
MODEL 2
REMARK VINA RESULT:      -4.0      1.653      5.107
REMARK  3 active torsions:
REMARK  status: ('A' for Active; 'I' for Inactive)
REMARK    1  A    between atoms: C_10  and  C_1 
REMARK    2  A    between atoms: C_8  and  N_5 
REMARK    3  A    between atoms: N_9  and  C_10 
ROOT
ATOM      1  C   UNL d   1     -41.184-122.858 -50.956  0.00  0.00     0.084 C 
ENDROOT
BRANCH   1   2
ATOM      2  N   UNL d   1     -41.336-122.744 -51.760  0.00  0.00    -0.300 N 
ATOM      3  C   UNL d   1     -41.456-123.393 -52.252  0.00  0.00     0.100 A 
ATOM      4  C   UNL d   1     -41.608-123.280 -53.060  0.00  0.00     0.101 A 
ATOM      5  N   UNL d   1     -41.639-122.517 -53.368  0.00  0.00    -0.286 N 
ATOM      6  C   UNL d   1     -41.517-121.854 -52.873  0.00  0.00     0.101 A 
ATOM      7  C   UNL d   1     -41.364-121.976 -52.058  0.00  0.00     0.100 A 
BRANCH   5   8
ATOM      8  C   UNL d   1     -41.788-122.387 -54.165  0.00  0.00     0.148 A 
ATOM      9  N   UNL d   1     -42.409-121.863 -54.376  0.00  0.00    -0.227 NA
ATOM     10  C   UNL d   1     -42.567-121.726 -55.185  0.00  0.00     0.101 A 
ATOM     11  C   UNL d   1     -42.114-122.104 -55.760  0.00  0.00     0.021 A 
ATOM     12  C   UNL d   1     -41.502-122.621 -55.543  0.00  0.00     0.005 A 
ATOM     13  C   UNL d   1     -41.341-122.760 -54.748  0.00  0.00     0.037 A 
ENDBRANCH   5   8
ENDBRANCH   1   2
BRANCH   1  14
ATOM     14  C   UNL d   1     -41.806-122.845 -50.407  0.00  0.00     0.059 A 
ATOM     15  C   UNL d   1     -41.769-123.331 -49.723  0.00  0.00     0.214 A 
ATOM     16  C   UNL d   1     -42.394-123.305 -49.191  0.00  0.00     0.121 A 
ATOM     17  O   UNL d   1     -41.122-123.817 -49.594  0.00  0.00    -0.285 OA
ATOM     18  N   UNL d   1     -42.362-123.778 -48.519  0.00  0.00    -0.241 NA
ATOM     19  C   UNL d   1     -43.038-122.820 -49.319  0.00  0.00     0.032 A 
ATOM     20  C   UNL d   1     -42.989-123.769 -47.960  0.00  0.00     0.099 A 
ATOM     21  C   UNL d   1     -43.639-123.280 -48.089  0.00  0.00     0.021 A 
ATOM     22  C   UNL d   1     -43.666-122.802 -48.771  0.00  0.00     0.004 A 
ATOM     23  C   UNL d   1     -43.079-122.344 -49.984  0.00  0.00     0.059 A 
ATOM     24  C   UNL d   1     -42.446-122.358 -50.543  0.00  0.00     0.016 A 
ATOM     25 CL   UNL d   1     -43.733-121.852 -50.114  0.00  0.00    -0.082 Cl
ENDBRANCH   1  14
TORSDOF 3
ENDMDL
