MODEL 1
REMARK VINA RESULT:      -4.1      0.000      0.000
REMARK  4 active torsions:
REMARK  status: ('A' for Active; 'I' for Inactive)
REMARK    1  A    between atoms: C_10  and  C_3 
REMARK       I    between atoms: N_11  and  C_10 
REMARK    2  A    between atoms: C_15  and  N_11 
REMARK    3  A    between atoms: C_17  and  C_15 
REMARK    4  A    between atoms: O_25  and  C_18 
ROOT
ATOM      1  C   UNL d   1      57.605   0.235  31.552  0.00  0.00     0.071 A 
ATOM      2  C   UNL d   1      58.091   0.464  32.207  0.00  0.00     0.142 A 
ATOM      3  C   UNL d   1      58.055   0.290  30.863  0.00  0.00     0.086 A 
ATOM      4  C   UNL d   1      56.828   0.011  31.678  0.00  0.00     0.198 A 
ATOM      5  O   UNL d   1      58.839   0.660  31.920  0.00  0.00    -0.304 OA
ATOM      6  C   UNL d   1      58.805   0.549  31.093  0.00  0.00     0.105 A 
ATOM      7  C   UNL d   1      57.777   0.458  32.957  0.00  0.00     0.218 A 
ATOM      8  C   UNL d   1      56.513   0.006  32.442  0.00  0.00     0.042 A 
ATOM      9  C   UNL d   1      56.999   0.235  33.097  0.00  0.00     0.044 A 
ATOM     10  O   UNL d   1      56.354  -0.213  31.039  0.00  0.00    -0.286 OA
ATOM     11  O   UNL d   1      58.251   0.682  33.597  0.00  0.00    -0.284 OA
ATOM     12  C   UNL d   1      59.438   0.681  30.578  0.00  0.00     0.027 C 
ATOM     13  C   UNL d   1      55.743  -0.217  32.563  0.00  0.00     0.003 A 
ATOM     14  C   UNL d   1      56.692   0.231  33.842  0.00  0.00     0.003 A 
ATOM     15  C   UNL d   1      55.416  -0.224  33.335  0.00  0.00     0.000 A 
ATOM     16  C   UNL d   1      55.902   0.006  33.990  0.00  0.00     0.000 A 
ENDROOT
BRANCH   3  17
ATOM     17  C   UNL d   1      57.820   0.123  30.083  0.00  0.00     0.281 C 
ATOM     18  N   UNL d   1      58.117  -0.537  29.707  0.00  0.00    -0.206 NA
ATOM     19  O   UNL d   1      57.296   0.627  29.713  0.00  0.00    -0.265 OA
BRANCH  18  20
ATOM     20  C   UNL d   1      58.630  -1.020  30.084  0.00  0.00     0.102 C 
BRANCH  20  21
ATOM     21  C   UNL d   1      58.939  -1.667  29.677  0.00  0.00     0.019 A 
ATOM     22  C   UNL d   1      58.467  -2.323  29.522  0.00  0.00     0.004 A 
ATOM     23  C   UNL d   1      58.756  -2.971  29.122  0.00  0.00     0.024 A 
ATOM     24  C   UNL d   1      59.523  -2.984  28.864  0.00  0.00     0.094 A 
ATOM     25  C   UNL d   1      60.013  -2.322  29.015  0.00  0.00     0.024 A 
ATOM     26  C   UNL d   1      59.706  -1.684  29.417  0.00  0.00     0.004 A 
BRANCH  24  27
ATOM     27  O   UNL d   1      59.794  -3.660  28.456  0.00  0.00    -0.328 OA
ATOM     28  C   UNL d   1      60.531  -3.942  28.610  0.00  0.00     0.181 C 
ENDBRANCH  24  27
ENDBRANCH  20  21
ENDBRANCH  18  20
ENDBRANCH   3  17
TORSDOF 4
ENDMDL
