MODEL 1
REMARK VINA RESULT:      30.4      0.000      0.000
REMARK  2 active torsions:
REMARK  status: ('A' for Active; 'I' for Inactive)
REMARK    1  A    between atoms: C_6  and  C_3 
REMARK    2  A    between atoms: C_9  and  C_6 
ROOT
ATOM      1  C   UNL d   1     -51.113  26.192  33.310  0.00  0.00     0.011 C 
ENDROOT
BRANCH   1   2
ATOM      2  C   UNL d   1     -50.722  26.537  33.965  0.00  0.00     0.092 A 
ATOM      3  C   UNL d   1     -49.988  26.847  34.000  0.00  0.00     0.288 A 
ATOM      4  N   UNL d   1     -49.852  27.112  34.742  0.00  0.00    -0.163 NA
ATOM      5  O   UNL d   1     -49.442  26.883  33.332  0.00  0.00    -0.265 OA
ATOM      6  C   UNL d   1     -50.555  26.946  35.173  0.00  0.00     0.313 A 
ATOM      7  S   UNL d   1     -51.064  26.592  34.661  0.00  0.00    -0.021 SA
ATOM      8  O   UNL d   1     -50.676  27.126  35.989  0.00  0.00    -0.258 OA
ENDBRANCH   1   2
BRANCH   1   9
ATOM      9  C   UNL d   1     -51.432  25.430  33.312  0.00  0.00     0.001 A 
ATOM     10  C   UNL d   1     -50.975  24.743  33.307  0.00  0.00     0.001 A 
ATOM     11  C   UNL d   1     -51.323  24.019  33.309  0.00  0.00     0.011 A 
ATOM     12  C   UNL d   1     -52.168  23.945  33.317  0.00  0.00     0.058 A 
ATOM     13  C   UNL d   1     -52.624  24.632  33.322  0.00  0.00     0.011 A 
ATOM     14 CL   UNL d   1     -52.543  23.209  33.320  0.00  0.00    -0.082 Cl
ATOM     15  C   UNL d   1     -52.255  25.387  33.320  0.00  0.00     0.001 A 
ENDBRANCH   1   9
TORSDOF 2
ENDMDL
MODEL 2
REMARK VINA RESULT:      32.0      2.515      3.312
REMARK  2 active torsions:
REMARK  status: ('A' for Active; 'I' for Inactive)
REMARK    1  A    between atoms: C_6  and  C_3 
REMARK    2  A    between atoms: C_9  and  C_6 
ROOT
ATOM      1  C   UNL d   1     -52.109  25.960  33.398  0.00  0.00     0.011 C 
ENDROOT
BRANCH   1   2
ATOM      2  C   UNL d   1     -52.299  25.145  33.401  0.00  0.00     0.092 A 
ATOM      3  C   UNL d   1     -51.806  24.518  33.362  0.00  0.00     0.288 A 
ATOM      4  N   UNL d   1     -52.238  23.846  33.383  0.00  0.00    -0.163 NA
ATOM      5  O   UNL d   1     -50.947  24.577  33.308  0.00  0.00    -0.265 OA
ATOM      6  C   UNL d   1     -53.040  24.094  33.437  0.00  0.00     0.313 A 
ATOM      7  S   UNL d   1     -53.035  24.898  33.446  0.00  0.00    -0.021 SA
ATOM      8  O   UNL d   1     -53.706  23.576  33.475  0.00  0.00    -0.258 OA
ENDBRANCH   1   2
BRANCH   1   9
ATOM      9  C   UNL d   1     -51.396  26.269  33.680  0.00  0.00     0.001 A 
ATOM     10  C   UNL d   1     -50.963  25.930  34.295  0.00  0.00     0.001 A 
ATOM     11  C   UNL d   1     -50.274  26.261  34.541  0.00  0.00     0.011 A 
ATOM     12  C   UNL d   1     -49.977  26.965  34.175  0.00  0.00     0.058 A 
ATOM     13  C   UNL d   1     -50.410  27.304  33.560  0.00  0.00     0.011 A 
ATOM     14 CL   UNL d   1     -49.270  27.319  34.416  0.00  0.00    -0.082 Cl
ATOM     15  C   UNL d   1     -51.131  26.954  33.306  0.00  0.00     0.001 A 
ENDBRANCH   1   9
TORSDOF 2
ENDMDL
