MODEL 1
REMARK VINA RESULT:      -2.1      0.000      0.000
REMARK  5 active torsions:
REMARK  status: ('A' for Active; 'I' for Inactive)
REMARK    1  A    between atoms: C_6  and  N_1 
REMARK    2  A    between atoms: C_8  and  C_4 
REMARK    3  A    between atoms: C_13  and  C_8 
REMARK    4  A    between atoms: O_20  and  C_11 
REMARK    5  A    between atoms: O_21  and  C_16 
ROOT
ATOM      1  N   UNL d   1      32.952  20.535 -21.984  0.00  0.00    -0.231 N 
ATOM      2  C   UNL d   1      33.120  19.849 -21.551  0.00  0.00     0.204 A 
ATOM      3  C   UNL d   1      32.951  20.335 -22.784  0.00  0.00     0.274 A 
ATOM      4  C   UNL d   1      33.118  19.525 -22.848  0.00  0.00     0.089 A 
ATOM      5  S   UNL d   1      33.220  19.233 -22.085  0.00  0.00    -0.043 SA
ATOM      6  N   UNL d   1      33.174  19.803 -20.727  0.00  0.00    -0.121 N 
ATOM      7  O   UNL d   1      32.808  20.853 -23.415  0.00  0.00    -0.266 OA
ENDROOT
BRANCH   4   8
ATOM      8  C   UNL d   1      33.170  19.100 -23.545  0.00  0.00     0.011 C 
BRANCH   8   9
ATOM      9  C   UNL d   1      32.804  18.365 -23.609  0.00  0.00     0.003 A 
ATOM     10  C   UNL d   1      32.057  18.297 -23.949  0.00  0.00     0.026 A 
ATOM     11  C   UNL d   1      31.693  17.566 -24.013  0.00  0.00     0.116 A 
ATOM     12  C   UNL d   1      32.076  16.882 -23.733  0.00  0.00     0.116 A 
ATOM     13  C   UNL d   1      32.828  16.954 -23.391  0.00  0.00     0.026 A 
ATOM     14  C   UNL d   1      33.192  17.685 -23.328  0.00  0.00     0.002 A 
BRANCH  11  15
ATOM     15  O   UNL d   1      30.944  17.506 -24.355  0.00  0.00    -0.326 OA
ATOM     16  C   UNL d   1      30.800  17.854 -25.097  0.00  0.00     0.181 C 
ENDBRANCH  11  15
BRANCH  12  17
ATOM     17  O   UNL d   1      31.719  16.149 -23.793  0.00  0.00    -0.326 OA
ATOM     18  C   UNL d   1      31.855  15.571 -23.219  0.00  0.00     0.181 C 
ENDBRANCH  12  17
ENDBRANCH   8   9
ENDBRANCH   4   8
BRANCH   1  19
ATOM     19  C   UNL d   1      32.810  21.287 -21.677  0.00  0.00     0.183 A 
ATOM     20  N   UNL d   1      33.020  22.001 -22.018  0.00  0.00    -0.220 NA
ATOM     21  C   UNL d   1      32.770  22.609 -21.523  0.00  0.00     0.108 A 
ATOM     22  C   UNL d   1      32.401  22.264 -20.867  0.00  0.00     0.059 A 
ATOM     23  S   UNL d   1      32.427  21.450 -20.965  0.00  0.00    -0.048 SA
ENDBRANCH   1  19
TORSDOF 5
ENDMDL
MODEL 2
REMARK VINA RESULT:      -1.3      2.403      4.501
REMARK  5 active torsions:
REMARK  status: ('A' for Active; 'I' for Inactive)
REMARK    1  A    between atoms: C_6  and  N_1 
REMARK    2  A    between atoms: C_8  and  C_4 
REMARK    3  A    between atoms: C_13  and  C_8 
REMARK    4  A    between atoms: O_20  and  C_11 
REMARK    5  A    between atoms: O_21  and  C_16 
ROOT
ATOM      1  N   UNL d   1      31.180  17.043 -24.224  0.00  0.00    -0.231 N 
ATOM      2  C   UNL d   1      31.603  16.630 -23.644  0.00  0.00     0.204 A 
ATOM      3  C   UNL d   1      31.635  17.690 -24.458  0.00  0.00     0.274 A 
ATOM      4  C   UNL d   1      32.342  17.679 -24.023  0.00  0.00     0.089 A 
ATOM      5  S   UNL d   1      32.314  17.024 -23.525  0.00  0.00    -0.043 SA
ATOM      6  N   UNL d   1      31.347  15.945 -23.260  0.00  0.00    -0.121 N 
ATOM      7  O   UNL d   1      31.424  18.254 -25.028  0.00  0.00    -0.266 OA
ENDROOT
BRANCH   4   8
ATOM      8  C   UNL d   1      32.950  18.222 -24.083  0.00  0.00     0.011 C 
BRANCH   8   9
ATOM      9  C   UNL d   1      33.023  18.824 -23.527  0.00  0.00     0.003 A 
ATOM     10  C   UNL d   1      33.096  19.610 -23.766  0.00  0.00     0.026 A 
ATOM     11  C   UNL d   1      33.168  20.209 -23.212  0.00  0.00     0.116 A 
ATOM     12  C   UNL d   1      33.169  20.030 -22.399  0.00  0.00     0.116 A 
ATOM     13  C   UNL d   1      33.095  19.239 -22.162  0.00  0.00     0.026 A 
ATOM     14  C   UNL d   1      33.023  18.640 -22.715  0.00  0.00     0.002 A 
BRANCH  11  15
ATOM     15  O   UNL d   1      33.241  20.993 -23.461  0.00  0.00    -0.326 OA
ATOM     16  C   UNL d   1      33.056  21.197 -24.245  0.00  0.00     0.181 C 
ENDBRANCH  11  15
BRANCH  12  17
ATOM     17  O   UNL d   1      33.241  20.623 -21.841  0.00  0.00    -0.326 OA
ATOM     18  C   UNL d   1      32.687  20.691 -21.232  0.00  0.00     0.181 C 
ENDBRANCH  12  17
ENDBRANCH   8   9
ENDBRANCH   4   8
BRANCH   1  19
ATOM     19  C   UNL d   1      30.435  16.849 -24.520  0.00  0.00     0.183 A 
ATOM     20  N   UNL d   1      29.790  17.348 -24.584  0.00  0.00    -0.220 NA
ATOM     21  C   UNL d   1      29.164  16.924 -24.909  0.00  0.00     0.108 A 
ATOM     22  C   UNL d   1      29.428  16.152 -25.048  0.00  0.00     0.059 A 
ATOM     23  S   UNL d   1      30.212  16.109 -24.808  0.00  0.00    -0.048 SA
ENDBRANCH   1  19
TORSDOF 5
ENDMDL
MODEL 3
REMARK VINA RESULT:      -0.5      1.981      4.631
REMARK  5 active torsions:
REMARK  status: ('A' for Active; 'I' for Inactive)
REMARK    1  A    between atoms: C_6  and  N_1 
REMARK    2  A    between atoms: C_8  and  C_4 
REMARK    3  A    between atoms: C_13  and  C_8 
REMARK    4  A    between atoms: O_20  and  C_11 
REMARK    5  A    between atoms: O_21  and  C_16 
ROOT
ATOM      1  N   UNL d   1      31.861  17.787 -23.761  0.00  0.00    -0.231 N 
ATOM      2  C   UNL d   1      31.485  18.506 -23.924  0.00  0.00     0.204 A 
ATOM      3  C   UNL d   1      32.550  17.952 -23.338  0.00  0.00     0.274 A 
ATOM      4  C   UNL d   1      32.601  18.774 -23.239  0.00  0.00     0.089 A 
ATOM      5  S   UNL d   1      31.942  19.108 -23.603  0.00  0.00    -0.043 SA
ATOM      6  N   UNL d   1      30.775  18.593 -24.339  0.00  0.00    -0.121 N 
ATOM      7  O   UNL d   1      33.097  17.394 -23.060  0.00  0.00    -0.266 OA
ENDROOT
BRANCH   4   8
ATOM      8  C   UNL d   1      33.200  19.174 -22.850  0.00  0.00     0.011 C 
BRANCH   8   9
ATOM      9  C   UNL d   1      33.043  19.890 -22.475  0.00  0.00     0.003 A 
ATOM     10  C   UNL d   1      33.177  20.605 -22.863  0.00  0.00     0.026 A 
ATOM     11  C   UNL d   1      33.021  21.317 -22.490  0.00  0.00     0.116 A 
ATOM     12  C   UNL d   1      32.723  21.326 -21.713  0.00  0.00     0.116 A 
ATOM     13  C   UNL d   1      32.589  20.605 -21.325  0.00  0.00     0.026 A 
ATOM     14  C   UNL d   1      32.745  19.893 -21.698  0.00  0.00     0.002 A 
BRANCH  11  15
ATOM     15  O   UNL d   1      33.159  22.028 -22.886  0.00  0.00    -0.326 OA
ATOM     16  C   UNL d   1      33.239  22.032 -23.713  0.00  0.00     0.181 C 
ENDBRANCH  11  15
BRANCH  12  17
ATOM     17  O   UNL d   1      32.565  22.033 -21.334  0.00  0.00    -0.326 OA
ATOM     18  C   UNL d   1      32.569  22.074 -20.509  0.00  0.00     0.181 C 
ENDBRANCH  12  17
ENDBRANCH   8   9
ENDBRANCH   4   8
BRANCH   1  19
ATOM     19  C   UNL d   1      31.601  17.035 -23.978  0.00  0.00     0.183 A 
ATOM     20  N   UNL d   1      31.866  16.591 -24.612  0.00  0.00    -0.220 NA
ATOM     21  C   UNL d   1      31.455  15.878 -24.620  0.00  0.00     0.108 A 
ATOM     22  C   UNL d   1      30.928  15.883 -23.981  0.00  0.00     0.059 A 
ATOM     23  S   UNL d   1      31.021  16.598 -23.588  0.00  0.00    -0.048 SA
ENDBRANCH   1  19
TORSDOF 5
ENDMDL
