MODEL 1
REMARK VINA RESULT:      -4.7      0.000      0.000
REMARK  5 active torsions:
REMARK  status: ('A' for Active; 'I' for Inactive)
REMARK    1  A    between atoms: N_9  and  C_2 
REMARK    2  A    between atoms: N_12  and  C_6 
REMARK    3  A    between atoms: C_13  and  N_11 
REMARK    4  A    between atoms: C_18  and  N_12 
REMARK    5  A    between atoms: O_28  and  C_23 
ROOT
ATOM      1  N   UNL d   1      59.295  -0.174  30.323  0.00  0.00    -0.041 NA
ATOM      2  C   UNL d   1      58.622  -0.554  30.230  0.00  0.00     0.738 A 
ATOM      3  C   UNL d   1      59.870  -0.270  29.807  0.00  0.00     0.187 A 
ATOM      4  N   UNL d   1      58.523  -1.034  29.617  0.00  0.00    -0.041 NA
ATOM      5  C   UNL d   1      59.775  -0.749  29.192  0.00  0.00     0.094 A 
ATOM      6  C   UNL d   1      59.097  -1.135  29.094  0.00  0.00     0.185 A 
ATOM      7  N   UNL d   1      61.133   0.018  29.378  0.00  0.00    -0.162 NA
ATOM      8  N   UNL d   1      60.548   0.117  29.905  0.00  0.00    -0.208 N 
ATOM      9  C   UNL d   1      61.034  -0.462  28.765  0.00  0.00     0.127 A 
ATOM     10  C   UNL d   1      60.646   0.594  30.515  0.00  0.00     0.123 C 
ENDROOT
BRANCH   2  11
ATOM     11  N   UNL d   1      58.010  -0.455  30.776  0.00  0.00    -0.134 N 
ATOM     12  C   UNL d   1      57.771   0.304  30.997  0.00  0.00     0.117 A 
ATOM     13  C   UNL d   1      57.157   0.395  31.544  0.00  0.00     0.100 A 
ATOM     14  N   UNL d   1      56.784  -0.269  31.869  0.00  0.00    -0.301 N 
ATOM     15  C   UNL d   1      57.024  -1.025  31.646  0.00  0.00     0.100 A 
ATOM     16  C   UNL d   1      57.636  -1.119  31.101  0.00  0.00     0.117 A 
BRANCH  14  17
ATOM     17  C   UNL d   1      56.170  -0.173  32.416  0.00  0.00     0.064 A 
ATOM     18  C   UNL d   1      55.824  -0.847  32.760  0.00  0.00     0.020 A 
ATOM     19  C   UNL d   1      55.210  -0.751  33.307  0.00  0.00     0.031 A 
ATOM     20  C   UNL d   1      54.945   0.017  33.507  0.00  0.00     0.140 A 
ATOM     21  C   UNL d   1      55.307   0.678  33.149  0.00  0.00     0.031 A 
ATOM     22  F   UNL d   1      54.333   0.114  34.053  0.00  0.00    -0.204 F 
ATOM     23  C   UNL d   1      55.916   0.579  32.606  0.00  0.00     0.020 A 
ENDBRANCH  14  17
ENDBRANCH   2  11
BRANCH   6  24
ATOM     24  N   UNL d   1      58.987  -1.635  28.459  0.00  0.00    -0.226 NA
BRANCH  24  25
ATOM     25  C   UNL d   1      58.993  -2.446  28.567  0.00  0.00     0.085 A 
ATOM     26  C   UNL d   1      59.703  -2.873  28.547  0.00  0.00     0.043 A 
ATOM     27  C   UNL d   1      59.710  -3.686  28.656  0.00  0.00     0.096 A 
ATOM     28  C   UNL d   1      58.996  -4.085  28.786  0.00  0.00     0.024 A 
ATOM     29  C   UNL d   1      58.293  -3.669  28.807  0.00  0.00     0.004 A 
ATOM     30  C   UNL d   1      58.290  -2.848  28.697  0.00  0.00     0.019 A 
BRANCH  27  31
ATOM     31  O   UNL d   1      60.416  -4.106  28.636  0.00  0.00    -0.328 OA
ATOM     32  C   UNL d   1      61.064  -4.155  29.143  0.00  0.00     0.181 C 
ENDBRANCH  27  31
ENDBRANCH  24  25
ENDBRANCH   6  24
TORSDOF 5
ENDMDL
