MODEL 1
REMARK VINA RESULT:     121.2      0.000      0.000
REMARK  3 active torsions:
REMARK  status: ('A' for Active; 'I' for Inactive)
REMARK    1  A    between atoms: N_9  and  C_3 
REMARK    2  A    between atoms: C_12  and  C_4 
REMARK    3  A    between atoms: C_17  and  N_10 
ROOT
ATOM      1  N   UNL d   1      59.405  48.983  50.941  0.00  0.00    -0.196 N 
ATOM      2  C   UNL d   1      58.945  49.199  50.297  0.00  0.00     0.167 A 
ATOM      3  C   UNL d   1      60.229  49.006  50.890  0.00  0.00     0.152 A 
ATOM      4  C   UNL d   1      58.154  49.121  50.510  0.00  0.00     0.057 A 
ATOM      5  N   UNL d   1      58.902  48.771  51.556  0.00  0.00    -0.161 NA
ATOM      6  N   UNL d   1      59.300  49.441  49.592  0.00  0.00    -0.227 NA
ATOM      7  C   UNL d   1      60.588  49.248  50.183  0.00  0.00     0.057 A 
ATOM      8  C   UNL d   1      58.128  48.859  51.281  0.00  0.00     0.124 A 
ATOM      9  C   UNL d   1      60.128  49.464  49.540  0.00  0.00     0.086 A 
ATOM     10  C   UNL d   1      60.497  49.707  48.831  0.00  0.00     0.021 C 
ENDROOT
BRANCH   3  11
ATOM     11  N   UNL d   1      60.690  48.790  51.535  0.00  0.00    -0.286 N 
ATOM     12  C   UNL d   1      60.882  47.993  51.662  0.00  0.00     0.101 A 
ATOM     13  C   UNL d   1      61.345  47.777  52.310  0.00  0.00     0.100 A 
ATOM     14  N   UNL d   1      61.618  48.356  52.833  0.00  0.00    -0.301 N 
ATOM     15  C   UNL d   1      61.429  49.147  52.708  0.00  0.00     0.100 A 
ATOM     16  C   UNL d   1      60.966  49.364  52.061  0.00  0.00     0.101 A 
BRANCH  14  17
ATOM     17  C   UNL d   1      62.086  48.137  53.487  0.00  0.00     0.064 A 
ATOM     18  C   UNL d   1      62.751  48.578  53.680  0.00  0.00     0.018 A 
ATOM     19  C   UNL d   1      63.102  48.229  54.352  0.00  0.00     0.002 A 
ATOM     20  C   UNL d   1      62.649  47.579  54.561  0.00  0.00     0.002 A 
ATOM     21  C   UNL d   1      62.023  47.516  54.034  0.00  0.00     0.018 A 
ENDBRANCH  14  17
ENDBRANCH   3  11
BRANCH   4  22
ATOM     22  C   UNL d   1      57.454  49.257  50.098  0.00  0.00     0.004 A 
ATOM     23  C   UNL d   1      57.413  49.091  49.284  0.00  0.00     0.000 A 
ATOM     24  C   UNL d   1      56.712  49.227  48.870  0.00  0.00     0.000 A 
ATOM     25  C   UNL d   1      56.050  49.527  49.262  0.00  0.00     0.000 A 
ATOM     26  C   UNL d   1      56.088  49.692  50.072  0.00  0.00     0.000 A 
ATOM     27  C   UNL d   1      56.789  49.556  50.485  0.00  0.00     0.000 A 
ENDBRANCH   4  22
TORSDOF 3
ENDMDL
MODEL 2
REMARK VINA RESULT:     121.3      2.316      3.189
REMARK  3 active torsions:
REMARK  status: ('A' for Active; 'I' for Inactive)
REMARK    1  A    between atoms: N_9  and  C_3 
REMARK    2  A    between atoms: C_12  and  C_4 
REMARK    3  A    between atoms: C_17  and  N_10 
ROOT
ATOM      1  N   UNL d   1      59.341  47.866  50.630  0.00  0.00    -0.196 N 
ATOM      2  C   UNL d   1      58.907  48.499  50.920  0.00  0.00     0.167 A 
ATOM      3  C   UNL d   1      60.159  47.837  50.736  0.00  0.00     0.152 A 
ATOM      4  C   UNL d   1      58.117  48.376  50.732  0.00  0.00     0.057 A 
ATOM      5  N   UNL d   1      58.821  47.348  50.260  0.00  0.00    -0.161 NA
ATOM      6  N   UNL d   1      59.285  49.113  51.323  0.00  0.00    -0.227 NA
ATOM      7  C   UNL d   1      60.540  48.454  51.140  0.00  0.00     0.057 A 
ATOM      8  C   UNL d   1      58.063  47.671  50.327  0.00  0.00     0.124 A 
ATOM      9  C   UNL d   1      60.107  49.086  51.431  0.00  0.00     0.086 A 
ATOM     10  C   UNL d   1      60.498  49.703  51.837  0.00  0.00     0.021 C 
ENDROOT
BRANCH   3  11
ATOM     11  N   UNL d   1      60.593  47.204  50.445  0.00  0.00    -0.286 N 
ATOM     12  C   UNL d   1      60.560  46.467  50.824  0.00  0.00     0.101 A 
ATOM     13  C   UNL d   1      60.996  45.831  50.532  0.00  0.00     0.100 A 
ATOM     14  N   UNL d   1      61.467  45.928  49.859  0.00  0.00    -0.301 N 
ATOM     15  C   UNL d   1      61.501  46.659  49.481  0.00  0.00     0.100 A 
ATOM     16  C   UNL d   1      61.065  47.296  49.774  0.00  0.00     0.101 A 
BRANCH  14  17
ATOM     17  C   UNL d   1      61.908  45.285  49.563  0.00  0.00     0.064 A 
ATOM     18  C   UNL d   1      61.566  44.770  49.023  0.00  0.00     0.018 A 
ATOM     19  C   UNL d   1      62.134  44.190  48.831  0.00  0.00     0.002 A 
ATOM     20  C   UNL d   1      62.815  44.356  49.255  0.00  0.00     0.002 A 
ATOM     21  C   UNL d   1      62.683  45.029  49.708  0.00  0.00     0.018 A 
ENDBRANCH  14  17
ENDBRANCH   3  11
BRANCH   4  22
ATOM     22  C   UNL d   1      57.437  48.819  50.879  0.00  0.00     0.004 A 
ATOM     23  C   UNL d   1      57.171  48.923  51.659  0.00  0.00     0.000 A 
ATOM     24  C   UNL d   1      56.491  49.366  51.807  0.00  0.00     0.000 A 
ATOM     25  C   UNL d   1      56.073  49.707  51.181  0.00  0.00     0.000 A 
ATOM     26  C   UNL d   1      56.336  49.604  50.404  0.00  0.00     0.000 A 
ATOM     27  C   UNL d   1      57.016  49.161  50.257  0.00  0.00     0.000 A 
ENDBRANCH   4  22
TORSDOF 3
ENDMDL
