MODEL 1
REMARK VINA RESULT:      -5.4      0.000      0.000
REMARK  2 active torsions:
REMARK  status: ('A' for Active; 'I' for Inactive)
REMARK    1  A    between atoms: C_6  and  C_1 
REMARK    2  A    between atoms: O_12  and  C_9 
ROOT
ATOM      1  C   UNL d   1      56.059  -0.418  32.793  0.00  0.00     0.128 A 
ATOM      2  C   UNL d   1      56.173  -1.192  32.531  0.00  0.00     0.306 A 
ATOM      3  O   UNL d   1      56.642  -1.336  31.889  0.00  0.00    -0.271 OA
ATOM      4  C   UNL d   1      56.417   0.191  32.406  0.00  0.00     0.013 A 
ATOM      5  C   UNL d   1      57.023  -0.709  31.474  0.00  0.00     0.125 A 
ATOM      6  C   UNL d   1      56.909   0.065  31.737  0.00  0.00     0.025 A 
ATOM      7  O   UNL d   1      55.816  -1.806  32.915  0.00  0.00    -0.259 OA
ATOM      8  C   UNL d   1      57.506  -0.845  30.816  0.00  0.00     0.117 A 
ATOM      9  C   UNL d   1      57.280   0.682  31.334  0.00  0.00     0.002 A 
ATOM     10  C   UNL d   1      57.765   0.552  30.674  0.00  0.00     0.002 A 
ATOM     11  C   UNL d   1      57.879  -0.222  30.412  0.00  0.00     0.026 A 
ENDROOT
BRANCH   1  12
ATOM     12  C   UNL d   1      55.586  -0.250  33.443  0.00  0.00     0.216 C 
ATOM     13  O   UNL d   1      54.763  -0.075  33.349  0.00  0.00    -0.644 OA
ATOM     14  O   UNL d   1      55.967  -0.266  34.145  0.00  0.00    -0.644 OA
ENDBRANCH   1  12
BRANCH   8  15
ATOM     15  O   UNL d   1      57.619  -1.610  30.557  0.00  0.00    -0.326 OA
ATOM     16  C   UNL d   1      58.143  -1.766  29.960  0.00  0.00     0.181 C 
ENDBRANCH   8  15
TORSDOF 2
ENDMDL
MODEL 2
REMARK VINA RESULT:      -5.3      0.941      3.034
REMARK  2 active torsions:
REMARK  status: ('A' for Active; 'I' for Inactive)
REMARK    1  A    between atoms: C_6  and  C_1 
REMARK    2  A    between atoms: O_12  and  C_9 
ROOT
ATOM      1  C   UNL d   1      57.637  -0.160  30.773  0.00  0.00     0.128 A 
ATOM      2  C   UNL d   1      57.451  -0.960  30.852  0.00  0.00     0.306 A 
ATOM      3  O   UNL d   1      56.964  -1.204  31.449  0.00  0.00    -0.271 OA
ATOM      4  C   UNL d   1      57.329   0.374  31.292  0.00  0.00     0.013 A 
ATOM      5  C   UNL d   1      56.634  -0.657  31.999  0.00  0.00     0.125 A 
ATOM      6  C   UNL d   1      56.820   0.143  31.919  0.00  0.00     0.025 A 
ATOM      7  O   UNL d   1      57.757  -1.499  30.335  0.00  0.00    -0.259 OA
ATOM      8  C   UNL d   1      56.134  -0.897  32.613  0.00  0.00     0.117 A 
ATOM      9  C   UNL d   1      56.500   0.682  32.456  0.00  0.00     0.002 A 
ATOM     10  C   UNL d   1      55.998   0.448  33.072  0.00  0.00     0.002 A 
ATOM     11  C   UNL d   1      55.813  -0.352  33.152  0.00  0.00     0.026 A 
ENDROOT
BRANCH   1  12
ATOM     12  C   UNL d   1      58.130   0.110  30.175  0.00  0.00     0.216 C 
ATOM     13  O   UNL d   1      58.966   0.174  30.295  0.00  0.00    -0.644 OA
ATOM     14  O   UNL d   1      57.756   0.298  29.495  0.00  0.00    -0.644 OA
ENDBRANCH   1  12
BRANCH   8  15
ATOM     15  O   UNL d   1      55.951  -1.688  32.691  0.00  0.00    -0.326 OA
ATOM     16  C   UNL d   1      55.506  -1.944  33.317  0.00  0.00     0.181 C 
ENDBRANCH   8  15
TORSDOF 2
ENDMDL
MODEL 3
REMARK VINA RESULT:      -4.4      1.332      3.374
REMARK  2 active torsions:
REMARK  status: ('A' for Active; 'I' for Inactive)
REMARK    1  A    between atoms: C_6  and  C_1 
REMARK    2  A    between atoms: O_12  and  C_9 
ROOT
ATOM      1  C   UNL d   1      57.647  -0.276  31.080  0.00  0.00     0.128 A 
ATOM      2  C   UNL d   1      58.013   0.277  31.570  0.00  0.00     0.306 A 
ATOM      3  O   UNL d   1      57.723   0.414  32.312  0.00  0.00    -0.271 OA
ATOM      4  C   UNL d   1      57.001  -0.678  31.345  0.00  0.00     0.013 A 
ATOM      5  C   UNL d   1      57.048   0.002  32.603  0.00  0.00     0.125 A 
ATOM      6  C   UNL d   1      56.682  -0.552  32.112  0.00  0.00     0.025 A 
ATOM      7  O   UNL d   1      58.661   0.682  31.309  0.00  0.00    -0.259 OA
ATOM      8  C   UNL d   1      56.743   0.134  33.360  0.00  0.00     0.117 A 
ATOM      9  C   UNL d   1      56.021  -0.958  32.393  0.00  0.00     0.002 A 
ATOM     10  C   UNL d   1      55.711  -0.829  33.151  0.00  0.00     0.002 A 
ATOM     11  C   UNL d   1      56.077  -0.276  33.641  0.00  0.00     0.026 A 
ENDROOT
BRANCH   1  12
ATOM     12  C   UNL d   1      57.924  -0.431  30.323  0.00  0.00     0.216 C 
ATOM     13  O   UNL d   1      57.834   0.136  29.701  0.00  0.00    -0.644 OA
ATOM     14  O   UNL d   1      58.275  -1.144  30.237  0.00  0.00    -0.644 OA
ENDBRANCH   1  12
BRANCH   8  15
ATOM     15  O   UNL d   1      57.106   0.682  33.845  0.00  0.00    -0.326 OA
ATOM     16  C   UNL d   1      56.963   0.679  34.642  0.00  0.00     0.181 C 
ENDBRANCH   8  15
TORSDOF 2
ENDMDL
MODEL 4
REMARK VINA RESULT:      -3.1      1.272      1.677
REMARK  2 active torsions:
REMARK  status: ('A' for Active; 'I' for Inactive)
REMARK    1  A    between atoms: C_6  and  C_1 
REMARK    2  A    between atoms: O_12  and  C_9 
ROOT
ATOM      1  C   UNL d   1      56.340  -0.078  32.770  0.00  0.00     0.128 A 
ATOM      2  C   UNL d   1      56.989   0.270  33.143  0.00  0.00     0.306 A 
ATOM      3  O   UNL d   1      57.668   0.407  32.728  0.00  0.00    -0.271 OA
ATOM      4  C   UNL d   1      56.389  -0.279  31.991  0.00  0.00     0.013 A 
ATOM      5  C   UNL d   1      57.733   0.202  31.913  0.00  0.00     0.125 A 
ATOM      6  C   UNL d   1      57.085  -0.145  31.539  0.00  0.00     0.025 A 
ATOM      7  O   UNL d   1      56.945   0.473  33.923  0.00  0.00    -0.259 OA
ATOM      8  C   UNL d   1      58.424   0.338  31.479  0.00  0.00     0.117 A 
ATOM      9  C   UNL d   1      57.145  -0.347  30.742  0.00  0.00     0.002 A 
ATOM     10  C   UNL d   1      57.834  -0.213  30.302  0.00  0.00     0.002 A 
ATOM     11  C   UNL d   1      58.482   0.134  30.675  0.00  0.00     0.026 A 
ENDROOT
BRANCH   1  12
ATOM     12  C   UNL d   1      55.641  -0.226  33.173  0.00  0.00     0.216 C 
ATOM     13  O   UNL d   1      55.123   0.406  33.394  0.00  0.00    -0.644 OA
ATOM     14  O   UNL d   1      55.503  -0.997  33.328  0.00  0.00    -0.644 OA
ENDBRANCH   1  12
BRANCH   8  15
ATOM     15  O   UNL d   1      59.066   0.682  31.848  0.00  0.00    -0.326 OA
ATOM     16  C   UNL d   1      59.791   0.682  31.489  0.00  0.00     0.181 C 
ENDBRANCH   8  15
TORSDOF 2
ENDMDL
MODEL 5
REMARK VINA RESULT:      -3.0      1.166      3.609
REMARK  2 active torsions:
REMARK  status: ('A' for Active; 'I' for Inactive)
REMARK    1  A    between atoms: C_6  and  C_1 
REMARK    2  A    between atoms: O_12  and  C_9 
ROOT
ATOM      1  C   UNL d   1      58.539  -1.157  29.434  0.00  0.00     0.128 A 
ATOM      2  C   UNL d   1      58.176  -1.789  29.821  0.00  0.00     0.306 A 
ATOM      3  O   UNL d   1      57.708  -1.654  30.465  0.00  0.00    -0.271 OA
ATOM      4  C   UNL d   1      58.423  -0.406  29.703  0.00  0.00     0.013 A 
ATOM      5  C   UNL d   1      57.577  -0.873  30.757  0.00  0.00     0.125 A 
ATOM      6  C   UNL d   1      57.940  -0.241  30.371  0.00  0.00     0.025 A 
ATOM      7  O   UNL d   1      58.289  -2.543  29.555  0.00  0.00    -0.259 OA
ATOM      8  C   UNL d   1      57.099  -0.724  31.416  0.00  0.00     0.117 A 
ATOM      9  C   UNL d   1      57.815   0.524  30.653  0.00  0.00     0.002 A 
ATOM     10  C   UNL d   1      57.338   0.680  31.312  0.00  0.00     0.002 A 
ATOM     11  C   UNL d   1      56.975   0.047  31.698  0.00  0.00     0.026 A 
ENDROOT
BRANCH   1  12
ATOM     12  C   UNL d   1      59.019  -1.272  28.779  0.00  0.00     0.216 C 
ATOM     13  O   UNL d   1      59.151  -2.047  28.465  0.00  0.00    -0.644 OA
ATOM     14  O   UNL d   1      59.336  -0.603  28.477  0.00  0.00    -0.644 OA
ENDBRANCH   1  12
BRANCH   8  15
ATOM     15  O   UNL d   1      56.741  -1.349  31.798  0.00  0.00    -0.326 OA
ATOM     16  C   UNL d   1      56.197  -1.213  32.381  0.00  0.00     0.181 C 
ENDBRANCH   8  15
TORSDOF 2
ENDMDL
MODEL 6
REMARK VINA RESULT:      -2.6      8.345      9.193
REMARK  2 active torsions:
REMARK  status: ('A' for Active; 'I' for Inactive)
REMARK    1  A    between atoms: C_6  and  C_1 
REMARK    2  A    between atoms: O_12  and  C_9 
ROOT
ATOM      1  C   UNL d   1      60.260  -6.635  35.865  0.00  0.00     0.128 A 
ATOM      2  C   UNL d   1      59.480  -6.849  35.700  0.00  0.00     0.306 A 
ATOM      3  O   UNL d   1      59.259  -7.626  35.732  0.00  0.00    -0.271 OA
ATOM      4  C   UNL d   1      60.798  -7.203  36.057  0.00  0.00     0.013 A 
ATOM      5  C   UNL d   1      59.811  -8.231  35.932  0.00  0.00     0.125 A 
ATOM      6  C   UNL d   1      60.590  -8.017  36.096  0.00  0.00     0.025 A 
ATOM      7  O   UNL d   1      58.938  -6.283  35.508  0.00  0.00    -0.259 OA
ATOM      8  C   UNL d   1      59.595  -9.029  35.967  0.00  0.00     0.117 A 
ATOM      9  C   UNL d   1      61.133  -8.607  36.291  0.00  0.00     0.002 A 
ATOM     10  C   UNL d   1      60.923  -9.407  36.329  0.00  0.00     0.002 A 
ATOM     11  C   UNL d   1      60.144  -9.621  36.164  0.00  0.00     0.026 A 
ENDROOT
BRANCH   1  12
ATOM     12  C   UNL d   1      60.505  -5.852  35.838  0.00  0.00     0.216 C 
ATOM     13  O   UNL d   1      61.131  -5.609  35.321  0.00  0.00    -0.644 OA
ATOM     14  O   UNL d   1      60.110  -5.362  36.330  0.00  0.00    -0.644 OA
ENDBRANCH   1  12
BRANCH   8  15
ATOM     15  O   UNL d   1      58.824  -9.241  35.804  0.00  0.00    -0.326 OA
ATOM     16  C   UNL d   1      58.418  -9.723  36.312  0.00  0.00     0.181 C 
ENDBRANCH   8  15
TORSDOF 2
ENDMDL
