MODEL 1
REMARK VINA RESULT:      -8.7      0.000      0.000
REMARK  4 active torsions:
REMARK  status: ('A' for Active; 'I' for Inactive)
REMARK    1  A    between atoms: C_6  and  C_1 
REMARK    2  A    between atoms: C_4  and  C_11 
REMARK    3  A    between atoms: N_8  and  C_6 
REMARK    4  A    between atoms: C_13  and  C_6 
ROOT
ATOM      1  C   UNL d   1      52.864  32.539  53.419  0.00  0.00     0.067 C 
ENDROOT
BRANCH   1   2
ATOM      2  C   UNL d   1      52.302  33.056  53.078  0.00  0.00     0.057 A 
ATOM      3  C   UNL d   1      51.559  33.119  53.398  0.00  0.00     0.214 A 
ATOM      4  C   UNL d   1      50.989  33.628  53.070  0.00  0.00     0.121 A 
ATOM      5  O   UNL d   1      51.374  32.651  54.078  0.00  0.00    -0.285 OA
ATOM      6  N   UNL d   1      50.246  33.691  53.390  0.00  0.00    -0.241 NA
ATOM      7  C   UNL d   1      51.188  34.076  52.407  0.00  0.00     0.032 A 
ATOM      8  C   UNL d   1      49.699  34.190  53.063  0.00  0.00     0.099 A 
ATOM      9  C   UNL d   1      49.898  34.638  52.399  0.00  0.00     0.021 A 
ATOM     10  C   UNL d   1      50.644  34.584  52.066  0.00  0.00     0.004 A 
ATOM     11  C   UNL d   1      51.956  34.013  52.074  0.00  0.00     0.059 A 
ATOM     12  C   UNL d   1      52.501  33.504  52.414  0.00  0.00     0.016 A 
ATOM     13 CL   UNL d   1      52.175  34.452  51.410  0.00  0.00    -0.082 Cl
ENDBRANCH   1   2
BRANCH   1  14
ATOM     14  N   UNL d   1      52.822  31.720  53.302  0.00  0.00    -0.301 N 
ATOM     15  C   UNL d   1      52.616  31.202  53.905  0.00  0.00     0.100 A 
ATOM     16  C   UNL d   1      52.579  30.392  53.772  0.00  0.00     0.100 A 
ATOM     17  N   UNL d   1      52.747  30.097  53.036  0.00  0.00    -0.299 N 
ATOM     18  C   UNL d   1      52.957  30.613  52.417  0.00  0.00     0.100 A 
ATOM     19  C   UNL d   1      52.704  29.281  52.923  0.00  0.00     0.100 C 
ATOM     20  C   UNL d   1      52.994  31.406  52.547  0.00  0.00     0.100 A 
ENDBRANCH   1  14
BRANCH   1  21
ATOM     21  C   UNL d   1      53.481  32.849  53.887  0.00  0.00     0.016 A 
ATOM     22  C   UNL d   1      54.234  32.952  53.565  0.00  0.00     0.001 A 
ATOM     23  C   UNL d   1      54.845  33.256  54.017  0.00  0.00     0.004 A 
ATOM     24  C   UNL d   1      54.714  33.465  54.808  0.00  0.00     0.071 A 
ATOM     25  C   UNL d   1      53.965  33.363  55.128  0.00  0.00     0.004 A 
ATOM     26  C   UNL d   1      53.350  33.058  54.677  0.00  0.00     0.001 A 
BRANCH  24  27
ATOM     27  C   UNL d   1      55.310  33.767  55.267  0.00  0.00     0.419 C 
ATOM     28  F   UNL d   1      55.939  34.089  55.671  0.00  0.00    -0.166 F 
ATOM     29  F   UNL d   1      55.302  33.724  56.135  0.00  0.00    -0.166 F 
ATOM     30  F   UNL d   1      55.903  34.104  54.897  0.00  0.00    -0.166 F 
ENDBRANCH  24  27
ENDBRANCH   1  21
TORSDOF 4
ENDMDL
MODEL 2
REMARK VINA RESULT:      -8.6      2.317      3.792
REMARK  4 active torsions:
REMARK  status: ('A' for Active; 'I' for Inactive)
REMARK    1  A    between atoms: C_6  and  C_1 
REMARK    2  A    between atoms: C_4  and  C_11 
REMARK    3  A    between atoms: N_8  and  C_6 
REMARK    4  A    between atoms: C_13  and  C_6 
ROOT
ATOM      1  C   UNL d   1      52.874  32.391  53.383  0.00  0.00     0.067 C 
ENDROOT
BRANCH   1   2
ATOM      2  C   UNL d   1      53.570  32.736  53.694  0.00  0.00     0.057 A 
ATOM      3  C   UNL d   1      53.601  32.962  54.472  0.00  0.00     0.214 A 
ATOM      4  C   UNL d   1      54.285  33.306  54.796  0.00  0.00     0.121 A 
ATOM      5  O   UNL d   1      52.916  32.838  54.953  0.00  0.00    -0.285 OA
ATOM      6  N   UNL d   1      54.316  33.531  55.574  0.00  0.00    -0.241 NA
ATOM      7  C   UNL d   1      54.943  33.419  54.311  0.00  0.00     0.032 A 
ATOM      8  C   UNL d   1      54.988  33.866  55.879  0.00  0.00     0.099 A 
ATOM      9  C   UNL d   1      55.645  33.979  55.394  0.00  0.00     0.021 A 
ATOM     10  C   UNL d   1      55.629  33.756  54.606  0.00  0.00     0.004 A 
ATOM     11  C   UNL d   1      54.913  33.186  53.504  0.00  0.00     0.059 A 
ATOM     12  C   UNL d   1      54.228  32.849  53.209  0.00  0.00     0.016 A 
ATOM     13 CL   UNL d   1      55.561  33.291  53.003  0.00  0.00    -0.082 Cl
ENDBRANCH   1   2
BRANCH   1  14
ATOM     14  N   UNL d   1      52.802  31.569  53.301  0.00  0.00    -0.301 N 
ATOM     15  C   UNL d   1      52.570  31.086  53.923  0.00  0.00     0.100 A 
ATOM     16  C   UNL d   1      52.503  30.274  53.826  0.00  0.00     0.100 A 
ATOM     17  N   UNL d   1      52.668  29.940  53.106  0.00  0.00    -0.299 N 
ATOM     18  C   UNL d   1      52.904  30.421  52.468  0.00  0.00     0.100 A 
ATOM     19  C   UNL d   1      52.594  29.122  53.028  0.00  0.00     0.100 C 
ATOM     20  C   UNL d   1      52.970  31.216  52.563  0.00  0.00     0.100 A 
ENDBRANCH   1  14
BRANCH   1  21
ATOM     21  C   UNL d   1      52.239  32.878  53.150  0.00  0.00     0.016 A 
ATOM     22  C   UNL d   1      52.302  33.346  52.473  0.00  0.00     0.001 A 
ATOM     23  C   UNL d   1      51.683  33.826  52.237  0.00  0.00     0.004 A 
ATOM     24  C   UNL d   1      50.981  33.850  52.678  0.00  0.00     0.071 A 
ATOM     25  C   UNL d   1      50.919  33.384  53.351  0.00  0.00     0.004 A 
ATOM     26  C   UNL d   1      51.538  32.901  53.590  0.00  0.00     0.001 A 
BRANCH  24  27
ATOM     27  C   UNL d   1      50.360  34.321  52.456  0.00  0.00     0.419 C 
ATOM     28  F   UNL d   1      49.734  34.815  52.298  0.00  0.00    -0.166 F 
ATOM     29  F   UNL d   1      50.058  34.346  51.642  0.00  0.00    -0.166 F 
ATOM     30  F   UNL d   1      50.037  34.760  53.008  0.00  0.00    -0.166 F 
ENDBRANCH  24  27
ENDBRANCH   1  21
TORSDOF 4
ENDMDL
MODEL 3
REMARK VINA RESULT:      -8.4      2.404      4.283
REMARK  4 active torsions:
REMARK  status: ('A' for Active; 'I' for Inactive)
REMARK    1  A    between atoms: C_6  and  C_1 
REMARK    2  A    between atoms: C_4  and  C_11 
REMARK    3  A    between atoms: N_8  and  C_6 
REMARK    4  A    between atoms: C_13  and  C_6 
ROOT
ATOM      1  C   UNL d   1      53.295  32.454  53.700  0.00  0.00     0.067 C 
ENDROOT
BRANCH   1   2
ATOM      2  C   UNL d   1      53.283  31.618  53.669  0.00  0.00     0.057 A 
ATOM      3  C   UNL d   1      53.271  31.184  54.354  0.00  0.00     0.214 A 
ATOM      4  C   UNL d   1      53.259  30.353  54.340  0.00  0.00     0.121 A 
ATOM      5  O   UNL d   1      53.272  31.599  55.092  0.00  0.00    -0.285 OA
ATOM      6  N   UNL d   1      53.247  29.919  55.024  0.00  0.00    -0.241 NA
ATOM      7  C   UNL d   1      53.259  29.967  53.611  0.00  0.00     0.032 A 
ATOM      8  C   UNL d   1      53.236  29.110  54.998  0.00  0.00     0.099 A 
ATOM      9  C   UNL d   1      53.235  28.723  54.269  0.00  0.00     0.021 A 
ATOM     10  C   UNL d   1      53.247  29.148  53.570  0.00  0.00     0.004 A 
ATOM     11  C   UNL d   1      53.270  30.413  52.900  0.00  0.00     0.059 A 
ATOM     12  C   UNL d   1      53.282  31.232  52.940  0.00  0.00     0.016 A 
ATOM     13 CL   UNL d   1      53.270  30.046  52.161  0.00  0.00    -0.082 Cl
ENDBRANCH   1   2
BRANCH   1  14
ATOM     14  N   UNL d   1      53.956  32.864  53.989  0.00  0.00    -0.301 N 
ATOM     15  C   UNL d   1      53.968  33.202  54.737  0.00  0.00     0.100 A 
ATOM     16  C   UNL d   1      54.630  33.605  55.008  0.00  0.00     0.100 A 
ATOM     17  N   UNL d   1      55.283  33.671  54.532  0.00  0.00    -0.299 N 
ATOM     18  C   UNL d   1      55.281  33.332  53.772  0.00  0.00     0.100 A 
ATOM     19  C   UNL d   1      55.938  34.080  54.823  0.00  0.00     0.100 C 
ATOM     20  C   UNL d   1      54.633  32.937  53.506  0.00  0.00     0.100 A 
ENDBRANCH   1  14
BRANCH   1  21
ATOM     21  C   UNL d   1      52.633  32.888  53.438  0.00  0.00     0.016 A 
ATOM     22  C   UNL d   1      52.622  33.206  52.677  0.00  0.00     0.001 A 
ATOM     23  C   UNL d   1      51.976  33.633  52.411  0.00  0.00     0.004 A 
ATOM     24  C   UNL d   1      51.322  33.752  52.906  0.00  0.00     0.071 A 
ATOM     25  C   UNL d   1      51.334  33.435  53.664  0.00  0.00     0.004 A 
ATOM     26  C   UNL d   1      51.980  33.006  53.933  0.00  0.00     0.001 A 
BRANCH  24  27
ATOM     27  C   UNL d   1      50.676  34.173  52.657  0.00  0.00     0.419 C 
ATOM     28  F   UNL d   1      50.062  34.609  52.349  0.00  0.00    -0.166 F 
ATOM     29  F   UNL d   1      49.955  34.254  53.134  0.00  0.00    -0.166 F 
ATOM     30  F   UNL d   1      50.724  34.510  51.959  0.00  0.00    -0.166 F 
ENDBRANCH  24  27
ENDBRANCH   1  21
TORSDOF 4
ENDMDL
MODEL 4
REMARK VINA RESULT:      -8.2      2.082      3.143
REMARK  4 active torsions:
REMARK  status: ('A' for Active; 'I' for Inactive)
REMARK    1  A    between atoms: C_6  and  C_1 
REMARK    2  A    between atoms: C_4  and  C_11 
REMARK    3  A    between atoms: N_8  and  C_6 
REMARK    4  A    between atoms: C_13  and  C_6 
ROOT
ATOM      1  C   UNL d   1      53.120  32.705  53.610  0.00  0.00     0.067 C 
ENDROOT
BRANCH   1   2
ATOM      2  C   UNL d   1      52.533  33.171  53.240  0.00  0.00     0.057 A 
ATOM      3  C   UNL d   1      51.801  33.251  53.579  0.00  0.00     0.214 A 
ATOM      4  C   UNL d   1      51.207  33.712  53.224  0.00  0.00     0.121 A 
ATOM      5  O   UNL d   1      51.653  32.853  54.311  0.00  0.00    -0.285 OA
ATOM      6  N   UNL d   1      50.475  33.792  53.563  0.00  0.00    -0.241 NA
ATOM      7  C   UNL d   1      51.371  34.093  52.511  0.00  0.00     0.032 A 
ATOM      8  C   UNL d   1      49.904  34.243  53.208  0.00  0.00     0.099 A 
ATOM      9  C   UNL d   1      50.068  34.624  52.495  0.00  0.00     0.021 A 
ATOM     10  C   UNL d   1      50.802  34.552  52.141  0.00  0.00     0.004 A 
ATOM     11  C   UNL d   1      52.128  34.012  52.156  0.00  0.00     0.059 A 
ATOM     12  C   UNL d   1      52.697  33.552  52.527  0.00  0.00     0.016 A 
ATOM     13 CL   UNL d   1      52.312  34.385  51.444  0.00  0.00    -0.082 Cl
ENDBRANCH   1   2
BRANCH   1  14
ATOM     14  N   UNL d   1      53.737  33.052  54.042  0.00  0.00    -0.301 N 
ATOM     15  C   UNL d   1      53.631  33.334  54.806  0.00  0.00     0.100 A 
ATOM     16  C   UNL d   1      54.252  33.676  55.220  0.00  0.00     0.100 A 
ATOM     17  N   UNL d   1      54.982  33.737  54.872  0.00  0.00    -0.299 N 
ATOM     18  C   UNL d   1      55.100  33.455  54.098  0.00  0.00     0.100 A 
ATOM     19  C   UNL d   1      55.593  34.084  55.305  0.00  0.00     0.100 C 
ATOM     20  C   UNL d   1      54.492  33.120  53.692  0.00  0.00     0.100 A 
ENDBRANCH   1  14
BRANCH   1  21
ATOM     21  C   UNL d   1      53.089  31.874  53.547  0.00  0.00     0.016 A 
ATOM     22  C   UNL d   1      53.173  31.510  52.811  0.00  0.00     0.001 A 
ATOM     23  C   UNL d   1      53.144  30.696  52.740  0.00  0.00     0.004 A 
ATOM     24  C   UNL d   1      53.029  30.222  53.411  0.00  0.00     0.071 A 
ATOM     25  C   UNL d   1      52.946  30.584  54.143  0.00  0.00     0.004 A 
ATOM     26  C   UNL d   1      52.975  31.401  54.217  0.00  0.00     0.001 A 
BRANCH  24  27
ATOM     27  C   UNL d   1      52.999  29.414  53.356  0.00  0.00     0.419 C 
ATOM     28  F   UNL d   1      52.926  28.612  53.247  0.00  0.00    -0.166 F 
ATOM     29  F   UNL d   1      53.432  28.890  53.896  0.00  0.00    -0.166 F 
ATOM     30  F   UNL d   1      52.558  29.117  52.790  0.00  0.00    -0.166 F 
ENDBRANCH  24  27
ENDBRANCH   1  21
TORSDOF 4
ENDMDL
MODEL 5
REMARK VINA RESULT:      -8.1      2.331      4.126
REMARK  4 active torsions:
REMARK  status: ('A' for Active; 'I' for Inactive)
REMARK    1  A    between atoms: C_6  and  C_1 
REMARK    2  A    between atoms: C_4  and  C_11 
REMARK    3  A    between atoms: N_8  and  C_6 
REMARK    4  A    between atoms: C_13  and  C_6 
ROOT
ATOM      1  C   UNL d   1      52.974  32.464  53.467  0.00  0.00     0.067 C 
ENDROOT
BRANCH   1   2
ATOM      2  C   UNL d   1      53.675  32.821  53.751  0.00  0.00     0.057 A 
ATOM      3  C   UNL d   1      53.707  33.116  54.505  0.00  0.00     0.214 A 
ATOM      4  C   UNL d   1      54.396  33.474  54.802  0.00  0.00     0.121 A 
ATOM      5  O   UNL d   1      53.016  33.053  54.990  0.00  0.00    -0.285 OA
ATOM      6  N   UNL d   1      54.427  33.769  55.556  0.00  0.00    -0.241 NA
ATOM      7  C   UNL d   1      55.059  33.527  54.314  0.00  0.00     0.032 A 
ATOM      8  C   UNL d   1      55.104  34.116  55.834  0.00  0.00     0.099 A 
ATOM      9  C   UNL d   1      55.768  34.168  55.346  0.00  0.00     0.021 A 
ATOM     10  C   UNL d   1      55.751  33.875  54.583  0.00  0.00     0.004 A 
ATOM     11  C   UNL d   1      55.030  33.222  53.532  0.00  0.00     0.059 A 
ATOM     12  C   UNL d   1      54.339  32.874  53.263  0.00  0.00     0.016 A 
ATOM     13 CL   UNL d   1      55.683  33.265  53.029  0.00  0.00    -0.082 Cl
ENDBRANCH   1   2
BRANCH   1  14
ATOM     14  N   UNL d   1      52.326  32.921  53.225  0.00  0.00    -0.301 N 
ATOM     15  C   UNL d   1      51.629  32.955  53.658  0.00  0.00     0.100 A 
ATOM     16  C   UNL d   1      50.996  33.413  53.405  0.00  0.00     0.100 A 
ATOM     17  N   UNL d   1      51.058  33.839  52.718  0.00  0.00    -0.299 N 
ATOM     18  C   UNL d   1      51.760  33.812  52.271  0.00  0.00     0.100 A 
ATOM     19  C   UNL d   1      50.411  34.294  52.480  0.00  0.00     0.100 C 
ATOM     20  C   UNL d   1      52.380  33.364  52.519  0.00  0.00     0.100 A 
ENDBRANCH   1  14
BRANCH   1  21
ATOM     21  C   UNL d   1      52.920  31.633  53.425  0.00  0.00     0.016 A 
ATOM     22  C   UNL d   1      52.937  31.253  52.693  0.00  0.00     0.001 A 
ATOM     23  C   UNL d   1      52.884  30.438  52.642  0.00  0.00     0.004 A 
ATOM     24  C   UNL d   1      52.814  29.981  53.331  0.00  0.00     0.071 A 
ATOM     25  C   UNL d   1      52.797  30.359  54.059  0.00  0.00     0.004 A 
ATOM     26  C   UNL d   1      52.849  31.177  54.113  0.00  0.00     0.001 A 
BRANCH  24  27
ATOM     27  C   UNL d   1      52.761  29.173  53.296  0.00  0.00     0.419 C 
ATOM     28  F   UNL d   1      52.673  28.370  53.203  0.00  0.00    -0.166 F 
ATOM     29  F   UNL d   1      53.108  28.654  53.899  0.00  0.00    -0.166 F 
ATOM     30  F   UNL d   1      52.381  28.872  52.690  0.00  0.00    -0.166 F 
ENDBRANCH  24  27
ENDBRANCH   1  21
TORSDOF 4
ENDMDL
MODEL 6
REMARK VINA RESULT:      -7.3      1.120      3.286
REMARK  4 active torsions:
REMARK  status: ('A' for Active; 'I' for Inactive)
REMARK    1  A    between atoms: C_6  and  C_1 
REMARK    2  A    between atoms: C_4  and  C_11 
REMARK    3  A    between atoms: N_8  and  C_6 
REMARK    4  A    between atoms: C_13  and  C_6 
ROOT
ATOM      1  C   UNL d   1      52.957  32.433  53.608  0.00  0.00     0.067 C 
ENDROOT
BRANCH   1   2
ATOM      2  C   UNL d   1      53.008  31.606  53.497  0.00  0.00     0.057 A 
ATOM      3  C   UNL d   1      53.011  31.108  54.136  0.00  0.00     0.214 A 
ATOM      4  C   UNL d   1      53.061  30.283  54.042  0.00  0.00     0.121 A 
ATOM      5  O   UNL d   1      52.961  31.448  54.910  0.00  0.00    -0.285 OA
ATOM      6  N   UNL d   1      53.064  29.785  54.682  0.00  0.00    -0.241 NA
ATOM      7  C   UNL d   1      53.108  29.971  53.280  0.00  0.00     0.032 A 
ATOM      8  C   UNL d   1      53.113  28.983  54.578  0.00  0.00     0.099 A 
ATOM      9  C   UNL d   1      53.160  28.671  53.816  0.00  0.00     0.021 A 
ATOM     10  C   UNL d   1      53.158  29.162  53.161  0.00  0.00     0.004 A 
ATOM     11  C   UNL d   1      53.105  30.485  52.616  0.00  0.00     0.059 A 
ATOM     12  C   UNL d   1      53.055  31.294  52.735  0.00  0.00     0.016 A 
ATOM     13 CL   UNL d   1      53.152  30.192  51.846  0.00  0.00    -0.082 Cl
ENDBRANCH   1   2
BRANCH   1  14
ATOM     14  N   UNL d   1      52.309  32.867  53.324  0.00  0.00    -0.301 N 
ATOM     15  C   UNL d   1      51.580  32.860  53.700  0.00  0.00     0.100 A 
ATOM     16  C   UNL d   1      50.948  33.295  53.406  0.00  0.00     0.100 A 
ATOM     17  N   UNL d   1      51.043  33.737  52.734  0.00  0.00    -0.299 N 
ATOM     18  C   UNL d   1      51.779  33.751  52.344  0.00  0.00     0.100 A 
ATOM     19  C   UNL d   1      50.397  34.167  52.454  0.00  0.00     0.100 C 
ATOM     20  C   UNL d   1      52.398  33.326  52.632  0.00  0.00     0.100 A 
ENDBRANCH   1  14
BRANCH   1  21
ATOM     21  C   UNL d   1      53.566  32.835  54.012  0.00  0.00     0.016 A 
ATOM     22  C   UNL d   1      54.305  32.932  53.657  0.00  0.00     0.001 A 
ATOM     23  C   UNL d   1      54.908  33.325  54.047  0.00  0.00     0.004 A 
ATOM     24  C   UNL d   1      54.783  33.632  54.806  0.00  0.00     0.071 A 
ATOM     25  C   UNL d   1      54.048  33.537  55.159  0.00  0.00     0.004 A 
ATOM     26  C   UNL d   1      53.441  33.143  54.770  0.00  0.00     0.001 A 
BRANCH  24  27
ATOM     27  C   UNL d   1      55.371  34.024  55.204  0.00  0.00     0.419 C 
ATOM     28  F   UNL d   1      55.939  34.387  55.659  0.00  0.00    -0.166 F 
ATOM     29  F   UNL d   1      55.932  34.556  54.807  0.00  0.00    -0.166 F 
ATOM     30  F   UNL d   1      55.418  33.905  55.969  0.00  0.00    -0.166 F 
ENDBRANCH  24  27
ENDBRANCH   1  21
TORSDOF 4
ENDMDL
MODEL 7
REMARK VINA RESULT:      -5.9      2.835      4.572
REMARK  4 active torsions:
REMARK  status: ('A' for Active; 'I' for Inactive)
REMARK    1  A    between atoms: C_6  and  C_1 
REMARK    2  A    between atoms: C_4  and  C_11 
REMARK    3  A    between atoms: N_8  and  C_6 
REMARK    4  A    between atoms: C_13  and  C_6 
ROOT
ATOM      1  C   UNL d   1      52.335  33.674  53.345  0.00  0.00     0.067 C 
ENDROOT
BRANCH   1   2
ATOM      2  C   UNL d   1      52.706  32.927  53.284  0.00  0.00     0.057 A 
ATOM      3  C   UNL d   1      52.286  32.249  53.432  0.00  0.00     0.214 A 
ATOM      4  C   UNL d   1      52.640  31.499  53.376  0.00  0.00     0.121 A 
ATOM      5  O   UNL d   1      51.471  32.322  53.648  0.00  0.00    -0.285 OA
ATOM      6  N   UNL d   1      52.220  30.822  53.525  0.00  0.00    -0.241 NA
ATOM      7  C   UNL d   1      53.436  31.449  53.165  0.00  0.00     0.032 A 
ATOM      8  C   UNL d   1      52.576  30.097  53.467  0.00  0.00     0.099 A 
ATOM      9  C   UNL d   1      53.372  30.046  53.256  0.00  0.00     0.021 A 
ATOM     10  C   UNL d   1      53.808  30.722  53.103  0.00  0.00     0.004 A 
ATOM     11  C   UNL d   1      53.874  32.149  53.011  0.00  0.00     0.059 A 
ATOM     12  C   UNL d   1      53.502  32.877  53.073  0.00  0.00     0.016 A 
ATOM     13 CL   UNL d   1      54.671  32.120  52.799  0.00  0.00    -0.082 Cl
ENDBRANCH   1   2
BRANCH   1  14
ATOM     14  N   UNL d   1      52.609  34.249  53.876  0.00  0.00    -0.301 N 
ATOM     15  C   UNL d   1      52.553  34.154  54.690  0.00  0.00     0.100 A 
ATOM     16  C   UNL d   1      52.829  34.732  55.203  0.00  0.00     0.100 A 
ATOM     17  N   UNL d   1      53.163  35.408  54.904  0.00  0.00    -0.299 N 
ATOM     18  C   UNL d   1      53.225  35.514  54.080  0.00  0.00     0.100 A 
ATOM     19  C   UNL d   1      53.435  35.978  55.436  0.00  0.00     0.100 C 
ATOM     20  C   UNL d   1      52.955  34.948  53.578  0.00  0.00     0.100 A 
ENDBRANCH   1  14
BRANCH   1  21
ATOM     21  C   UNL d   1      51.676  33.850  52.864  0.00  0.00     0.016 A 
ATOM     22  C   UNL d   1      51.782  34.025  52.065  0.00  0.00     0.001 A 
ATOM     23  C   UNL d   1      51.141  34.198  51.586  0.00  0.00     0.004 A 
ATOM     24  C   UNL d   1      50.374  34.200  51.900  0.00  0.00     0.071 A 
ATOM     25  C   UNL d   1      50.269  34.025  52.696  0.00  0.00     0.004 A 
ATOM     26  C   UNL d   1      50.910  33.851  53.178  0.00  0.00     0.001 A 
BRANCH  24  27
ATOM     27  C   UNL d   1      49.730  34.370  51.438  0.00  0.00     0.419 C 
ATOM     28  F   UNL d   1      49.125  34.536  50.920  0.00  0.00    -0.166 F 
ATOM     29  F   UNL d   1      48.938  34.506  51.768  0.00  0.00    -0.166 F 
ATOM     30  F   UNL d   1      49.847  34.407  50.672  0.00  0.00    -0.166 F 
ENDBRANCH  24  27
ENDBRANCH   1  21
TORSDOF 4
ENDMDL
