MODEL 1
REMARK VINA RESULT:      -8.6      0.000      0.000
REMARK  4 active torsions:
REMARK  status: ('A' for Active; 'I' for Inactive)
REMARK    1  A    between atoms: N_2  and  S_1 
REMARK    2  A    between atoms: C_7  and  S_1 
REMARK    3  A    between atoms: C_11  and  C_4 
REMARK    4  A    between atoms: C_18  and  C_11 
ROOT
ATOM      1  N   UNL d   1      53.250  31.622  53.498  0.00  0.00    -0.202 N 
ATOM      2  C   UNL d   1      52.637  31.888  53.021  0.00  0.00     0.218 A 
ATOM      3  C   UNL d   1      53.214  30.790  53.523  0.00  0.00     0.135 A 
ATOM      4  N   UNL d   1      52.222  31.227  52.749  0.00  0.00    -0.178 NA
ATOM      5  C   UNL d   1      52.584  30.558  53.063  0.00  0.00     0.298 A 
ATOM      6  S   UNL d   1      52.456  32.680  52.836  0.00  0.00    -0.037 SA
ATOM      7  O   UNL d   1      52.350  29.767  52.935  0.00  0.00    -0.264 OA
ENDROOT
BRANCH   1   8
ATOM      8  S   UNL d   1      53.762  32.162  53.851  0.00  0.00     0.273 S 
ATOM      9  O   UNL d   1      53.138  32.448  54.321  0.00  0.00    -0.200 OA
ATOM     10  O   UNL d   1      54.381  31.879  53.386  0.00  0.00    -0.200 OA
BRANCH   8  11
ATOM     11  C   UNL d   1      54.275  32.702  54.204  0.00  0.00     0.104 A 
ATOM     12  C   UNL d   1      54.886  33.036  53.766  0.00  0.00     0.012 A 
ATOM     13  C   UNL d   1      55.401  33.579  54.121  0.00  0.00     0.001 A 
ATOM     14  C   UNL d   1      54.981  32.822  52.965  0.00  0.00     0.001 C 
ATOM     15  C   UNL d   1      55.302  33.785  54.911  0.00  0.00     0.000 A 
ATOM     16  C   UNL d   1      54.689  33.451  55.351  0.00  0.00     0.001 A 
ATOM     17  C   UNL d   1      54.174  32.909  54.996  0.00  0.00     0.013 A 
ATOM     18  C   UNL d   1      54.591  33.662  56.151  0.00  0.00     0.000 C 
ENDBRANCH   8  11
ENDBRANCH   1   8
BRANCH   3  19
ATOM     19  C   UNL d   1      53.715  30.277  53.931  0.00  0.00     0.023 C 
BRANCH  19  20
ATOM     20  C   UNL d   1      53.431  29.557  54.212  0.00  0.00     0.002 C 
ATOM     21  C   UNL d   1      53.579  28.868  53.790  0.00  0.00     0.000 C 
ATOM     22  C   UNL d   1      53.005  29.527  54.908  0.00  0.00     0.000 C 
ENDBRANCH  19  20
ENDBRANCH   3  19
TORSDOF 4
ENDMDL
MODEL 2
REMARK VINA RESULT:      -8.4      1.940      3.620
REMARK  4 active torsions:
REMARK  status: ('A' for Active; 'I' for Inactive)
REMARK    1  A    between atoms: N_2  and  S_1 
REMARK    2  A    between atoms: C_7  and  S_1 
REMARK    3  A    between atoms: C_11  and  C_4 
REMARK    4  A    between atoms: C_18  and  C_11 
ROOT
ATOM      1  N   UNL d   1      52.849  33.453  53.688  0.00  0.00    -0.202 N 
ATOM      2  C   UNL d   1      53.178  33.911  54.286  0.00  0.00     0.218 A 
ATOM      3  C   UNL d   1      52.280  33.916  53.292  0.00  0.00     0.135 A 
ATOM      4  N   UNL d   1      52.816  34.654  54.262  0.00  0.00    -0.178 NA
ATOM      5  C   UNL d   1      52.267  34.647  53.649  0.00  0.00     0.298 A 
ATOM      6  S   UNL d   1      53.769  33.679  54.824  0.00  0.00    -0.037 SA
ATOM      7  O   UNL d   1      51.774  35.281  53.424  0.00  0.00    -0.264 OA
ENDROOT
BRANCH   1   8
ATOM      8  S   UNL d   1      53.103  32.677  53.576  0.00  0.00     0.273 S 
ATOM      9  O   UNL d   1      52.754  32.458  54.299  0.00  0.00    -0.200 OA
ATOM     10  O   UNL d   1      53.449  32.894  52.860  0.00  0.00    -0.200 OA
BRANCH   8  11
ATOM     11  C   UNL d   1      53.358  31.902  53.464  0.00  0.00     0.104 A 
ATOM     12  C   UNL d   1      54.154  31.744  53.331  0.00  0.00     0.012 A 
ATOM     13  C   UNL d   1      54.410  30.965  53.218  0.00  0.00     0.001 A 
ATOM     14  C   UNL d   1      54.699  32.376  53.312  0.00  0.00     0.001 C 
ATOM     15  C   UNL d   1      53.868  30.347  53.239  0.00  0.00     0.000 A 
ATOM     16  C   UNL d   1      53.068  30.503  53.372  0.00  0.00     0.001 A 
ATOM     17  C   UNL d   1      52.813  31.282  53.485  0.00  0.00     0.013 A 
ATOM     18  C   UNL d   1      52.521  29.874  53.392  0.00  0.00     0.000 C 
ENDBRANCH   8  11
ENDBRANCH   1   8
BRANCH   3  19
ATOM     19  C   UNL d   1      51.807  33.693  52.654  0.00  0.00     0.023 C 
BRANCH  19  20
ATOM     20  C   UNL d   1      51.077  34.054  52.534  0.00  0.00     0.002 C 
ATOM     21  C   UNL d   1      50.963  34.536  51.879  0.00  0.00     0.000 C 
ATOM     22  C   UNL d   1      50.468  33.933  53.064  0.00  0.00     0.000 C 
ENDBRANCH  19  20
ENDBRANCH   3  19
TORSDOF 4
ENDMDL
MODEL 3
REMARK VINA RESULT:      -8.3      1.141      3.477
REMARK  4 active torsions:
REMARK  status: ('A' for Active; 'I' for Inactive)
REMARK    1  A    between atoms: N_2  and  S_1 
REMARK    2  A    between atoms: C_7  and  S_1 
REMARK    3  A    between atoms: C_11  and  C_4 
REMARK    4  A    between atoms: C_18  and  C_11 
ROOT
ATOM      1  N   UNL d   1      53.201  32.940  53.954  0.00  0.00    -0.202 N 
ATOM      2  C   UNL d   1      52.552  33.427  53.827  0.00  0.00     0.218 A 
ATOM      3  C   UNL d   1      53.813  33.405  54.278  0.00  0.00     0.135 A 
ATOM      4  N   UNL d   1      52.757  34.190  54.069  0.00  0.00    -0.178 NA
ATOM      5  C   UNL d   1      53.532  34.167  54.344  0.00  0.00     0.298 A 
ATOM      6  S   UNL d   1      51.815  33.202  53.511  0.00  0.00    -0.037 SA
ATOM      7  O   UNL d   1      53.966  34.813  54.644  0.00  0.00    -0.264 OA
ENDROOT
BRANCH   1   8
ATOM      8  S   UNL d   1      53.161  32.140  53.763  0.00  0.00     0.273 S 
ATOM      9  O   UNL d   1      53.646  32.273  53.100  0.00  0.00    -0.200 OA
ATOM     10  O   UNL d   1      52.681  32.007  54.420  0.00  0.00    -0.200 OA
BRANCH   8  11
ATOM     11  C   UNL d   1      53.120  31.339  53.572  0.00  0.00     0.104 A 
ATOM     12  C   UNL d   1      52.882  31.107  52.820  0.00  0.00     0.012 A 
ATOM     13  C   UNL d   1      52.842  30.303  52.628  0.00  0.00     0.001 A 
ATOM     14  C   UNL d   1      52.683  31.688  52.255  0.00  0.00     0.001 C 
ATOM     15  C   UNL d   1      53.039  29.734  53.189  0.00  0.00     0.000 A 
ATOM     16  C   UNL d   1      53.278  29.966  53.944  0.00  0.00     0.001 A 
ATOM     17  C   UNL d   1      53.318  30.770  54.136  0.00  0.00     0.013 A 
ATOM     18  C   UNL d   1      53.477  29.388  54.511  0.00  0.00     0.000 C 
ENDBRANCH   8  11
ENDBRANCH   1   8
BRANCH   3  19
ATOM     19  C   UNL d   1      54.569  33.160  54.497  0.00  0.00     0.023 C 
BRANCH  19  20
ATOM     20  C   UNL d   1      54.992  33.580  55.065  0.00  0.00     0.002 C 
ATOM     21  C   UNL d   1      55.608  34.071  54.835  0.00  0.00     0.000 C 
ATOM     22  C   UNL d   1      54.800  33.507  55.856  0.00  0.00     0.000 C 
ENDBRANCH  19  20
ENDBRANCH   3  19
TORSDOF 4
ENDMDL
MODEL 4
REMARK VINA RESULT:      -8.2      2.556      3.854
REMARK  4 active torsions:
REMARK  status: ('A' for Active; 'I' for Inactive)
REMARK    1  A    between atoms: N_2  and  S_1 
REMARK    2  A    between atoms: C_7  and  S_1 
REMARK    3  A    between atoms: C_11  and  C_4 
REMARK    4  A    between atoms: C_18  and  C_11 
ROOT
ATOM      1  N   UNL d   1      52.843  34.181  54.039  0.00  0.00    -0.202 N 
ATOM      2  C   UNL d   1      53.088  34.824  54.489  0.00  0.00     0.218 A 
ATOM      3  C   UNL d   1      53.348  33.540  54.208  0.00  0.00     0.135 A 
ATOM      4  N   UNL d   1      53.742  34.585  54.935  0.00  0.00    -0.178 NA
ATOM      5  C   UNL d   1      53.893  33.796  54.756  0.00  0.00     0.298 A 
ATOM      6  S   UNL d   1      52.747  35.584  54.500  0.00  0.00    -0.037 SA
ATOM      7  O   UNL d   1      54.504  33.328  55.079  0.00  0.00    -0.264 OA
ENDROOT
BRANCH   1   8
ATOM      8  S   UNL d   1      52.196  34.254  53.534  0.00  0.00     0.273 S 
ATOM      9  O   UNL d   1      51.758  33.742  54.022  0.00  0.00    -0.200 OA
ATOM     10  O   UNL d   1      52.630  34.762  53.051  0.00  0.00    -0.200 OA
BRANCH   8  11
ATOM     11  C   UNL d   1      51.549  34.327  53.030  0.00  0.00     0.104 A 
ATOM     12  C   UNL d   1      51.648  34.241  52.218  0.00  0.00     0.012 A 
ATOM     13  C   UNL d   1      50.997  34.315  51.710  0.00  0.00     0.001 A 
ATOM     14  C   UNL d   1      52.408  34.080  51.912  0.00  0.00     0.001 C 
ATOM     15  C   UNL d   1      50.251  34.474  52.018  0.00  0.00     0.000 A 
ATOM     16  C   UNL d   1      50.150  34.560  52.832  0.00  0.00     0.001 A 
ATOM     17  C   UNL d   1      50.801  34.487  53.339  0.00  0.00     0.013 A 
ATOM     18  C   UNL d   1      49.393  34.722  53.141  0.00  0.00     0.000 C 
ENDBRANCH   8  11
ENDBRANCH   1   8
BRANCH   3  19
ATOM     19  C   UNL d   1      53.319  32.780  53.891  0.00  0.00     0.023 C 
BRANCH  19  20
ATOM     20  C   UNL d   1      53.937  32.252  54.022  0.00  0.00     0.002 C 
ATOM     21  C   UNL d   1      53.885  31.706  54.633  0.00  0.00     0.000 C 
ATOM     22  C   UNL d   1      54.600  32.271  53.545  0.00  0.00     0.000 C 
ENDBRANCH  19  20
ENDBRANCH   3  19
TORSDOF 4
ENDMDL
MODEL 5
REMARK VINA RESULT:      -7.7      1.907      2.954
REMARK  4 active torsions:
REMARK  status: ('A' for Active; 'I' for Inactive)
REMARK    1  A    between atoms: N_2  and  S_1 
REMARK    2  A    between atoms: C_7  and  S_1 
REMARK    3  A    between atoms: C_11  and  C_4 
REMARK    4  A    between atoms: C_18  and  C_11 
ROOT
ATOM      1  N   UNL d   1      53.017  32.555  53.593  0.00  0.00    -0.202 N 
ATOM      2  C   UNL d   1      53.566  32.826  54.141  0.00  0.00     0.218 A 
ATOM      3  C   UNL d   1      53.179  31.751  53.442  0.00  0.00     0.135 A 
ATOM      4  N   UNL d   1      54.067  32.196  54.330  0.00  0.00    -0.178 NA
ATOM      5  C   UNL d   1      53.821  31.541  53.896  0.00  0.00     0.298 A 
ATOM      6  S   UNL d   1      53.618  33.595  54.456  0.00  0.00    -0.037 SA
ATOM      7  O   UNL d   1      54.168  30.782  53.914  0.00  0.00    -0.264 OA
ENDROOT
BRANCH   1   8
ATOM      8  S   UNL d   1      52.441  33.065  53.299  0.00  0.00     0.273 S 
ATOM      9  O   UNL d   1      52.148  33.178  54.069  0.00  0.00    -0.200 OA
ATOM     10  O   UNL d   1      52.732  32.953  52.536  0.00  0.00    -0.200 OA
BRANCH   8  11
ATOM     11  C   UNL d   1      51.865  33.576  53.005  0.00  0.00     0.104 A 
ATOM     12  C   UNL d   1      52.078  34.191  52.501  0.00  0.00     0.012 A 
ATOM     13  C   UNL d   1      51.499  34.704  52.206  0.00  0.00     0.001 A 
ATOM     14  C   UNL d   1      52.880  34.291  52.293  0.00  0.00     0.001 C 
ATOM     15  C   UNL d   1      50.710  34.599  52.415  0.00  0.00     0.000 A 
ATOM     16  C   UNL d   1      50.496  33.983  52.920  0.00  0.00     0.001 A 
ATOM     17  C   UNL d   1      51.075  33.470  53.215  0.00  0.00     0.013 A 
ATOM     18  C   UNL d   1      49.696  33.879  53.130  0.00  0.00     0.000 C 
ENDBRANCH   8  11
ENDBRANCH   1   8
BRANCH   3  19
ATOM     19  C   UNL d   1      52.777  31.244  52.931  0.00  0.00     0.023 C 
BRANCH  19  20
ATOM     20  C   UNL d   1      52.810  30.430  53.043  0.00  0.00     0.002 C 
ATOM     21  C   UNL d   1      52.307  30.072  53.585  0.00  0.00     0.000 C 
ATOM     22  C   UNL d   1      53.341  29.978  52.618  0.00  0.00     0.000 C 
ENDBRANCH  19  20
ENDBRANCH   3  19
TORSDOF 4
ENDMDL
MODEL 6
REMARK VINA RESULT:      -7.7      1.438      2.514
REMARK  4 active torsions:
REMARK  status: ('A' for Active; 'I' for Inactive)
REMARK    1  A    between atoms: N_2  and  S_1 
REMARK    2  A    between atoms: C_7  and  S_1 
REMARK    3  A    between atoms: C_11  and  C_4 
REMARK    4  A    between atoms: C_18  and  C_11 
ROOT
ATOM      1  N   UNL d   1      52.853  32.549  53.475  0.00  0.00    -0.202 N 
ATOM      2  C   UNL d   1      52.802  31.753  53.280  0.00  0.00     0.218 A 
ATOM      3  C   UNL d   1      52.148  32.920  53.230  0.00  0.00     0.135 A 
ATOM      4  N   UNL d   1      52.070  31.628  52.916  0.00  0.00    -0.178 NA
ATOM      5  C   UNL d   1      51.677  32.350  52.890  0.00  0.00     0.298 A 
ATOM      6  S   UNL d   1      53.378  31.167  53.419  0.00  0.00    -0.037 SA
ATOM      7  O   UNL d   1      50.918  32.485  52.569  0.00  0.00    -0.264 OA
ENDROOT
BRANCH   1   8
ATOM      8  S   UNL d   1      53.527  32.839  53.849  0.00  0.00     0.273 S 
ATOM      9  O   UNL d   1      53.264  32.521  54.572  0.00  0.00    -0.200 OA
ATOM     10  O   UNL d   1      53.788  33.154  53.134  0.00  0.00    -0.200 OA
BRANCH   8  11
ATOM     11  C   UNL d   1      54.201  33.130  54.223  0.00  0.00     0.104 A 
ATOM     12  C   UNL d   1      54.910  33.187  53.809  0.00  0.00     0.012 A 
ATOM     13  C   UNL d   1      55.588  33.479  54.185  0.00  0.00     0.001 A 
ATOM     14  C   UNL d   1      54.938  32.948  53.010  0.00  0.00     0.001 C 
ATOM     15  C   UNL d   1      55.553  33.712  54.973  0.00  0.00     0.000 A 
ATOM     16  C   UNL d   1      54.843  33.656  55.389  0.00  0.00     0.001 A 
ATOM     17  C   UNL d   1      54.166  33.364  55.014  0.00  0.00     0.013 A 
ATOM     18  C   UNL d   1      54.812  33.894  56.188  0.00  0.00     0.000 C 
ENDBRANCH   8  11
ENDBRANCH   1   8
BRANCH   3  19
ATOM     19  C   UNL d   1      51.945  33.716  53.309  0.00  0.00     0.023 C 
BRANCH  19  20
ATOM     20  C   UNL d   1      51.348  34.039  52.843  0.00  0.00     0.002 C 
ATOM     21  C   UNL d   1      50.592  34.125  53.151  0.00  0.00     0.000 C 
ATOM     22  C   UNL d   1      51.507  34.274  52.077  0.00  0.00     0.000 C 
ENDBRANCH  19  20
ENDBRANCH   3  19
TORSDOF 4
ENDMDL
