MODEL 1
REMARK VINA RESULT:      87.5      0.000      0.000
REMARK  6 active torsions:
REMARK  status: ('A' for Active; 'I' for Inactive)
REMARK    1  A    between atoms: C_7  and  C_2 
REMARK    2  A    between atoms: C_16  and  N_3 
REMARK    3  A    between atoms: O_17  and  C_9 
REMARK    4  A    between atoms: O_19  and  C_10 
REMARK    5  A    between atoms: O_18  and  C_11 
REMARK    6  A    between atoms: C_25  and  C_16 
ROOT
ATOM      1  N   UNL d   1     -49.900  27.392  33.708  0.00  0.00    -0.206 NA
ATOM      2  C   UNL d   1     -50.269  26.847  34.213  0.00  0.00     0.151 A 
ATOM      3  N   UNL d   1     -50.009  27.002  34.987  0.00  0.00    -0.273 N 
ATOM      4  C   UNL d   1     -49.486  27.637  34.949  0.00  0.00     0.185 A 
ATOM      5  C   UNL d   1     -49.417  27.879  34.164  0.00  0.00     0.199 A 
ATOM      6  N   UNL d   1     -49.053  28.037  35.538  0.00  0.00    -0.224 NA
ATOM      7  N   UNL d   1     -48.925  28.509  33.965  0.00  0.00    -0.223 NA
ATOM      8  C   UNL d   1     -48.562  28.667  35.334  0.00  0.00     0.101 A 
ATOM      9  C   UNL d   1     -48.500  28.902  34.545  0.00  0.00     0.101 A 
ATOM     10  C   UNL d   1     -48.135  29.059  35.926  0.00  0.00     0.021 A 
ATOM     11  C   UNL d   1     -48.012  29.528  34.346  0.00  0.00     0.021 A 
ATOM     12  C   UNL d   1     -47.584  29.923  34.929  0.00  0.00     0.002 A 
ATOM     13  C   UNL d   1     -47.646  29.688  35.718  0.00  0.00     0.002 A 
ENDROOT
BRANCH   2  14
ATOM     14  C   UNL d   1     -50.796  26.260  33.989  0.00  0.00     0.039 A 
ATOM     15  C   UNL d   1     -50.546  25.451  33.993  0.00  0.00     0.029 A 
ATOM     16  C   UNL d   1     -51.068  24.843  33.769  0.00  0.00     0.118 A 
ATOM     17  C   UNL d   1     -51.845  25.047  33.539  0.00  0.00     0.138 A 
ATOM     18  C   UNL d   1     -52.095  25.856  33.535  0.00  0.00     0.118 A 
ATOM     19  C   UNL d   1     -51.571  26.471  33.760  0.00  0.00     0.029 A 
BRANCH  16  20
ATOM     20  O   UNL d   1     -50.823  24.051  33.773  0.00  0.00    -0.326 OA
ATOM     21  C   UNL d   1     -49.811  23.816  33.644  0.00  0.00     0.181 C 
ENDBRANCH  16  20
BRANCH  17  22
ATOM     22  O   UNL d   1     -52.375  24.466  33.314  0.00  0.00    -0.324 OA
ATOM     23  C   UNL d   1     -52.807  23.776  34.028  0.00  0.00     0.182 C 
ENDBRANCH  17  22
BRANCH  18  24
ATOM     24  O   UNL d   1     -52.870  26.067  33.306  0.00  0.00    -0.326 OA
ATOM     25  C   UNL d   1     -53.345  26.996  33.681  0.00  0.00     0.181 C 
ENDBRANCH  18  24
ENDBRANCH   2  14
BRANCH   3  26
ATOM     26  C   UNL d   1     -50.234  26.595  35.661  0.00  0.00     0.083 C 
BRANCH  26  27
ATOM     27  C   UNL d   1     -50.774  26.929  36.183  0.00  0.00     0.019 C 
ATOM     28  C   UNL d   1     -50.654  26.867  36.994  0.00  0.00     0.002 C 
ENDBRANCH  26  27
ENDBRANCH   3  26
TORSDOF 6
ENDMDL
MODEL 2
REMARK VINA RESULT:      88.9      2.208      4.910
REMARK  6 active torsions:
REMARK  status: ('A' for Active; 'I' for Inactive)
REMARK    1  A    between atoms: C_7  and  C_2 
REMARK    2  A    between atoms: C_16  and  N_3 
REMARK    3  A    between atoms: O_17  and  C_9 
REMARK    4  A    between atoms: O_19  and  C_10 
REMARK    5  A    between atoms: O_18  and  C_11 
REMARK    6  A    between atoms: C_25  and  C_16 
ROOT
ATOM      1  N   UNL d   1     -50.821  27.017  34.155  0.00  0.00    -0.206 NA
ATOM      2  C   UNL d   1     -49.993  27.046  34.105  0.00  0.00     0.151 A 
ATOM      3  N   UNL d   1     -49.725  26.291  33.886  0.00  0.00    -0.273 N 
ATOM      4  C   UNL d   1     -50.389  25.809  33.805  0.00  0.00     0.185 A 
ATOM      5  C   UNL d   1     -51.063  26.252  33.969  0.00  0.00     0.199 A 
ATOM      6  N   UNL d   1     -50.470  25.006  33.597  0.00  0.00    -0.224 NA
ATOM      7  N   UNL d   1     -51.809  25.906  33.930  0.00  0.00    -0.223 NA
ATOM      8  C   UNL d   1     -51.219  24.663  33.559  0.00  0.00     0.101 A 
ATOM      9  C   UNL d   1     -51.889  25.116  33.726  0.00  0.00     0.101 A 
ATOM     10  C   UNL d   1     -51.291  23.863  33.352  0.00  0.00     0.021 A 
ATOM     11  C   UNL d   1     -52.630  24.773  33.686  0.00  0.00     0.021 A 
ATOM     12  C   UNL d   1     -52.710  23.978  33.481  0.00  0.00     0.002 A 
ATOM     13  C   UNL d   1     -52.041  23.525  33.315  0.00  0.00     0.002 A 
ENDROOT
BRANCH   2  14
ATOM     14  C   UNL d   1     -49.523  27.703  34.246  0.00  0.00     0.039 A 
ATOM     15  C   UNL d   1     -48.940  27.675  34.860  0.00  0.00     0.029 A 
ATOM     16  C   UNL d   1     -48.454  28.332  35.017  0.00  0.00     0.118 A 
ATOM     17  C   UNL d   1     -48.553  29.021  34.556  0.00  0.00     0.138 A 
ATOM     18  C   UNL d   1     -49.135  29.050  33.942  0.00  0.00     0.118 A 
ATOM     19  C   UNL d   1     -49.626  28.389  33.782  0.00  0.00     0.029 A 
BRANCH  16  20
ATOM     20  O   UNL d   1     -47.884  28.304  35.619  0.00  0.00    -0.326 OA
ATOM     21  C   UNL d   1     -47.763  29.120  36.262  0.00  0.00     0.181 C 
ENDBRANCH  16  20
BRANCH  17  22
ATOM     22  O   UNL d   1     -48.086  29.679  34.693  0.00  0.00    -0.324 OA
ATOM     23  C   UNL d   1     -47.030  29.598  34.914  0.00  0.00     0.182 C 
ENDBRANCH  17  22
BRANCH  18  24
ATOM     24  O   UNL d   1     -49.239  29.736  33.477  0.00  0.00    -0.326 OA
ATOM     25  C   UNL d   1     -50.150  30.361  33.574  0.00  0.00     0.181 C 
ENDBRANCH  18  24
ENDBRANCH   2  14
BRANCH   3  26
ATOM     26  C   UNL d   1     -48.945  26.070  33.773  0.00  0.00     0.083 C 
BRANCH  26  27
ATOM     27  C   UNL d   1     -48.764  25.419  33.306  0.00  0.00     0.019 C 
ATOM     28  C   UNL d   1     -48.006  25.101  33.320  0.00  0.00     0.002 C 
ENDBRANCH  26  27
ENDBRANCH   3  26
TORSDOF 6
ENDMDL
