MODEL 1
REMARK VINA RESULT:      -4.7      0.000      0.000
REMARK  5 active torsions:
REMARK  status: ('A' for Active; 'I' for Inactive)
REMARK    1  A    between atoms: N_3  and  S_1 
REMARK    2  A    between atoms: C_4  and  S_1 
REMARK    3  A    between atoms: S_2  and  N_5 
REMARK    4  A    between atoms: C_8  and  N_3 
REMARK    5  A    between atoms: N_5  and  C_15 
ROOT
ATOM      1  N   UNL d   1      58.243   0.046  29.754  0.00  0.00    -0.229 N 
ATOM      2  C   UNL d   1      58.102   0.676  29.245  0.00  0.00     0.111 C 
ENDROOT
BRANCH   1   3
ATOM      3  S   UNL d   1      57.818  -0.014  30.463  0.00  0.00     0.271 S 
ATOM      4  O   UNL d   1      58.603   0.238  30.470  0.00  0.00    -0.200 OA
ATOM      5  O   UNL d   1      57.449  -0.210  29.741  0.00  0.00    -0.200 OA
BRANCH   3   6
ATOM      6  C   UNL d   1      57.394  -0.075  31.172  0.00  0.00     0.104 A 
ATOM      7  C   UNL d   1      57.300   0.585  31.657  0.00  0.00     0.013 A 
ATOM      8  C   UNL d   1      56.883   0.526  32.353  0.00  0.00     0.001 A 
ATOM      9  C   UNL d   1      56.553  -0.194  32.577  0.00  0.00     0.000 A 
ATOM     10  C   UNL d   1      56.643  -0.856  32.096  0.00  0.00     0.001 A 
ATOM     11  C   UNL d   1      56.129  -0.246  33.288  0.00  0.00     0.000 C 
ATOM     12  C   UNL d   1      57.062  -0.796  31.397  0.00  0.00     0.013 A 
ENDBRANCH   3   6
ENDBRANCH   1   3
BRANCH   1  13
ATOM     13  C   UNL d   1      58.807  -0.527  29.560  0.00  0.00     0.075 A 
ATOM     14  C   UNL d   1      59.607  -0.387  29.720  0.00  0.00     0.020 A 
ATOM     15  C   UNL d   1      60.167  -0.960  29.525  0.00  0.00     0.021 A 
ATOM     16  C   UNL d   1      59.929  -1.675  29.171  0.00  0.00     0.094 A 
ATOM     17  C   UNL d   1      59.128  -1.806  29.015  0.00  0.00     0.021 A 
ATOM     18  C   UNL d   1      58.571  -1.234  29.209  0.00  0.00     0.020 A 
BRANCH  16  19
ATOM     19  N   UNL d   1      60.493  -2.249  28.977  0.00  0.00    -0.162 NA
BRANCH  19  20
ATOM     20  S   UNL d   1      60.367  -3.047  29.182  0.00  0.00     0.266 S 
ATOM     21  O   UNL d   1      59.610  -3.367  29.145  0.00  0.00    -0.203 OA
ATOM     22  O   UNL d   1      61.133  -2.718  29.218  0.00  0.00    -0.203 OA
ATOM     23  C   UNL d   1      61.007  -3.516  29.423  0.00  0.00     0.165 C 
ENDBRANCH  19  20
ENDBRANCH  16  19
ENDBRANCH   1  13
TORSDOF 5
ENDMDL
MODEL 2
REMARK VINA RESULT:      -4.4      1.522      4.348
REMARK  5 active torsions:
REMARK  status: ('A' for Active; 'I' for Inactive)
REMARK    1  A    between atoms: N_3  and  S_1 
REMARK    2  A    between atoms: C_4  and  S_1 
REMARK    3  A    between atoms: S_2  and  N_5 
REMARK    4  A    between atoms: C_8  and  N_3 
REMARK    5  A    between atoms: N_5  and  C_15 
ROOT
ATOM      1  N   UNL d   1      58.473   0.065  29.714  0.00  0.00    -0.229 N 
ATOM      2  C   UNL d   1      58.468   0.680  29.168  0.00  0.00     0.111 C 
ENDROOT
BRANCH   1   3
ATOM      3  S   UNL d   1      58.849  -0.649  29.527  0.00  0.00     0.271 S 
ATOM      4  O   UNL d   1      58.083  -0.502  29.259  0.00  0.00    -0.200 OA
ATOM      5  O   UNL d   1      59.248  -0.079  29.987  0.00  0.00    -0.200 OA
BRANCH   3   6
ATOM      6  C   UNL d   1      59.224  -1.364  29.340  0.00  0.00     0.104 A 
ATOM      7  C   UNL d   1      58.787  -2.061  29.286  0.00  0.00     0.013 A 
ATOM      8  C   UNL d   1      59.156  -2.762  29.103  0.00  0.00     0.001 A 
ATOM      9  C   UNL d   1      59.967  -2.781  28.970  0.00  0.00     0.000 A 
ATOM     10  C   UNL d   1      60.409  -2.088  29.022  0.00  0.00     0.001 A 
ATOM     11  C   UNL d   1      60.335  -3.500  28.783  0.00  0.00     0.000 C 
ATOM     12  C   UNL d   1      60.038  -1.382  29.206  0.00  0.00     0.013 A 
ENDBRANCH   3   6
ENDBRANCH   1   3
BRANCH   1  13
ATOM     13  C   UNL d   1      58.104   0.158  30.449  0.00  0.00     0.075 A 
ATOM     14  C   UNL d   1      58.555   0.367  31.111  0.00  0.00     0.020 A 
ATOM     15  C   UNL d   1      58.184   0.459  31.842  0.00  0.00     0.021 A 
ATOM     16  C   UNL d   1      57.364   0.342  31.913  0.00  0.00     0.094 A 
ATOM     17  C   UNL d   1      56.922   0.133  31.247  0.00  0.00     0.021 A 
ATOM     18  C   UNL d   1      57.292   0.042  30.519  0.00  0.00     0.020 A 
BRANCH  16  19
ATOM     19  N   UNL d   1      56.994   0.434  32.648  0.00  0.00    -0.162 NA
BRANCH  19  20
ATOM     20  S   UNL d   1      56.441  -0.130  32.914  0.00  0.00     0.266 S 
ATOM     21  O   UNL d   1      56.566  -0.929  32.766  0.00  0.00    -0.203 OA
ATOM     22  O   UNL d   1      56.320   0.682  33.062  0.00  0.00    -0.203 OA
ATOM     23  C   UNL d   1      55.767   0.117  33.328  0.00  0.00     0.165 C 
ENDBRANCH  19  20
ENDBRANCH  16  19
ENDBRANCH   1  13
TORSDOF 5
ENDMDL
