MODEL 1
REMARK VINA RESULT:      -4.6      0.000      0.000
REMARK  5 active torsions:
REMARK  status: ('A' for Active; 'I' for Inactive)
REMARK    1  A    between atoms: N_2  and  S_1 
REMARK    2  A    between atoms: C_5  and  S_1 
REMARK    3  A    between atoms: S_8  and  C_3 
REMARK    4  A    between atoms: C_18  and  S_8 
REMARK    5  A    between atoms: C_17  and  C_18 
ROOT
ATOM      1  N   UNL d   1      59.003  -0.209  29.453  0.00  0.00    -0.208 N 
ATOM      2  C   UNL d   1      58.830   0.031  30.233  0.00  0.00     0.189 A 
ATOM      3  N   UNL d   1      59.499   0.416  30.539  0.00  0.00    -0.219 NA
ATOM      4  C   UNL d   1      59.782   0.030  29.279  0.00  0.00     0.114 A 
ATOM      5  C   UNL d   1      60.083   0.413  29.948  0.00  0.00     0.121 A 
ENDROOT
BRANCH   1   6
ATOM      6  S   UNL d   1      58.485  -0.614  28.944  0.00  0.00     0.273 S 
ATOM      7  O   UNL d   1      57.837  -0.803  28.461  0.00  0.00    -0.200 OA
ATOM      8  O   UNL d   1      57.999   0.046  28.971  0.00  0.00    -0.200 OA
BRANCH   6   9
ATOM      9  C   UNL d   1      58.964  -1.290  28.906  0.00  0.00     0.104 A 
ATOM     10  C   UNL d   1      58.704  -1.987  29.261  0.00  0.00     0.014 A 
ATOM     11  C   UNL d   1      59.188  -2.656  29.217  0.00  0.00     0.012 A 
ATOM     12  C   UNL d   1      59.914  -2.625  28.827  0.00  0.00     0.058 A 
ATOM     13  C   UNL d   1      60.168  -1.925  28.474  0.00  0.00     0.012 A 
ATOM     14 CL   UNL d   1      60.392  -3.300  28.788  0.00  0.00    -0.082 Cl
ATOM     15  C   UNL d   1      59.680  -1.253  28.519  0.00  0.00     0.014 A 
ENDBRANCH   6   9
ENDBRANCH   1   6
BRANCH   2  16
ATOM     16  S   UNL d   1      58.111  -0.095  30.635  0.00  0.00    -0.049 SA
BRANCH  16  17
ATOM     17  C   UNL d   1      58.043   0.115  31.432  0.00  0.00     0.038 C 
BRANCH  17  18
ATOM     18  C   UNL d   1      57.325   0.020  31.819  0.00  0.00     0.007 A 
ATOM     19  C   UNL d   1      57.072  -0.727  32.066  0.00  0.00     0.013 A 
ATOM     20  C   UNL d   1      56.353  -0.819  32.453  0.00  0.00     0.068 A 
ATOM     21 CL   UNL d   1      56.120  -1.570  32.690  0.00  0.00    -0.082 Cl
ATOM     22  C   UNL d   1      55.882  -0.157  32.595  0.00  0.00     0.068 A 
ATOM     23  C   UNL d   1      56.116   0.586  32.358  0.00  0.00     0.012 A 
ATOM     24 CL   UNL d   1      55.161  -0.257  32.984  0.00  0.00    -0.082 Cl
ATOM     25  C   UNL d   1      56.846   0.679  31.965  0.00  0.00     0.001 A 
ENDBRANCH  17  18
ENDBRANCH  16  17
ENDBRANCH   2  16
TORSDOF 5
ENDMDL
MODEL 2
REMARK VINA RESULT:      -2.4      2.221      5.211
REMARK  5 active torsions:
REMARK  status: ('A' for Active; 'I' for Inactive)
REMARK    1  A    between atoms: N_2  and  S_1 
REMARK    2  A    between atoms: C_5  and  S_1 
REMARK    3  A    between atoms: S_8  and  C_3 
REMARK    4  A    between atoms: C_18  and  S_8 
REMARK    5  A    between atoms: C_17  and  C_18 
ROOT
ATOM      1  N   UNL d   1      56.622  -0.655  32.822  0.00  0.00    -0.208 N 
ATOM      2  C   UNL d   1      56.850  -0.851  32.044  0.00  0.00     0.189 A 
ATOM      3  N   UNL d   1      56.469  -1.557  31.832  0.00  0.00    -0.219 NA
ATOM      4  C   UNL d   1      56.097  -1.246  33.089  0.00  0.00     0.114 A 
ATOM      5  C   UNL d   1      56.006  -1.796  32.479  0.00  0.00     0.121 A 
ENDROOT
BRANCH   1   6
ATOM      6  S   UNL d   1      56.876   0.010  33.249  0.00  0.00     0.273 S 
ATOM      7  O   UNL d   1      57.352   0.606  33.576  0.00  0.00    -0.200 OA
ATOM      8  O   UNL d   1      57.632  -0.141  32.968  0.00  0.00    -0.200 OA
BRANCH   6   9
ATOM      9  C   UNL d   1      56.120   0.178  33.543  0.00  0.00     0.104 A 
ATOM     10  C   UNL d   1      55.950   0.017  34.335  0.00  0.00     0.014 A 
ATOM     11  C   UNL d   1      55.194   0.188  34.619  0.00  0.00     0.012 A 
ATOM     12  C   UNL d   1      54.621   0.513  34.122  0.00  0.00     0.058 A 
ATOM     13  C   UNL d   1      54.796   0.673  33.333  0.00  0.00     0.012 A 
ATOM     14 CL   UNL d   1      53.865   0.682  34.416  0.00  0.00    -0.082 Cl
ATOM     15  C   UNL d   1      55.558   0.500  33.048  0.00  0.00     0.014 A 
ENDBRANCH   6   9
ENDBRANCH   1   6
BRANCH   2  16
ATOM     16  S   UNL d   1      57.371  -0.412  31.563  0.00  0.00    -0.049 SA
BRANCH  16  17
ATOM     17  C   UNL d   1      57.430  -0.584  30.756  0.00  0.00     0.038 C 
BRANCH  17  18
ATOM     18  C   UNL d   1      58.092  -0.342  30.335  0.00  0.00     0.007 A 
ATOM     19  C   UNL d   1      58.487  -0.865  29.830  0.00  0.00     0.013 A 
ATOM     20  C   UNL d   1      59.148  -0.621  29.409  0.00  0.00     0.068 A 
ATOM     21 CL   UNL d   1      59.525  -1.156  28.913  0.00  0.00    -0.082 Cl
ATOM     22  C   UNL d   1      59.419   0.153  29.493  0.00  0.00     0.068 A 
ATOM     23  C   UNL d   1      59.042   0.681  29.986  0.00  0.00     0.012 A 
ATOM     24 CL   UNL d   1      60.084   0.391  29.067  0.00  0.00    -0.082 Cl
ATOM     25  C   UNL d   1      58.370   0.433  30.413  0.00  0.00     0.001 A 
ENDBRANCH  17  18
ENDBRANCH  16  17
ENDBRANCH   2  16
TORSDOF 5
ENDMDL
