MODEL 1
REMARK VINA RESULT:      -1.8      0.000      0.000
REMARK  4 active torsions:
REMARK  status: ('A' for Active; 'I' for Inactive)
REMARK    1  A    between atoms: N_2  and  S_1 
REMARK    2  A    between atoms: C_3  and  S_1 
REMARK    3  A    between atoms: C_5  and  N_4 
REMARK    4  A    between atoms: O_16  and  C_13 
ROOT
ATOM      1  N   UNL d   1      31.123  16.764 -24.388  0.00  0.00    -0.226 N 
ATOM      2  N   UNL d   1      31.970  18.005 -23.719  0.00  0.00    -0.300 N 
ATOM      3  C   UNL d   1      31.535  16.649 -23.678  0.00  0.00     0.111 A 
ATOM      4  C   UNL d   1      31.134  17.499 -24.762  0.00  0.00     0.111 A 
ATOM      5  C   UNL d   1      31.962  17.272 -23.340  0.00  0.00     0.100 A 
ATOM      6  C   UNL d   1      31.561  18.122 -24.423  0.00  0.00     0.100 A 
ENDROOT
BRANCH   1   7
ATOM      7  S   UNL d   1      30.707  16.149 -24.714  0.00  0.00     0.272 S 
ATOM      8  O   UNL d   1      30.292  15.536 -25.038  0.00  0.00    -0.200 OA
ATOM      9  O   UNL d   1      31.373  15.901 -25.097  0.00  0.00    -0.200 OA
BRANCH   7  10
ATOM     10  C   UNL d   1      30.033  16.400 -24.327  0.00  0.00     0.106 A 
ATOM     11  C   UNL d   1      29.493  16.883 -24.721  0.00  0.00     0.043 A 
ATOM     12  C   UNL d   1      28.813  17.136 -24.330  0.00  0.00     0.141 A 
ATOM     13  F   UNL d   1      28.276  17.613 -24.714  0.00  0.00    -0.204 F 
ATOM     14  C   UNL d   1      28.680  16.904 -23.550  0.00  0.00     0.030 A 
ATOM     15  C   UNL d   1      29.215  16.430 -23.173  0.00  0.00     0.003 A 
ATOM     16  C   UNL d   1      29.895  16.177 -23.563  0.00  0.00     0.013 A 
ENDBRANCH   7  10
ENDBRANCH   1   7
BRANCH   2  17
ATOM     17  C   UNL d   1      32.391  18.627 -23.390  0.00  0.00     0.086 A 
ATOM     18  C   UNL d   1      32.767  19.172 -23.882  0.00  0.00     0.110 A 
ATOM     19  C   UNL d   1      33.192  19.800 -23.550  0.00  0.00     0.026 A 
ATOM     20  C   UNL d   1      33.241  19.885 -22.724  0.00  0.00     0.002 A 
ATOM     21  C   UNL d   1      32.862  19.337 -22.233  0.00  0.00     0.002 A 
ATOM     22  C   UNL d   1      32.437  18.708 -22.566  0.00  0.00     0.019 A 
BRANCH  18  23
ATOM     23  O   UNL d   1      32.719  19.090 -24.693  0.00  0.00    -0.327 OA
ATOM     24  C   UNL d   1      33.044  19.545 -25.097  0.00  0.00     0.181 C 
ENDBRANCH  18  23
ENDBRANCH   2  17
TORSDOF 4
ENDMDL
MODEL 2
REMARK VINA RESULT:      -0.6      1.198      1.796
REMARK  4 active torsions:
REMARK  status: ('A' for Active; 'I' for Inactive)
REMARK    1  A    between atoms: N_2  and  S_1 
REMARK    2  A    between atoms: C_3  and  S_1 
REMARK    3  A    between atoms: C_5  and  N_4 
REMARK    4  A    between atoms: O_16  and  C_13 
ROOT
ATOM      1  N   UNL d   1      32.400  17.086 -24.513  0.00  0.00    -0.226 N 
ATOM      2  N   UNL d   1      32.737  18.639 -24.090  0.00  0.00    -0.300 N 
ATOM      3  C   UNL d   1      32.668  17.258 -23.748  0.00  0.00     0.111 A 
ATOM      4  C   UNL d   1      32.300  17.690 -25.065  0.00  0.00     0.111 A 
ATOM      5  C   UNL d   1      32.839  18.039 -23.533  0.00  0.00     0.100 A 
ATOM      6  C   UNL d   1      32.471  18.471 -24.850  0.00  0.00     0.100 A 
ENDROOT
BRANCH   1   7
ATOM      7  S   UNL d   1      32.235  16.318 -24.716  0.00  0.00     0.272 S 
ATOM      8  O   UNL d   1      32.070  15.554 -24.919  0.00  0.00    -0.200 OA
ATOM      9  O   UNL d   1      33.008  16.207 -24.923  0.00  0.00    -0.200 OA
BRANCH   7  10
ATOM     10  C   UNL d   1      31.454  16.431 -24.507  0.00  0.00     0.106 A 
ATOM     11  C   UNL d   1      31.210  16.265 -23.736  0.00  0.00     0.043 A 
ATOM     12  C   UNL d   1      30.422  16.378 -23.525  0.00  0.00     0.141 A 
ATOM     13  F   UNL d   1      30.175  16.216 -22.766  0.00  0.00    -0.204 F 
ATOM     14  C   UNL d   1      29.885  16.657 -24.086  0.00  0.00     0.030 A 
ATOM     15  C   UNL d   1      30.133  16.816 -24.838  0.00  0.00     0.003 A 
ATOM     16  C   UNL d   1      30.921  16.703 -25.049  0.00  0.00     0.013 A 
ENDBRANCH   7  10
ENDBRANCH   1   7
BRANCH   2  17
ATOM     17  C   UNL d   1      32.904  19.415 -23.884  0.00  0.00     0.086 A 
ATOM     18  C   UNL d   1      32.980  19.620 -23.089  0.00  0.00     0.110 A 
ATOM     19  C   UNL d   1      33.149  20.403 -22.881  0.00  0.00     0.026 A 
ATOM     20  C   UNL d   1      33.241  20.984 -23.469  0.00  0.00     0.002 A 
ATOM     21  C   UNL d   1      33.164  20.775 -24.266  0.00  0.00     0.002 A 
ATOM     22  C   UNL d   1      32.995  19.991 -24.474  0.00  0.00     0.019 A 
BRANCH  18  23
ATOM     23  O   UNL d   1      32.890  19.051 -22.510  0.00  0.00    -0.327 OA
ATOM     24  C   UNL d   1      32.853  19.245 -21.850  0.00  0.00     0.181 C 
ENDBRANCH  18  23
ENDBRANCH   2  17
TORSDOF 4
ENDMDL
MODEL 3
REMARK VINA RESULT:      -0.1      1.839      4.032
REMARK  4 active torsions:
REMARK  status: ('A' for Active; 'I' for Inactive)
REMARK    1  A    between atoms: N_2  and  S_1 
REMARK    2  A    between atoms: C_3  and  S_1 
REMARK    3  A    between atoms: C_5  and  N_4 
REMARK    4  A    between atoms: O_16  and  C_13 
ROOT
ATOM      1  N   UNL d   1      31.352  17.783 -24.490  0.00  0.00    -0.226 N 
ATOM      2  N   UNL d   1      29.908  17.083 -24.127  0.00  0.00    -0.300 N 
ATOM      3  C   UNL d   1      30.871  17.487 -25.097  0.00  0.00     0.111 A 
ATOM      4  C   UNL d   1      31.111  17.729 -23.704  0.00  0.00     0.111 A 
ATOM      5  C   UNL d   1      30.144  17.134 -24.916  0.00  0.00     0.100 A 
ATOM      6  C   UNL d   1      30.384  17.376 -23.523  0.00  0.00     0.100 A 
ENDROOT
BRANCH   1   7
ATOM      7  S   UNL d   1      32.063  18.127 -24.675  0.00  0.00     0.272 S 
ATOM      8  O   UNL d   1      32.771  18.469 -24.859  0.00  0.00    -0.200 OA
ATOM      9  O   UNL d   1      31.675  18.781 -24.947  0.00  0.00    -0.200 OA
BRANCH   7  10
ATOM     10  C   UNL d   1      32.454  17.466 -24.400  0.00  0.00     0.106 A 
ATOM     11  C   UNL d   1      32.534  16.806 -24.889  0.00  0.00     0.043 A 
ATOM     12  C   UNL d   1      32.929  16.138 -24.611  0.00  0.00     0.141 A 
ATOM     13  F   UNL d   1      33.011  15.484 -25.089  0.00  0.00    -0.204 F 
ATOM     14  C   UNL d   1      33.241  16.137 -23.847  0.00  0.00     0.030 A 
ATOM     15  C   UNL d   1      33.158  16.788 -23.376  0.00  0.00     0.003 A 
ATOM     16  C   UNL d   1      32.763  17.455 -23.654  0.00  0.00     0.013 A 
ENDBRANCH   7  10
ENDBRANCH   1   7
BRANCH   2  17
ATOM     17  C   UNL d   1      29.190  16.735 -23.940  0.00  0.00     0.086 A 
ATOM     18  C   UNL d   1      29.176  16.033 -23.507  0.00  0.00     0.110 A 
ATOM     19  C   UNL d   1      28.451  15.682 -23.318  0.00  0.00     0.026 A 
ATOM     20  C   UNL d   1      27.737  16.032 -23.562  0.00  0.00     0.002 A 
ATOM     21  C   UNL d   1      27.755  16.736 -23.997  0.00  0.00     0.002 A 
ATOM     22  C   UNL d   1      28.481  17.088 -24.185  0.00  0.00     0.019 A 
BRANCH  18  23
ATOM     23  O   UNL d   1      29.876  15.688 -23.266  0.00  0.00    -0.327 OA
ATOM     24  C   UNL d   1      29.931  15.454 -22.620  0.00  0.00     0.181 C 
ENDBRANCH  18  23
ENDBRANCH   2  17
TORSDOF 4
ENDMDL
MODEL 4
REMARK VINA RESULT:       0.1      1.747      4.003
REMARK  4 active torsions:
REMARK  status: ('A' for Active; 'I' for Inactive)
REMARK    1  A    between atoms: N_2  and  S_1 
REMARK    2  A    between atoms: C_3  and  S_1 
REMARK    3  A    between atoms: C_5  and  N_4 
REMARK    4  A    between atoms: O_16  and  C_13 
ROOT
ATOM      1  N   UNL d   1      32.152  18.606 -24.023  0.00  0.00    -0.226 N 
ATOM      2  N   UNL d   1      31.059  17.394 -23.818  0.00  0.00    -0.300 N 
ATOM      3  C   UNL d   1      32.391  17.815 -24.098  0.00  0.00     0.111 A 
ATOM      4  C   UNL d   1      31.369  18.789 -23.846  0.00  0.00     0.111 A 
ATOM      5  C   UNL d   1      31.842  17.204 -23.995  0.00  0.00     0.100 A 
ATOM      6  C   UNL d   1      30.820  18.178 -23.743  0.00  0.00     0.100 A 
ENDROOT
BRANCH   1   7
ATOM      7  S   UNL d   1      32.696  19.199 -24.125  0.00  0.00     0.272 S 
ATOM      8  O   UNL d   1      33.237  19.790 -24.227  0.00  0.00    -0.200 OA
ATOM      9  O   UNL d   1      32.584  19.164 -24.924  0.00  0.00    -0.200 OA
BRANCH   7  10
ATOM     10  C   UNL d   1      32.809  19.234 -23.318  0.00  0.00     0.106 A 
ATOM     11  C   UNL d   1      32.603  19.919 -22.906  0.00  0.00     0.043 A 
ATOM     12  C   UNL d   1      32.717  19.955 -22.091  0.00  0.00     0.141 A 
ATOM     13  F   UNL d   1      32.516  20.629 -21.680  0.00  0.00    -0.204 F 
ATOM     14  C   UNL d   1      33.036  19.305 -21.695  0.00  0.00     0.030 A 
ATOM     15  C   UNL d   1      33.234  18.639 -22.106  0.00  0.00     0.003 A 
ATOM     16  C   UNL d   1      33.120  18.603 -22.921  0.00  0.00     0.013 A 
ENDBRANCH   7  10
ENDBRANCH   1   7
BRANCH   2  17
ATOM     17  C   UNL d   1      30.509  16.794 -23.715  0.00  0.00     0.086 A 
ATOM     18  C   UNL d   1      29.813  16.798 -24.157  0.00  0.00     0.110 A 
ATOM     19  C   UNL d   1      29.258  16.193 -24.053  0.00  0.00     0.026 A 
ATOM     20  C   UNL d   1      29.399  15.582 -23.507  0.00  0.00     0.002 A 
ATOM     21  C   UNL d   1      30.098  15.582 -23.065  0.00  0.00     0.002 A 
ATOM     22  C   UNL d   1      30.653  16.188 -23.169  0.00  0.00     0.019 A 
BRANCH  18  23
ATOM     23  O   UNL d   1      29.673  17.397 -24.695  0.00  0.00    -0.327 OA
ATOM     24  C   UNL d   1      29.071  17.414 -25.030  0.00  0.00     0.181 C 
ENDBRANCH  18  23
ENDBRANCH   2  17
TORSDOF 4
ENDMDL
MODEL 5
REMARK VINA RESULT:       0.5      1.792      2.447
REMARK  4 active torsions:
REMARK  status: ('A' for Active; 'I' for Inactive)
REMARK    1  A    between atoms: N_2  and  S_1 
REMARK    2  A    between atoms: C_3  and  S_1 
REMARK    3  A    between atoms: C_5  and  N_4 
REMARK    4  A    between atoms: O_16  and  C_13 
ROOT
ATOM      1  N   UNL d   1      29.266  17.748 -24.130  0.00  0.00    -0.226 N 
ATOM      2  N   UNL d   1      30.842  17.451 -24.493  0.00  0.00    -0.300 N 
ATOM      3  C   UNL d   1      29.835  17.738 -23.527  0.00  0.00     0.111 A 
ATOM      4  C   UNL d   1      29.485  17.610 -24.912  0.00  0.00     0.111 A 
ATOM      5  C   UNL d   1      30.629  17.589 -23.708  0.00  0.00     0.100 A 
ATOM      6  C   UNL d   1      30.279  17.460 -25.093  0.00  0.00     0.100 A 
ENDROOT
BRANCH   1   7
ATOM      7  S   UNL d   1      28.490  17.896 -23.945  0.00  0.00     0.272 S 
ATOM      8  O   UNL d   1      27.717  18.043 -23.761  0.00  0.00    -0.200 OA
ATOM      9  O   UNL d   1      28.635  18.690 -23.969  0.00  0.00    -0.200 OA
BRANCH   7  10
ATOM     10  C   UNL d   1      28.343  17.093 -23.921  0.00  0.00     0.106 A 
ATOM     11  C   UNL d   1      28.323  16.704 -23.194  0.00  0.00     0.043 A 
ATOM     12  C   UNL d   1      28.175  15.894 -23.170  0.00  0.00     0.141 A 
ATOM     13  F   UNL d   1      28.154  15.504 -22.455  0.00  0.00    -0.204 F 
ATOM     14  C   UNL d   1      28.049  15.481 -23.872  0.00  0.00     0.030 A 
ATOM     15  C   UNL d   1      28.070  15.871 -24.580  0.00  0.00     0.003 A 
ATOM     16  C   UNL d   1      28.218  16.681 -24.604  0.00  0.00     0.013 A 
ENDBRANCH   7  10
ENDBRANCH   1   7
BRANCH   2  17
ATOM     17  C   UNL d   1      31.627  17.302 -24.679  0.00  0.00     0.086 A 
ATOM     18  C   UNL d   1      32.179  17.913 -24.639  0.00  0.00     0.110 A 
ATOM     19  C   UNL d   1      32.971  17.763 -24.827  0.00  0.00     0.026 A 
ATOM     20  C   UNL d   1      33.212  17.001 -25.056  0.00  0.00     0.002 A 
ATOM     21  C   UNL d   1      32.655  16.390 -25.096  0.00  0.00     0.002 A 
ATOM     22  C   UNL d   1      31.863  16.541 -24.907  0.00  0.00     0.019 A 
BRANCH  18  23
ATOM     23  O   UNL d   1      31.944  18.662 -24.414  0.00  0.00    -0.327 OA
ATOM     24  C   UNL d   1      32.424  19.131 -24.254  0.00  0.00     0.181 C 
ENDBRANCH  18  23
ENDBRANCH   2  17
TORSDOF 4
ENDMDL
