MODEL 1
REMARK VINA RESULT:      -4.6      0.000      0.000
REMARK  1 active torsions:
REMARK  status: ('A' for Active; 'I' for Inactive)
REMARK       I    between atoms: N_2  and  C_1 
REMARK       I    between atoms: N_4  and  C_1 
REMARK    1  A    between atoms: C_5  and  N_3 
ROOT
ATOM      1  C   UNL d   1     -41.384-121.960 -52.736  0.00  0.00     0.340 C 
ATOM      2  N   UNL d   1     -41.567-122.232 -51.964  0.00  0.00    -0.254 N 
ATOM      3  N   UNL d   1     -41.927-122.762 -50.454  0.00  0.00    -0.301 N 
ATOM      4  N   UNL d   1     -41.356-122.489 -53.374  0.00  0.00    -0.253 N 
ATOM      5  O   UNL d   1     -41.228-121.150 -52.859  0.00  0.00    -0.245 OA
ATOM      6  C   UNL d   1     -41.721-123.028 -51.841  0.00  0.00     0.104 A 
ATOM      7  C   UNL d   1     -41.590-121.685 -51.337  0.00  0.00     0.104 A 
ATOM      8  C   UNL d   1     -41.770-121.951 -50.580  0.00  0.00     0.100 A 
ATOM      9  C   UNL d   1     -41.901-123.295 -51.083  0.00  0.00     0.100 A 
ATOM     10  O   UNL d   1     -41.301-123.537 -54.641  0.00  0.00    -0.300 OA
ATOM     11  C   UNL d   1     -41.174-122.210 -54.131  0.00  0.00     0.111 A 
ATOM     12  C   UNL d   1     -41.511-123.287 -53.247  0.00  0.00     0.111 A 
ATOM     13  C   UNL d   1     -41.484-123.817 -53.884  0.00  0.00     0.142 A 
ATOM     14  C   UNL d   1     -41.147-122.737 -54.763  0.00  0.00     0.142 A 
ENDROOT
BRANCH   3  15
ATOM     15  C   UNL d   1     -42.109-123.038 -49.695  0.00  0.00     0.064 A 
ATOM     16  C   UNL d   1     -42.874-123.288 -49.535  0.00  0.00     0.018 A 
ATOM     17  C   UNL d   1     -43.060-123.564 -48.778  0.00  0.00     0.001 A 
ATOM     18  C   UNL d   1     -43.827-123.817 -48.611  0.00  0.00     0.000 C 
ATOM     19  C   UNL d   1     -42.473-123.585 -48.187  0.00  0.00     0.000 A 
ATOM     20  C   UNL d   1     -41.706-123.332 -48.354  0.00  0.00     0.001 A 
ATOM     21  C   UNL d   1     -41.525-123.057 -49.113  0.00  0.00     0.018 A 
ATOM     22  C   UNL d   1     -41.124-123.352 -47.768  0.00  0.00     0.000 C 
ENDBRANCH   3  15
TORSDOF 1
ENDMDL
MODEL 2
REMARK VINA RESULT:      -3.7      1.560      4.663
REMARK  1 active torsions:
REMARK  status: ('A' for Active; 'I' for Inactive)
REMARK       I    between atoms: N_2  and  C_1 
REMARK       I    between atoms: N_4  and  C_1 
REMARK    1  A    between atoms: C_5  and  N_3 
ROOT
ATOM      1  C   UNL d   1     -41.697-122.499 -49.965  0.00  0.00     0.340 C 
ATOM      2  N   UNL d   1     -41.700-122.498 -50.804  0.00  0.00    -0.254 N 
ATOM      3  N   UNL d   1     -41.704-122.494 -52.445  0.00  0.00    -0.301 N 
ATOM      4  N   UNL d   1     -42.260-122.939 -49.543  0.00  0.00    -0.253 N 
ATOM      5  O   UNL d   1     -41.123-122.053 -49.557  0.00  0.00    -0.245 OA
ATOM      6  C   UNL d   1     -42.264-122.936 -51.209  0.00  0.00     0.104 A 
ATOM      7  C   UNL d   1     -41.127-122.050 -51.210  0.00  0.00     0.104 A 
ATOM      8  C   UNL d   1     -41.129-122.048 -52.033  0.00  0.00     0.100 A 
ATOM      9  C   UNL d   1     -42.266-122.934 -52.032  0.00  0.00     0.100 A 
ATOM     10  O   UNL d   1     -43.373-123.811 -48.703  0.00  0.00    -0.300 OA
ATOM     11  C   UNL d   1     -42.247-122.933 -48.716  0.00  0.00     0.111 A 
ATOM     12  C   UNL d   1     -42.824-123.377 -49.951  0.00  0.00     0.111 A 
ATOM     13  C   UNL d   1     -43.386-123.817 -49.530  0.00  0.00     0.142 A 
ATOM     14  C   UNL d   1     -42.806-123.370 -48.298  0.00  0.00     0.142 A 
ENDROOT
BRANCH   3  15
ATOM     15  C   UNL d   1     -41.712-122.497 -53.272  0.00  0.00     0.064 A 
ATOM     16  C   UNL d   1     -41.422-123.154 -53.671  0.00  0.00     0.018 A 
ATOM     17  C   UNL d   1     -41.429-123.161 -54.498  0.00  0.00     0.001 A 
ATOM     18  C   UNL d   1     -41.139-123.817 -54.904  0.00  0.00     0.000 C 
ATOM     19  C   UNL d   1     -41.728-122.506 -54.917  0.00  0.00     0.000 A 
ATOM     20  C   UNL d   1     -42.017-121.850 -54.511  0.00  0.00     0.001 A 
ATOM     21  C   UNL d   1     -42.008-121.847 -53.684  0.00  0.00     0.018 A 
ATOM     22  C   UNL d   1     -42.314-121.200 -54.926  0.00  0.00     0.000 C 
ENDBRANCH   3  15
TORSDOF 1
ENDMDL
MODEL 3
REMARK VINA RESULT:      -2.6      1.173      2.092
REMARK  1 active torsions:
REMARK  status: ('A' for Active; 'I' for Inactive)
REMARK       I    between atoms: N_2  and  C_1 
REMARK       I    between atoms: N_4  and  C_1 
REMARK    1  A    between atoms: C_5  and  N_3 
ROOT
ATOM      1  C   UNL d   1     -41.525-123.102 -54.246  0.00  0.00     0.340 C 
ATOM      2  N   UNL d   1     -41.658-123.090 -53.418  0.00  0.00    -0.254 N 
ATOM      3  N   UNL d   1     -41.918-123.067 -51.798  0.00  0.00    -0.301 N 
ATOM      4  N   UNL d   1     -41.789-122.478 -54.725  0.00  0.00    -0.253 N 
ATOM      5  O   UNL d   1     -41.123-123.748 -54.587  0.00  0.00    -0.245 OA
ATOM      6  C   UNL d   1     -42.053-122.455 -53.080  0.00  0.00     0.104 A 
ATOM      7  C   UNL d   1     -41.385-123.725 -52.955  0.00  0.00     0.104 A 
ATOM      8  C   UNL d   1     -41.515-123.713 -52.142  0.00  0.00     0.100 A 
ATOM      9  C   UNL d   1     -42.184-122.443 -52.268  0.00  0.00     0.100 A 
ATOM     10  O   UNL d   1     -42.313-121.242 -55.676  0.00  0.00    -0.300 OA
ATOM     11  C   UNL d   1     -41.652-122.501 -55.540  0.00  0.00     0.111 A 
ATOM     12  C   UNL d   1     -42.185-121.843 -54.383  0.00  0.00     0.111 A 
ATOM     13  C   UNL d   1     -42.450-121.219 -54.861  0.00  0.00     0.142 A 
ATOM     14  C   UNL d   1     -41.915-121.881 -56.014  0.00  0.00     0.142 A 
ENDROOT
BRANCH   3  15
ATOM     15  C   UNL d   1     -42.053-123.048 -50.982  0.00  0.00     0.064 A 
ATOM     16  C   UNL d   1     -41.532-123.441 -50.483  0.00  0.00     0.018 A 
ATOM     17  C   UNL d   1     -41.664-123.424 -49.667  0.00  0.00     0.001 A 
ATOM     18  C   UNL d   1     -41.144-123.817 -49.161  0.00  0.00     0.000 C 
ATOM     19  C   UNL d   1     -42.319-123.012 -49.359  0.00  0.00     0.000 A 
ATOM     20  C   UNL d   1     -42.838-122.620 -49.865  0.00  0.00     0.001 A 
ATOM     21  C   UNL d   1     -42.702-122.639 -50.681  0.00  0.00     0.018 A 
ATOM     22  C   UNL d   1     -43.488-122.211 -49.561  0.00  0.00     0.000 C 
ENDBRANCH   3  15
TORSDOF 1
ENDMDL
