MODEL 1
REMARK VINA RESULT:      29.7      0.000      0.000
REMARK  6 active torsions:
REMARK  status: ('A' for Active; 'I' for Inactive)
REMARK    1  A    between atoms: N_7  and  C_1 
REMARK    2  A    between atoms: C_10  and  C_3 
REMARK    3  A    between atoms: C_17  and  C_5 
REMARK    4  A    between atoms: C_12  and  N_7 
REMARK    5  A    between atoms: C_8  and  C_9 
REMARK    6  A    between atoms: C_13  and  C_17 
ROOT
ATOM      1  C   UNL d   1      46.486 -18.163  43.762  0.00  0.00     0.165 A 
ATOM      2  N   UNL d   1      46.332 -17.921  42.980  0.00  0.00    -0.208 NA
ATOM      3  C   UNL d   1      46.190 -18.483  42.388  0.00  0.00     0.164 A 
ATOM      4  N   UNL d   1      46.200 -19.289  42.574  0.00  0.00    -0.227 NA
ATOM      5  C   UNL d   1      46.494 -18.971  43.940  0.00  0.00     0.054 A 
ATOM      6  C   UNL d   1      46.353 -19.520  43.348  0.00  0.00     0.086 A 
ATOM      7  C   UNL d   1      46.363 -20.330  43.535  0.00  0.00     0.021 C 
ENDROOT
BRANCH   1   8
ATOM      8  N   UNL d   1      46.627 -17.602  44.350  0.00  0.00    -0.227 NA
BRANCH   8   9
ATOM      9  C   UNL d   1      46.212 -16.877  44.345  0.00  0.00     0.083 A 
ATOM     10  C   UNL d   1      45.518 -16.810  44.758  0.00  0.00     0.019 A 
ATOM     11  C   UNL d   1      45.105 -16.089  44.752  0.00  0.00     0.008 A 
ATOM     12  C   UNL d   1      45.407 -15.448  44.327  0.00  0.00     0.065 A 
ATOM     13  C   UNL d   1      46.108 -15.521  43.912  0.00  0.00     0.008 A 
ATOM     14  C   UNL d   1      46.519 -16.238  43.917  0.00  0.00     0.019 A 
BRANCH  12  15
ATOM     15  C   UNL d   1      44.994 -14.727  44.322  0.00  0.00     0.211 C 
ATOM     16  O   UNL d   1      45.208 -14.132  43.791  0.00  0.00    -0.644 OA
ATOM     17  O   UNL d   1      44.373 -14.602  44.843  0.00  0.00    -0.644 OA
ENDBRANCH  12  15
ENDBRANCH   8   9
ENDBRANCH   1   8
BRANCH   5  18
ATOM     18  C   UNL d   1      46.645 -19.217  44.708  0.00  0.00     0.005 C 
BRANCH  18  19
ATOM     19  C   UNL d   1      46.521 -19.990  44.938  0.00  0.00     0.000 C 
ATOM     20  C   UNL d   1      45.772 -20.327  44.945  0.00  0.00     0.000 C 
ENDBRANCH  18  19
ENDBRANCH   5  18
BRANCH   3  21
ATOM     21  C   UNL d   1      46.038 -18.239  41.615  0.00  0.00     0.036 A 
ATOM     22  C   UNL d   1      46.645 -17.933  41.154  0.00  0.00     0.003 A 
ATOM     23  C   UNL d   1      46.500 -17.687  40.381  0.00  0.00     0.000 A 
ATOM     24  C   UNL d   1      45.726 -17.752  40.065  0.00  0.00     0.000 A 
ATOM     25  C   UNL d   1      45.119 -18.058  40.527  0.00  0.00     0.000 A 
ATOM     26  C   UNL d   1      45.279 -18.304  41.309  0.00  0.00     0.003 A 
ENDBRANCH   3  21
TORSDOF 6
ENDMDL
