MODEL 1
REMARK VINA RESULT:      42.0      0.000      0.000
REMARK  4 active torsions:
REMARK  status: ('A' for Active; 'I' for Inactive)
REMARK    1  A    between atoms: C_2  and  S_1 
REMARK    2  A    between atoms: N_3  and  S_1 
REMARK    3  A    between atoms: C_10  and  N_3 
REMARK    4  A    between atoms: C_5  and  C_10 
ROOT
ATOM      1  S   UNL d   1     -50.859  25.927  33.654  0.00  0.00     0.285 S 
ATOM      2  O   UNL d   1     -50.233  25.408  33.543  0.00  0.00    -0.198 OA
ATOM      3  O   UNL d   1     -51.502  26.465  33.769  0.00  0.00    -0.198 OA
ENDROOT
BRANCH   1   4
ATOM      4  C   UNL d   1     -50.308  26.543  33.870  0.00  0.00     0.105 A 
ATOM      5  C   UNL d   1     -49.897  26.503  34.587  0.00  0.00     0.013 A 
ATOM      6  C   UNL d   1     -49.368  27.100  34.788  0.00  0.00     0.001 A 
ATOM      7  C   UNL d   1     -48.955  27.048  35.520  0.00  0.00     0.000 C 
ATOM      8  C   UNL d   1     -49.248  27.735  34.280  0.00  0.00     0.000 A 
ATOM      9  C   UNL d   1     -49.659  27.770  33.571  0.00  0.00     0.001 A 
ATOM     10  C   UNL d   1     -48.700  28.350  34.494  0.00  0.00     0.000 C 
ATOM     11  C   UNL d   1     -50.191  27.175  33.360  0.00  0.00     0.013 A 
ENDBRANCH   1   4
BRANCH   1  12
ATOM     12  N   UNL d   1     -51.403  25.317  33.440  0.00  0.00    -0.155 NA
BRANCH  12  13
ATOM     13  C   UNL d   1     -52.201  25.246  33.576  0.00  0.00     0.137 C 
BRANCH  13  14
ATOM     14  C   UNL d   1     -52.571  24.511  33.492  0.00  0.00     0.120 A 
ATOM     15  O   UNL d   1     -52.206  23.738  33.519  0.00  0.00    -0.304 OA
ATOM     16  C   UNL d   1     -52.814  23.189  33.406  0.00  0.00     0.123 A 
ATOM     17  C   UNL d   1     -53.544  23.622  33.309  0.00  0.00     0.029 A 
ATOM     18  C   UNL d   1     -53.357  24.409  33.367  0.00  0.00     0.028 A 
ENDBRANCH  13  14
ENDBRANCH  12  13
ENDBRANCH   1  12
TORSDOF 4
ENDMDL
MODEL 2
REMARK VINA RESULT:      43.6      1.500      4.407
REMARK  4 active torsions:
REMARK  status: ('A' for Active; 'I' for Inactive)
REMARK    1  A    between atoms: C_2  and  S_1 
REMARK    2  A    between atoms: N_3  and  S_1 
REMARK    3  A    between atoms: C_10  and  N_3 
REMARK    4  A    between atoms: C_5  and  C_10 
ROOT
ATOM      1  S   UNL d   1     -50.091  26.832  33.542  0.00  0.00     0.285 S 
ATOM      2  O   UNL d   1     -49.481  26.318  33.735  0.00  0.00    -0.198 OA
ATOM      3  O   UNL d   1     -50.722  27.359  33.343  0.00  0.00    -0.198 OA
ENDROOT
BRANCH   1   4
ATOM      4  C   UNL d   1     -50.628  26.170  33.482  0.00  0.00     0.105 A 
ATOM      5  C   UNL d   1     -51.444  26.300  33.423  0.00  0.00     0.013 A 
ATOM      6  C   UNL d   1     -51.955  25.658  33.365  0.00  0.00     0.001 A 
ATOM      7  C   UNL d   1     -52.783  25.801  33.306  0.00  0.00     0.000 C 
ATOM      8  C   UNL d   1     -51.659  24.891  33.366  0.00  0.00     0.000 A 
ATOM      9  C   UNL d   1     -50.849  24.770  33.424  0.00  0.00     0.001 A 
ATOM     10  C   UNL d   1     -52.192  24.231  33.306  0.00  0.00     0.000 C 
ATOM     11  C   UNL d   1     -50.328  25.407  33.482  0.00  0.00     0.013 A 
ENDBRANCH   1   4
BRANCH   1  12
ATOM     12  N   UNL d   1     -49.559  27.486  33.602  0.00  0.00    -0.155 NA
BRANCH  12  13
ATOM     13  C   UNL d   1     -49.544  28.111  34.120  0.00  0.00     0.137 C 
BRANCH  13  14
ATOM     14  C   UNL d   1     -48.851  28.284  34.539  0.00  0.00     0.120 A 
ATOM     15  O   UNL d   1     -48.214  27.751  34.735  0.00  0.00    -0.304 OA
ATOM     16  C   UNL d   1     -47.658  28.195  35.155  0.00  0.00     0.123 A 
ATOM     17  C   UNL d   1     -47.952  28.995  35.215  0.00  0.00     0.029 A 
ATOM     18  C   UNL d   1     -48.668  29.008  34.834  0.00  0.00     0.028 A 
ENDBRANCH  13  14
ENDBRANCH  12  13
ENDBRANCH   1  12
TORSDOF 4
ENDMDL
