MODEL 1
REMARK VINA RESULT:      -5.7      0.000      0.000
REMARK  4 active torsions:
REMARK  status: ('A' for Active; 'I' for Inactive)
REMARK    1  A    between atoms: C_2  and  S_1 
REMARK    2  A    between atoms: C_4  and  S_1 
REMARK    3  A    between atoms: C_3  and  C_2 
REMARK    4  A    between atoms: C_8  and  C_3 
ROOT
ATOM      1  S   UNL d   1      57.919   0.489  30.711  0.00  0.00     0.214 S 
ATOM      2  O   UNL d   1      58.464   0.652  31.307  0.00  0.00    -0.217 OA
ATOM      3  O   UNL d   1      57.379   0.328  30.131  0.00  0.00    -0.217 OA
ENDROOT
BRANCH   1   4
ATOM      4  C   UNL d   1      57.338   0.444  31.281  0.00  0.00     0.141 C 
BRANCH   4   5
ATOM      5  C   UNL d   1      57.051  -0.281  31.511  0.00  0.00     0.207 C 
ATOM      6  O   UNL d   1      57.318  -0.920  31.106  0.00  0.00    -0.286 OA
BRANCH   5   7
ATOM      7  C   UNL d   1      56.512  -0.350  32.132  0.00  0.00     0.040 A 
ATOM      8  C   UNL d   1      56.254  -1.099  32.364  0.00  0.00     0.003 A 
ATOM      9  C   UNL d   1      55.715  -1.169  32.984  0.00  0.00     0.000 A 
ATOM     10  C   UNL d   1      55.425  -0.522  33.380  0.00  0.00     0.000 A 
ATOM     11  C   UNL d   1      55.683   0.221  33.148  0.00  0.00     0.000 A 
ATOM     12  C   UNL d   1      56.223   0.290  32.527  0.00  0.00     0.003 A 
ENDBRANCH   5   7
ENDBRANCH   4   5
ENDBRANCH   1   4
BRANCH   1  13
ATOM     13  C   UNL d   1      58.506   0.536  30.158  0.00  0.00     0.088 A 
ATOM     14  C   UNL d   1      58.311   0.583  29.362  0.00  0.00     0.011 A 
ATOM     15  C   UNL d   1      58.890   0.633  28.771  0.00  0.00     0.001 A 
ATOM     16  C   UNL d   1      59.699   0.633  29.021  0.00  0.00     0.000 A 
ATOM     17  C   UNL d   1      59.879   0.586  29.800  0.00  0.00     0.001 A 
ATOM     18  C   UNL d   1      60.319   0.682  28.456  0.00  0.00     0.000 C 
ATOM     19  C   UNL d   1      59.289   0.537  30.378  0.00  0.00     0.011 A 
ENDBRANCH   1  13
TORSDOF 4
ENDMDL
MODEL 2
REMARK VINA RESULT:      -5.5      0.824      4.276
REMARK  4 active torsions:
REMARK  status: ('A' for Active; 'I' for Inactive)
REMARK    1  A    between atoms: C_2  and  S_1 
REMARK    2  A    between atoms: C_4  and  S_1 
REMARK    3  A    between atoms: C_3  and  C_2 
REMARK    4  A    between atoms: C_8  and  C_3 
ROOT
ATOM      1  S   UNL d   1      57.187  -0.167  31.680  0.00  0.00     0.214 S 
ATOM      2  O   UNL d   1      57.588   0.480  31.997  0.00  0.00    -0.217 OA
ATOM      3  O   UNL d   1      56.800  -0.802  31.364  0.00  0.00    -0.217 OA
ENDROOT
BRANCH   1   4
ATOM      4  C   UNL d   1      57.767  -0.222  31.110  0.00  0.00     0.141 C 
BRANCH   4   5
ATOM      5  C   UNL d   1      57.666   0.149  30.393  0.00  0.00     0.207 C 
ATOM      6  O   UNL d   1      57.025   0.624  30.319  0.00  0.00    -0.286 OA
BRANCH   5   7
ATOM      7  C   UNL d   1      58.202   0.037  29.775  0.00  0.00     0.040 A 
ATOM      8  C   UNL d   1      58.417   0.680  29.304  0.00  0.00     0.003 A 
ATOM      9  C   UNL d   1      58.953   0.570  28.687  0.00  0.00     0.000 A 
ATOM     10  C   UNL d   1      59.280  -0.154  28.523  0.00  0.00     0.000 A 
ATOM     11  C   UNL d   1      59.065  -0.791  28.992  0.00  0.00     0.000 A 
ATOM     12  C   UNL d   1      58.529  -0.681  29.610  0.00  0.00     0.003 A 
ENDBRANCH   5   7
ENDBRANCH   4   5
ENDBRANCH   1   4
BRANCH   1  13
ATOM     13  C   UNL d   1      56.621  -0.098  32.252  0.00  0.00     0.088 A 
ATOM     14  C   UNL d   1      56.241  -0.771  32.529  0.00  0.00     0.011 A 
ATOM     15  C   UNL d   1      55.656  -0.734  33.115  0.00  0.00     0.001 A 
ATOM     16  C   UNL d   1      55.463   0.031  33.421  0.00  0.00     0.000 A 
ATOM     17  C   UNL d   1      55.839   0.681  33.144  0.00  0.00     0.001 A 
ATOM     18  C   UNL d   1      54.875   0.116  34.017  0.00  0.00     0.000 C 
ATOM     19  C   UNL d   1      56.421   0.628  32.559  0.00  0.00     0.011 A 
ENDBRANCH   1  13
TORSDOF 4
ENDMDL
