MODEL 1
REMARK VINA RESULT:      -8.4      0.000      0.000
REMARK  5 active torsions:
REMARK  status: ('A' for Active; 'I' for Inactive)
REMARK    1  A    between atoms: C_7  and  C_4 
REMARK    2  A    between atoms: O_9  and  C_7 
REMARK    3  A    between atoms: O_15  and  C_8 
REMARK    4  A    between atoms: C_17  and  O_9 
REMARK    5  A    between atoms: O_16  and  C_11 
ROOT
ATOM      1  C   UNL d   1      52.672  32.672  52.973  0.00  0.00     0.228 A 
ATOM      2  C   UNL d   1      52.972  33.181  53.551  0.00  0.00     0.070 A 
ATOM      3  S   UNL d   1      52.851  31.862  53.004  0.00  0.00    -0.040 SA
ATOM      4  C   UNL d   1      53.331  31.568  53.618  0.00  0.00     0.096 A 
ATOM      5  C   UNL d   1      53.447  32.889  54.160  0.00  0.00     0.006 A 
ATOM      6  C   UNL d   1      53.627  32.087  54.195  0.00  0.00     0.012 A 
ATOM      7  C   UNL d   1      52.788  33.987  53.511  0.00  0.00     0.120 A 
ATOM      8  O   UNL d   1      52.197  32.964  52.365  0.00  0.00    -0.279 OA
ATOM      9  C   UNL d   1      53.083  34.498  54.084  0.00  0.00     0.116 A 
ATOM     10  C   UNL d   1      53.743  33.401  54.734  0.00  0.00     0.002 A 
ATOM     11  C   UNL d   1      53.559  34.206  54.692  0.00  0.00     0.026 A 
ENDROOT
BRANCH   4  12
ATOM     12  C   UNL d   1      53.505  30.764  53.645  0.00  0.00     0.306 C 
ATOM     13  O   UNL d   1      54.133  30.470  53.199  0.00  0.00    -0.258 OA
BRANCH  12  14
ATOM     14  O   UNL d   1      53.058  30.256  54.114  0.00  0.00    -0.273 OA
BRANCH  14  15
ATOM     15  C   UNL d   1      53.148  29.439  54.041  0.00  0.00     0.103 C 
ATOM     16  C   UNL d   1      52.827  29.046  53.392  0.00  0.00     0.027 C 
ATOM     17  C   UNL d   1      53.559  29.016  54.620  0.00  0.00     0.027 C 
ENDBRANCH  14  15
ENDBRANCH  12  14
ENDBRANCH   4  12
BRANCH   7  18
ATOM     18  O   UNL d   1      52.313  34.278  52.903  0.00  0.00    -0.326 OA
ATOM     19  C   UNL d   1      51.550  34.560  53.074  0.00  0.00     0.181 C 
ENDBRANCH   7  18
BRANCH   9  20
ATOM     20  O   UNL d   1      52.904  35.304  54.052  0.00  0.00    -0.326 OA
ATOM     21  C   UNL d   1      53.232  35.822  54.601  0.00  0.00     0.181 C 
ENDBRANCH   9  20
TORSDOF 5
ENDMDL
MODEL 2
REMARK VINA RESULT:      -7.8      1.539      3.718
REMARK  5 active torsions:
REMARK  status: ('A' for Active; 'I' for Inactive)
REMARK    1  A    between atoms: C_7  and  C_4 
REMARK    2  A    between atoms: O_9  and  C_7 
REMARK    3  A    between atoms: O_15  and  C_8 
REMARK    4  A    between atoms: C_17  and  O_9 
REMARK    5  A    between atoms: O_16  and  C_11 
ROOT
ATOM      1  C   UNL d   1      52.563  32.859  52.962  0.00  0.00     0.228 A 
ATOM      2  C   UNL d   1      52.952  33.310  53.535  0.00  0.00     0.070 A 
ATOM      3  S   UNL d   1      51.883  33.160  52.592  0.00  0.00    -0.040 SA
ATOM      4  C   UNL d   1      51.598  33.914  52.802  0.00  0.00     0.096 A 
ATOM      5  C   UNL d   1      52.670  34.058  53.743  0.00  0.00     0.006 A 
ATOM      6  C   UNL d   1      51.996  34.360  53.379  0.00  0.00     0.012 A 
ATOM      7  C   UNL d   1      53.628  33.001  53.898  0.00  0.00     0.120 A 
ATOM      8  O   UNL d   1      52.845  32.112  52.755  0.00  0.00    -0.279 OA
ATOM      9  C   UNL d   1      54.020  33.445  54.469  0.00  0.00     0.116 A 
ATOM     10  C   UNL d   1      53.062  34.503  54.314  0.00  0.00     0.002 A 
ATOM     11  C   UNL d   1      53.738  34.193  54.676  0.00  0.00     0.026 A 
ENDROOT
BRANCH   4  12
ATOM     12  C   UNL d   1      50.924  34.210  52.433  0.00  0.00     0.306 C 
ATOM     13  O   UNL d   1      50.980  34.511  51.668  0.00  0.00    -0.258 OA
BRANCH  12  14
ATOM     14  O   UNL d   1      50.199  34.204  52.823  0.00  0.00    -0.273 OA
BRANCH  14  15
ATOM     15  C   UNL d   1      49.555  34.611  52.506  0.00  0.00     0.103 C 
ATOM     16  C   UNL d   1      49.261  34.404  51.765  0.00  0.00     0.027 C 
ATOM     17  C   UNL d   1      49.207  35.228  52.933  0.00  0.00     0.027 C 
ENDBRANCH  14  15
ENDBRANCH  12  14
ENDBRANCH   4  12
BRANCH   7  18
ATOM     18  O   UNL d   1      53.910  32.254  53.691  0.00  0.00    -0.326 OA
ATOM     19  C   UNL d   1      53.841  31.623  54.227  0.00  0.00     0.181 C 
ENDBRANCH   7  18
BRANCH   9  20
ATOM     20  O   UNL d   1      54.696  33.144  54.836  0.00  0.00    -0.326 OA
ATOM     21  C   UNL d   1      55.199  33.647  55.250  0.00  0.00     0.181 C 
ENDBRANCH   9  20
TORSDOF 5
ENDMDL
MODEL 3
REMARK VINA RESULT:      -6.0      0.998      4.101
REMARK  5 active torsions:
REMARK  status: ('A' for Active; 'I' for Inactive)
REMARK    1  A    between atoms: C_7  and  C_4 
REMARK    2  A    between atoms: O_9  and  C_7 
REMARK    3  A    between atoms: O_15  and  C_8 
REMARK    4  A    between atoms: C_17  and  O_9 
REMARK    5  A    between atoms: O_16  and  C_11 
ROOT
ATOM      1  C   UNL d   1      53.015  31.506  52.958  0.00  0.00     0.228 A 
ATOM      2  C   UNL d   1      53.204  31.046  53.618  0.00  0.00     0.070 A 
ATOM      3  S   UNL d   1      53.085  32.333  52.999  0.00  0.00    -0.040 SA
ATOM      4  C   UNL d   1      53.346  32.691  53.704  0.00  0.00     0.096 A 
ATOM      5  C   UNL d   1      53.462  31.401  54.316  0.00  0.00     0.006 A 
ATOM      6  C   UNL d   1      53.533  32.219  54.362  0.00  0.00     0.012 A 
ATOM      7  C   UNL d   1      53.131  30.223  53.567  0.00  0.00     0.120 A 
ATOM      8  O   UNL d   1      52.757  31.151  52.259  0.00  0.00    -0.279 OA
ATOM      9  C   UNL d   1      53.318  29.759  54.220  0.00  0.00     0.116 A 
ATOM     10  C   UNL d   1      53.649  30.936  54.971  0.00  0.00     0.002 A 
ATOM     11  C   UNL d   1      53.575  30.114  54.919  0.00  0.00     0.026 A 
ENDROOT
BRANCH   4  12
ATOM     12  C   UNL d   1      53.414  33.511  53.741  0.00  0.00     0.306 C 
ATOM     13  O   UNL d   1      54.105  33.872  53.474  0.00  0.00    -0.258 OA
BRANCH  12  14
ATOM     14  O   UNL d   1      52.798  33.967  54.040  0.00  0.00    -0.273 OA
BRANCH  14  15
ATOM     15  C   UNL d   1      52.844  34.791  54.018  0.00  0.00     0.103 C 
ATOM     16  C   UNL d   1      52.606  35.198  53.343  0.00  0.00     0.027 C 
ATOM     17  C   UNL d   1      53.130  35.206  54.673  0.00  0.00     0.027 C 
ENDBRANCH  14  15
ENDBRANCH  12  14
ENDBRANCH   4  12
BRANCH   7  18
ATOM     18  O   UNL d   1      52.873  29.868  52.868  0.00  0.00    -0.326 OA
ATOM     19  C   UNL d   1      52.187  29.399  52.872  0.00  0.00     0.181 C 
ENDBRANCH   7  18
BRANCH   9  20
ATOM     20  O   UNL d   1      53.247  28.936  54.177  0.00  0.00    -0.326 OA
ATOM     21  C   UNL d   1      53.489  28.469  54.810  0.00  0.00     0.181 C 
ENDBRANCH   9  20
TORSDOF 5
ENDMDL
