MODEL 1
REMARK VINA RESULT:      -5.7      0.000      0.000
REMARK  1 active torsions:
REMARK  status: ('A' for Active; 'I' for Inactive)
REMARK    1  A    between atoms: C_7  and  C_1 
ROOT
ATOM      1  C   UNL d   1     -41.640-122.484 -54.141  0.00  0.00     0.102 A 
ATOM      2  C   UNL d   1     -41.534-123.288 -54.099  0.00  0.00     0.303 A 
ATOM      3  C   UNL d   1     -41.621-122.029 -53.450  0.00  0.00     0.011 A 
ATOM      4  O   UNL d   1     -41.407-123.651 -53.365  0.00  0.00    -0.273 OA
ATOM      5  C   UNL d   1     -41.389-123.195 -52.677  0.00  0.00     0.106 A 
ATOM      6  C   UNL d   1     -41.495-122.391 -52.718  0.00  0.00     0.023 A 
ATOM      7  C   UNL d   1     -41.262-123.557 -51.942  0.00  0.00     0.067 A 
ATOM      8  O   UNL d   1     -41.552-123.744 -54.784  0.00  0.00    -0.259 OA
ATOM      9  C   UNL d   1     -41.476-121.935 -52.027  0.00  0.00     0.005 A 
ATOM     10  C   UNL d   1     -41.243-123.102 -51.250  0.00  0.00     0.198 A 
ATOM     11  C   UNL d   1     -41.349-122.298 -51.292  0.00  0.00     0.042 A 
ATOM     12  O   UNL d   1     -41.123-123.379 -50.481  0.00  0.00    -0.286 OA
ENDROOT
BRANCH   1  13
ATOM     13  C   UNL d   1     -41.766-122.122 -54.868  0.00  0.00     0.201 C 
ATOM     14  O   UNL d   1     -41.124-121.940 -55.359  0.00  0.00    -0.286 OA
ATOM     15  C   UNL d   1     -42.514-121.940 -55.110  0.00  0.00     0.045 C 
ENDBRANCH   1  13
TORSDOF 1
ENDMDL
MODEL 2
REMARK VINA RESULT:      -4.9      0.964      3.427
REMARK  1 active torsions:
REMARK  status: ('A' for Active; 'I' for Inactive)
REMARK    1  A    between atoms: C_7  and  C_1 
ROOT
ATOM      1  C   UNL d   1     -41.701-123.215 -51.371  0.00  0.00     0.102 A 
ATOM      2  C   UNL d   1     -41.830-122.419 -51.472  0.00  0.00     0.303 A 
ATOM      3  C   UNL d   1     -41.490-123.685 -52.019  0.00  0.00     0.011 A 
ATOM      4  O   UNL d   1     -41.751-122.081 -52.224  0.00  0.00    -0.273 OA
ATOM      5  C   UNL d   1     -41.541-122.551 -52.870  0.00  0.00     0.106 A 
ATOM      6  C   UNL d   1     -41.412-123.346 -52.768  0.00  0.00     0.023 A 
ATOM      7  C   UNL d   1     -41.463-122.213 -53.622  0.00  0.00     0.067 A 
ATOM      8  O   UNL d   1     -42.039-121.950 -50.831  0.00  0.00    -0.259 OA
ATOM      9  C   UNL d   1     -41.201-123.817 -53.416  0.00  0.00     0.005 A 
ATOM     10  C   UNL d   1     -41.252-122.683 -54.271  0.00  0.00     0.198 A 
ATOM     11  C   UNL d   1     -41.123-123.478 -54.169  0.00  0.00     0.042 A 
ATOM     12  O   UNL d   1     -41.152-122.430 -55.052  0.00  0.00    -0.286 OA
ENDROOT
BRANCH   1  13
ATOM     13  C   UNL d   1     -41.778-123.554 -50.625  0.00  0.00     0.201 C 
ATOM     14  O   UNL d   1     -42.529-123.719 -50.320  0.00  0.00    -0.286 OA
ATOM     15  C   UNL d   1     -41.123-123.728 -50.186  0.00  0.00     0.045 C 
ENDBRANCH   1  13
TORSDOF 1
ENDMDL
MODEL 3
REMARK VINA RESULT:      -3.8      1.357      2.221
REMARK  1 active torsions:
REMARK  status: ('A' for Active; 'I' for Inactive)
REMARK    1  A    between atoms: C_7  and  C_1 
ROOT
ATOM      1  C   UNL d   1     -41.419-122.350 -52.425  0.00  0.00     0.102 A 
ATOM      2  C   UNL d   1     -41.247-121.671 -52.014  0.00  0.00     0.303 A 
ATOM      3  C   UNL d   1     -41.531-123.063 -52.018  0.00  0.00     0.011 A 
ATOM      4  O   UNL d   1     -41.184-121.693 -51.189  0.00  0.00    -0.273 OA
ATOM      5  C   UNL d   1     -41.297-122.404 -50.784  0.00  0.00     0.106 A 
ATOM      6  C   UNL d   1     -41.469-123.083 -51.195  0.00  0.00     0.023 A 
ATOM      7  C   UNL d   1     -41.234-122.426 -49.958  0.00  0.00     0.067 A 
ATOM      8  O   UNL d   1     -41.135-120.963 -52.416  0.00  0.00    -0.259 OA
ATOM      9  C   UNL d   1     -41.581-123.795 -50.787  0.00  0.00     0.005 A 
ATOM     10  C   UNL d   1     -41.346-123.139 -49.550  0.00  0.00     0.198 A 
ATOM     11  C   UNL d   1     -41.518-123.817 -49.961  0.00  0.00     0.042 A 
ATOM     12  O   UNL d   1     -41.303-123.250 -48.732  0.00  0.00    -0.286 OA
ENDROOT
BRANCH   1  13
ATOM     13  C   UNL d   1     -41.482-122.332 -53.245  0.00  0.00     0.201 C 
ATOM     14  O   UNL d   1     -41.914-121.731 -53.616  0.00  0.00    -0.286 OA
ATOM     15  C   UNL d   1     -41.123-122.899 -53.695  0.00  0.00     0.045 C 
ENDBRANCH   1  13
TORSDOF 1
ENDMDL
MODEL 4
REMARK VINA RESULT:      -3.8      2.113      4.628
REMARK  1 active torsions:
REMARK  status: ('A' for Active; 'I' for Inactive)
REMARK    1  A    between atoms: C_7  and  C_1 
ROOT
ATOM      1  C   UNL d   1     -42.239-123.251 -48.989  0.00  0.00     0.102 A 
ATOM      2  C   UNL d   1     -42.558-122.531 -49.188  0.00  0.00     0.303 A 
ATOM      3  C   UNL d   1     -41.798-123.675 -49.547  0.00  0.00     0.011 A 
ATOM      4  O   UNL d   1     -42.441-122.223 -49.948  0.00  0.00    -0.273 OA
ATOM      5  C   UNL d   1     -42.001-122.647 -50.503  0.00  0.00     0.106 A 
ATOM      6  C   UNL d   1     -41.682-123.367 -50.304  0.00  0.00     0.023 A 
ATOM      7  C   UNL d   1     -41.884-122.339 -51.263  0.00  0.00     0.067 A 
ATOM      8  O   UNL d   1     -42.997-122.108 -48.636  0.00  0.00    -0.259 OA
ATOM      9  C   UNL d   1     -41.240-123.791 -50.862  0.00  0.00     0.005 A 
ATOM     10  C   UNL d   1     -41.442-122.763 -51.822  0.00  0.00     0.198 A 
ATOM     11  C   UNL d   1     -41.123-123.483 -51.623  0.00  0.00     0.042 A 
ATOM     12  O   UNL d   1     -41.277-122.532 -52.598  0.00  0.00    -0.286 OA
ENDROOT
BRANCH   1  13
ATOM     13  C   UNL d   1     -42.353-123.560 -48.236  0.00  0.00     0.201 C 
ATOM     14  O   UNL d   1     -43.105-123.817 -48.001  0.00  0.00    -0.286 OA
ATOM     15  C   UNL d   1     -41.735-123.615 -47.719  0.00  0.00     0.045 C 
ENDBRANCH   1  13
TORSDOF 1
ENDMDL
MODEL 5
REMARK VINA RESULT:      -2.9      1.086      3.342
REMARK  1 active torsions:
REMARK  status: ('A' for Active; 'I' for Inactive)
REMARK    1  A    between atoms: C_7  and  C_1 
ROOT
ATOM      1  C   UNL d   1     -41.525-122.539 -52.403  0.00  0.00     0.102 A 
ATOM      2  C   UNL d   1     -42.092-121.959 -52.422  0.00  0.00     0.303 A 
ATOM      3  C   UNL d   1     -41.215-122.837 -53.111  0.00  0.00     0.011 A 
ATOM      4  O   UNL d   1     -42.360-121.666 -53.149  0.00  0.00    -0.273 OA
ATOM      5  C   UNL d   1     -42.050-121.964 -53.854  0.00  0.00     0.106 A 
ATOM      6  C   UNL d   1     -41.483-122.545 -53.835  0.00  0.00     0.023 A 
ATOM      7  C   UNL d   1     -42.318-121.672 -54.582  0.00  0.00     0.067 A 
ATOM      8  O   UNL d   1     -42.402-121.661 -51.721  0.00  0.00    -0.259 OA
ATOM      9  C   UNL d   1     -41.173-122.843 -54.544  0.00  0.00     0.005 A 
ATOM     10  C   UNL d   1     -42.008-121.970 -55.291  0.00  0.00     0.198 A 
ATOM     11  C   UNL d   1     -41.441-122.550 -55.272  0.00  0.00     0.042 A 
ATOM     12  O   UNL d   1     -42.217-121.737 -56.056  0.00  0.00    -0.286 OA
ENDROOT
BRANCH   1  13
ATOM     13  C   UNL d   1     -41.257-122.832 -51.683  0.00  0.00     0.201 C 
ATOM     14  O   UNL d   1     -41.123-122.316 -51.049  0.00  0.00    -0.286 OA
ATOM     15  C   UNL d   1     -41.122-123.622 -51.587  0.00  0.00     0.045 C 
ENDBRANCH   1  13
TORSDOF 1
ENDMDL
