MODEL 1
REMARK VINA RESULT:      -4.3      0.000      0.000
REMARK  8 active torsions:
REMARK  status: ('A' for Active; 'I' for Inactive)
REMARK    1  A    between atoms: C_6  and  C_1 
REMARK    2  A    between atoms: C_8  and  C_2 
REMARK    3  A    between atoms: S_10  and  C_3 
REMARK    4  A    between atoms: C_15  and  C_4 
REMARK       I    between atoms: N_9  and  C_6 
REMARK    5  A    between atoms: C_19  and  N_9 
REMARK    6  A    between atoms: C_18  and  S_10 
REMARK    7  A    between atoms: C_12  and  C_18 
REMARK       I    between atoms: N_14  and  C_12 
REMARK    8  A    between atoms: C_21  and  N_14 
ROOT
ATOM      1  C   UNL d   1      52.104  33.451  53.197  0.00  0.00     0.076 A 
ATOM      2  C   UNL d   1      53.339  33.117  53.816  0.00  0.00     0.045 A 
ATOM      3  C   UNL d   1      53.267  32.332  53.536  0.00  0.00     0.112 A 
ATOM      4  C   UNL d   1      52.756  33.668  53.643  0.00  0.00     0.010 A 
ATOM      5  C   UNL d   1      52.032  32.667  52.917  0.00  0.00     0.087 A 
ATOM      6  N   UNL d   1      52.614  32.112  53.087  0.00  0.00    -0.239 NA
ATOM      7  C   UNL d   1      51.354  32.435  52.450  0.00  0.00     0.021 C 
ENDROOT
BRANCH   3   8
ATOM      8  S   UNL d   1      53.871  31.753  53.713  0.00  0.00    -0.062 SA
BRANCH   8   9
ATOM      9  C   UNL d   1      53.686  30.925  53.693  0.00  0.00     0.099 C 
BRANCH   9  10
ATOM     10  C   UNL d   1      54.222  30.379  53.356  0.00  0.00     0.286 C 
ATOM     11  N   UNL d   1      54.172  29.583  53.547  0.00  0.00    -0.208 NA
ATOM     12  O   UNL d   1      54.810  30.644  52.824  0.00  0.00    -0.265 OA
BRANCH  11  13
ATOM     13  C   UNL d   1      53.598  29.324  54.067  0.00  0.00     0.085 A 
ATOM     14  C   UNL d   1      52.849  29.205  53.793  0.00  0.00     0.019 A 
ATOM     15  C   UNL d   1      52.268  28.944  54.314  0.00  0.00     0.002 A 
ATOM     16  C   UNL d   1      52.449  28.805  55.108  0.00  0.00     0.000 A 
ATOM     17  C   UNL d   1      53.209  28.930  55.367  0.00  0.00     0.002 A 
ATOM     18  C   UNL d   1      53.783  29.189  54.847  0.00  0.00     0.019 A 
ENDBRANCH  11  13
ENDBRANCH   9  10
ENDBRANCH   8   9
ENDBRANCH   3   8
BRANCH   2  19
ATOM     19  C   UNL d   1      54.017  33.348  54.283  0.00  0.00     0.124 C 
ATOM     20  N   UNL d   1      54.208  32.929  54.995  0.00  0.00    -0.146 N 
ENDBRANCH   2  19
BRANCH   4  21
ATOM     21  C   UNL d   1      52.828  34.451  53.923  0.00  0.00     0.003 A 
ATOM     22  C   UNL d   1      52.559  34.649  54.675  0.00  0.00     0.021 A 
ATOM     23  C   UNL d   1      52.631  35.432  54.954  0.00  0.00     0.099 A 
ATOM     24  N   UNL d   1      52.971  36.015  54.482  0.00  0.00    -0.242 NA
ATOM     25  C   UNL d   1      53.240  35.814  53.729  0.00  0.00     0.099 A 
ATOM     26  C   UNL d   1      53.168  35.031  53.449  0.00  0.00     0.021 A 
ENDBRANCH   4  21
BRANCH   1  27
ATOM     27  C   UNL d   1      51.500  34.030  53.020  0.00  0.00     0.281 C 
ATOM     28  N   UNL d   1      50.692  33.881  53.232  0.00  0.00    -0.208 NA
ATOM     29  O   UNL d   1      51.717  34.753  52.631  0.00  0.00    -0.265 OA
BRANCH  28  30
ATOM     30  C   UNL d   1      50.119  34.417  53.071  0.00  0.00     0.085 A 
ATOM     31  C   UNL d   1      49.779  34.850  53.658  0.00  0.00     0.019 A 
ATOM     32  C   UNL d   1      49.182  35.411  53.509  0.00  0.00     0.002 A 
ATOM     33  C   UNL d   1      48.934  35.524  52.738  0.00  0.00     0.000 A 
ATOM     34  C   UNL d   1      49.279  35.083  52.135  0.00  0.00     0.002 A 
ATOM     35  C   UNL d   1      49.871  34.528  52.286  0.00  0.00     0.019 A 
ENDBRANCH  28  30
ENDBRANCH   1  27
TORSDOF 8
ENDMDL
MODEL 2
REMARK VINA RESULT:      -4.3      1.274      5.157
REMARK  8 active torsions:
REMARK  status: ('A' for Active; 'I' for Inactive)
REMARK    1  A    between atoms: C_6  and  C_1 
REMARK    2  A    between atoms: C_8  and  C_2 
REMARK    3  A    between atoms: S_10  and  C_3 
REMARK    4  A    between atoms: C_15  and  C_4 
REMARK       I    between atoms: N_9  and  C_6 
REMARK    5  A    between atoms: C_19  and  N_9 
REMARK    6  A    between atoms: C_18  and  S_10 
REMARK    7  A    between atoms: C_12  and  C_18 
REMARK       I    between atoms: N_14  and  C_12 
REMARK    8  A    between atoms: C_21  and  N_14 
ROOT
ATOM      1  C   UNL d   1      52.269  32.404  53.401  0.00  0.00     0.076 A 
ATOM      2  C   UNL d   1      52.241  33.811  53.599  0.00  0.00     0.045 A 
ATOM      3  C   UNL d   1      51.452  33.834  53.324  0.00  0.00     0.112 A 
ATOM      4  C   UNL d   1      52.641  33.096  53.634  0.00  0.00     0.010 A 
ATOM      5  C   UNL d   1      51.480  32.427  53.126  0.00  0.00     0.087 A 
ATOM      6  N   UNL d   1      51.076  33.141  53.089  0.00  0.00    -0.239 NA
ATOM      7  C   UNL d   1      51.087  31.708  52.881  0.00  0.00     0.021 C 
ENDROOT
BRANCH   3   8
ATOM      8  S   UNL d   1      51.029  34.576  53.284  0.00  0.00    -0.062 SA
BRANCH   8   9
ATOM      9  C   UNL d   1      50.228  34.597  53.005  0.00  0.00     0.099 C 
BRANCH   9  10
ATOM     10  C   UNL d   1      49.706  35.200  53.256  0.00  0.00     0.286 C 
ATOM     11  N   UNL d   1      49.060  35.404  52.793  0.00  0.00    -0.208 NA
ATOM     12  O   UNL d   1      49.843  35.597  53.979  0.00  0.00    -0.265 OA
BRANCH  11  13
ATOM     13  C   UNL d   1      48.927  35.016  52.086  0.00  0.00     0.085 A 
ATOM     14  C   UNL d   1      49.362  35.224  51.439  0.00  0.00     0.019 A 
ATOM     15  C   UNL d   1      49.231  34.836  50.727  0.00  0.00     0.002 A 
ATOM     16  C   UNL d   1      48.660  34.241  50.672  0.00  0.00     0.000 A 
ATOM     17  C   UNL d   1      48.231  34.045  51.333  0.00  0.00     0.002 A 
ATOM     18  C   UNL d   1      48.364  34.432  52.040  0.00  0.00     0.019 A 
ENDBRANCH  11  13
ENDBRANCH   9  10
ENDBRANCH   8   9
ENDBRANCH   3   8
BRANCH   2  19
ATOM     19  C   UNL d   1      52.634  34.530  53.844  0.00  0.00     0.124 C 
ATOM     20  N   UNL d   1      52.764  35.156  53.286  0.00  0.00    -0.146 N 
ENDBRANCH   2  19
BRANCH   4  21
ATOM     21  C   UNL d   1      53.429  33.073  53.909  0.00  0.00     0.003 A 
ATOM     22  C   UNL d   1      53.587  33.099  54.715  0.00  0.00     0.021 A 
ATOM     23  C   UNL d   1      54.376  33.076  54.990  0.00  0.00     0.099 A 
ATOM     24  N   UNL d   1      55.003  33.028  54.458  0.00  0.00    -0.242 NA
ATOM     25  C   UNL d   1      54.841  33.002  53.649  0.00  0.00     0.099 A 
ATOM     26  C   UNL d   1      54.053  33.024  53.375  0.00  0.00     0.021 A 
ENDBRANCH   4  21
BRANCH   1  27
ATOM     27  C   UNL d   1      52.691  31.662  53.440  0.00  0.00     0.281 C 
ATOM     28  N   UNL d   1      52.382  31.019  53.901  0.00  0.00    -0.208 NA
ATOM     29  O   UNL d   1      53.421  31.574  53.015  0.00  0.00    -0.265 OA
BRANCH  28  30
ATOM     30  C   UNL d   1      52.770  30.320  53.944  0.00  0.00     0.085 A 
ATOM     31  C   UNL d   1      52.969  29.999  54.655  0.00  0.00     0.019 A 
ATOM     32  C   UNL d   1      53.372  29.273  54.719  0.00  0.00     0.002 A 
ATOM     33  C   UNL d   1      53.572  28.874  54.034  0.00  0.00     0.000 A 
ATOM     34  C   UNL d   1      53.371  29.199  53.305  0.00  0.00     0.002 A 
ATOM     35  C   UNL d   1      52.971  29.918  53.245  0.00  0.00     0.019 A 
ENDBRANCH  28  30
ENDBRANCH   1  27
TORSDOF 8
ENDMDL
MODEL 3
REMARK VINA RESULT:      -3.9      1.746      5.574
REMARK  8 active torsions:
REMARK  status: ('A' for Active; 'I' for Inactive)
REMARK    1  A    between atoms: C_6  and  C_1 
REMARK    2  A    between atoms: C_8  and  C_2 
REMARK    3  A    between atoms: S_10  and  C_3 
REMARK    4  A    between atoms: C_15  and  C_4 
REMARK       I    between atoms: N_9  and  C_6 
REMARK    5  A    between atoms: C_19  and  N_9 
REMARK    6  A    between atoms: C_18  and  S_10 
REMARK    7  A    between atoms: C_12  and  C_18 
REMARK       I    between atoms: N_14  and  C_12 
REMARK    8  A    between atoms: C_21  and  N_14 
ROOT
ATOM      1  C   UNL d   1      52.225  33.887  53.442  0.00  0.00     0.076 A 
ATOM      2  C   UNL d   1      51.063  33.287  52.886  0.00  0.00     0.045 A 
ATOM      3  C   UNL d   1      50.679  34.030  52.887  0.00  0.00     0.112 A 
ATOM      4  C   UNL d   1      51.832  33.224  53.164  0.00  0.00     0.010 A 
ATOM      5  C   UNL d   1      51.841  34.630  53.443  0.00  0.00     0.087 A 
ATOM      6  N   UNL d   1      51.071  34.697  53.165  0.00  0.00    -0.239 NA
ATOM      7  C   UNL d   1      52.246  35.325  53.732  0.00  0.00     0.021 C 
ENDROOT
BRANCH   3   8
ATOM      8  S   UNL d   1      49.877  34.102  52.599  0.00  0.00    -0.062 SA
BRANCH   8   9
ATOM      9  C   UNL d   1      49.479  34.851  52.629  0.00  0.00     0.099 C 
BRANCH   9  10
ATOM     10  C   UNL d   1      48.948  35.075  52.023  0.00  0.00     0.286 C 
ATOM     11  N   UNL d   1      48.301  35.548  52.197  0.00  0.00    -0.208 NA
ATOM     12  O   UNL d   1      49.077  34.817  51.239  0.00  0.00    -0.265 OA
BRANCH  11  13
ATOM     13  C   UNL d   1      48.175  35.800  52.964  0.00  0.00     0.085 A 
ATOM     14  C   UNL d   1      47.663  35.388  53.431  0.00  0.00     0.019 A 
ATOM     15  C   UNL d   1      47.534  35.639  54.203  0.00  0.00     0.002 A 
ATOM     16  C   UNL d   1      47.923  36.305  54.498  0.00  0.00     0.000 A 
ATOM     17  C   UNL d   1      48.435  36.709  54.014  0.00  0.00     0.002 A 
ATOM     18  C   UNL d   1      48.561  36.457  53.247  0.00  0.00     0.019 A 
ENDBRANCH  11  13
ENDBRANCH   9  10
ENDBRANCH   8   9
ENDBRANCH   3   8
BRANCH   2  19
ATOM     19  C   UNL d   1      50.657  32.592  52.597  0.00  0.00     0.124 C 
ATOM     20  N   UNL d   1      49.945  32.325  52.974  0.00  0.00    -0.146 N 
ENDBRANCH   2  19
BRANCH   4  21
ATOM     21  C   UNL d   1      52.215  32.482  53.163  0.00  0.00     0.003 A 
ATOM     22  C   UNL d   1      52.713  32.274  52.543  0.00  0.00     0.021 A 
ATOM     23  C   UNL d   1      53.096  31.532  52.542  0.00  0.00     0.099 A 
ATOM     24  N   UNL d   1      52.980  31.001  53.161  0.00  0.00    -0.242 NA
ATOM     25  C   UNL d   1      52.480  31.212  53.782  0.00  0.00     0.099 A 
ATOM     26  C   UNL d   1      52.097  31.954  53.783  0.00  0.00     0.021 A 
ENDBRANCH   4  21
BRANCH   1  27
ATOM     27  C   UNL d   1      53.027  33.815  53.730  0.00  0.00     0.281 C 
ATOM     28  N   UNL d   1      53.197  33.936  54.553  0.00  0.00    -0.208 NA
ATOM     29  O   UNL d   1      53.649  33.621  53.186  0.00  0.00    -0.265 OA
BRANCH  28  30
ATOM     30  C   UNL d   1      53.944  33.870  54.832  0.00  0.00     0.085 A 
ATOM     31  C   UNL d   1      54.559  34.230  54.460  0.00  0.00     0.019 A 
ATOM     32  C   UNL d   1      55.343  34.173  54.737  0.00  0.00     0.002 A 
ATOM     33  C   UNL d   1      55.489  33.735  55.411  0.00  0.00     0.000 A 
ATOM     34  C   UNL d   1      54.862  33.365  55.795  0.00  0.00     0.002 A 
ATOM     35  C   UNL d   1      54.087  33.424  55.519  0.00  0.00     0.019 A 
ENDBRANCH  28  30
ENDBRANCH   1  27
TORSDOF 8
ENDMDL
MODEL 4
REMARK VINA RESULT:      -2.8      2.861      5.430
REMARK  8 active torsions:
REMARK  status: ('A' for Active; 'I' for Inactive)
REMARK    1  A    between atoms: C_6  and  C_1 
REMARK    2  A    between atoms: C_8  and  C_2 
REMARK    3  A    between atoms: S_10  and  C_3 
REMARK    4  A    between atoms: C_15  and  C_4 
REMARK       I    between atoms: N_9  and  C_6 
REMARK    5  A    between atoms: C_19  and  N_9 
REMARK    6  A    between atoms: C_18  and  S_10 
REMARK    7  A    between atoms: C_12  and  C_18 
REMARK       I    between atoms: N_14  and  C_12 
REMARK    8  A    between atoms: C_21  and  N_14 
ROOT
ATOM      1  C   UNL d   1      48.079  35.539  53.081  0.00  0.00     0.076 A 
ATOM      2  C   UNL d   1      48.566  35.030  51.847  0.00  0.00     0.045 A 
ATOM      3  C   UNL d   1      49.286  34.823  52.217  0.00  0.00     0.112 A 
ATOM      4  C   UNL d   1      47.970  35.386  52.283  0.00  0.00     0.010 A 
ATOM      5  C   UNL d   1      48.799  35.332  53.451  0.00  0.00     0.087 A 
ATOM      6  N   UNL d   1      49.398  34.975  53.017  0.00  0.00    -0.239 NA
ATOM      7  C   UNL d   1      48.918  35.489  54.283  0.00  0.00     0.021 C 
ENDROOT
BRANCH   3   8
ATOM      8  S   UNL d   1      49.912  34.451  51.768  0.00  0.00    -0.062 SA
BRANCH   8   9
ATOM      9  C   UNL d   1      50.702  34.426  52.077  0.00  0.00     0.099 C 
BRANCH   9  10
ATOM     10  C   UNL d   1      51.356  34.332  51.564  0.00  0.00     0.286 C 
ATOM     11  N   UNL d   1      52.100  34.175  51.871  0.00  0.00    -0.208 NA
ATOM     12  O   UNL d   1      51.251  34.397  50.737  0.00  0.00    -0.265 OA
BRANCH  11  13
ATOM     13  C   UNL d   1      52.203  34.112  52.679  0.00  0.00     0.085 A 
ATOM     14  C   UNL d   1      52.068  33.400  53.034  0.00  0.00     0.019 A 
ATOM     15  C   UNL d   1      52.170  33.332  53.847  0.00  0.00     0.002 A 
ATOM     16  C   UNL d   1      52.408  33.984  54.296  0.00  0.00     0.000 A 
ATOM     17  C   UNL d   1      52.539  34.693  53.922  0.00  0.00     0.002 A 
ATOM     18  C   UNL d   1      52.437  34.757  53.113  0.00  0.00     0.019 A 
ENDBRANCH  11  13
ENDBRANCH   9  10
ENDBRANCH   8   9
ENDBRANCH   3   8
BRANCH   2  19
ATOM     19  C   UNL d   1      48.447  34.873  51.015  0.00  0.00     0.124 C 
ATOM     20  N   UNL d   1      48.580  34.094  50.704  0.00  0.00    -0.146 N 
ENDBRANCH   2  19
BRANCH   4  21
ATOM     21  C   UNL d   1      47.251  35.594  51.913  0.00  0.00     0.003 A 
ATOM     22  C   UNL d   1      46.659  35.032  51.814  0.00  0.00     0.021 A 
ATOM     23  C   UNL d   1      45.940  35.239  51.444  0.00  0.00     0.099 A 
ATOM     24  N   UNL d   1      45.814  36.008  51.175  0.00  0.00    -0.242 NA
ATOM     25  C   UNL d   1      46.410  36.569  51.276  0.00  0.00     0.099 A 
ATOM     26  C   UNL d   1      47.129  36.362  51.646  0.00  0.00     0.021 A 
ENDBRANCH   4  21
BRANCH   1  27
ATOM     27  C   UNL d   1      47.453  35.911  53.530  0.00  0.00     0.281 C 
ATOM     28  N   UNL d   1      47.065  35.485  54.154  0.00  0.00    -0.208 NA
ATOM     29  O   UNL d   1      47.225  36.708  53.347  0.00  0.00    -0.265 OA
BRANCH  28  30
ATOM     30  C   UNL d   1      46.479  35.824  54.580  0.00  0.00     0.085 A 
ATOM     31  C   UNL d   1      45.707  35.647  54.438  0.00  0.00     0.019 A 
ATOM     32  C   UNL d   1      45.084  35.991  54.872  0.00  0.00     0.002 A 
ATOM     33  C   UNL d   1      45.266  36.525  55.462  0.00  0.00     0.000 A 
ATOM     34  C   UNL d   1      46.054  36.709  55.611  0.00  0.00     0.002 A 
ATOM     35  C   UNL d   1      46.669  36.367  55.180  0.00  0.00     0.019 A 
ENDBRANCH  28  30
ENDBRANCH   1  27
TORSDOF 8
ENDMDL
MODEL 5
REMARK VINA RESULT:      -1.4      1.079      2.710
REMARK  8 active torsions:
REMARK  status: ('A' for Active; 'I' for Inactive)
REMARK    1  A    between atoms: C_6  and  C_1 
REMARK    2  A    between atoms: C_8  and  C_2 
REMARK    3  A    between atoms: S_10  and  C_3 
REMARK    4  A    between atoms: C_15  and  C_4 
REMARK       I    between atoms: N_9  and  C_6 
REMARK    5  A    between atoms: C_19  and  N_9 
REMARK    6  A    between atoms: C_18  and  S_10 
REMARK    7  A    between atoms: C_12  and  C_18 
REMARK       I    between atoms: N_14  and  C_12 
REMARK    8  A    between atoms: C_21  and  N_14 
ROOT
ATOM      1  C   UNL d   1      52.830  33.226  53.363  0.00  0.00     0.076 A 
ATOM      2  C   UNL d   1      51.976  32.169  52.950  0.00  0.00     0.045 A 
ATOM      3  C   UNL d   1      52.599  31.622  53.060  0.00  0.00     0.112 A 
ATOM      4  C   UNL d   1      52.098  32.965  53.103  0.00  0.00     0.010 A 
ATOM      5  C   UNL d   1      53.453  32.679  53.473  0.00  0.00     0.087 A 
ATOM      6  N   UNL d   1      53.334  31.881  53.321  0.00  0.00    -0.239 NA
ATOM      7  C   UNL d   1      54.219  32.946  53.745  0.00  0.00     0.021 C 
ENDROOT
BRANCH   3   8
ATOM      8  S   UNL d   1      52.477  30.790  52.902  0.00  0.00    -0.062 SA
BRANCH   8   9
ATOM      9  C   UNL d   1      52.933  30.206  53.315  0.00  0.00     0.099 C 
BRANCH   9  10
ATOM     10  C   UNL d   1      53.044  29.445  52.988  0.00  0.00     0.286 C 
ATOM     11  N   UNL d   1      53.188  28.803  53.479  0.00  0.00    -0.208 NA
ATOM     12  O   UNL d   1      53.009  29.336  52.160  0.00  0.00    -0.265 OA
BRANCH  11  13
ATOM     13  C   UNL d   1      53.222  28.910  54.288  0.00  0.00     0.085 A 
ATOM     14  C   UNL d   1      53.944  28.970  54.643  0.00  0.00     0.019 A 
ATOM     15  C   UNL d   1      53.983  29.077  55.457  0.00  0.00     0.002 A 
ATOM     16  C   UNL d   1      53.291  29.122  55.908  0.00  0.00     0.000 A 
ATOM     17  C   UNL d   1      52.573  29.059  55.534  0.00  0.00     0.002 A 
ATOM     18  C   UNL d   1      52.538  28.953  54.725  0.00  0.00     0.019 A 
ENDBRANCH  11  13
ENDBRANCH   9  10
ENDBRANCH   8   9
ENDBRANCH   3   8
BRANCH   2  19
ATOM     19  C   UNL d   1      51.210  31.902  52.678  0.00  0.00     0.124 C 
ATOM     20  N   UNL d   1      50.740  31.388  53.164  0.00  0.00    -0.146 N 
ENDBRANCH   2  19
BRANCH   4  21
ATOM     21  C   UNL d   1      51.476  33.511  52.994  0.00  0.00     0.003 A 
ATOM     22  C   UNL d   1      51.399  33.913  52.281  0.00  0.00     0.021 A 
ATOM     23  C   UNL d   1      50.777  34.459  52.171  0.00  0.00     0.099 A 
ATOM     24  N   UNL d   1      50.234  34.601  52.775  0.00  0.00    -0.242 NA
ATOM     25  C   UNL d   1      50.314  34.196  53.489  0.00  0.00     0.099 A 
ATOM     26  C   UNL d   1      50.936  33.650  53.598  0.00  0.00     0.021 A 
ENDBRANCH   4  21
BRANCH   1  27
ATOM     27  C   UNL d   1      52.952  34.057  53.522  0.00  0.00     0.281 C 
ATOM     28  N   UNL d   1      53.066  34.328  54.318  0.00  0.00    -0.208 NA
ATOM     29  O   UNL d   1      52.958  34.608  52.875  0.00  0.00    -0.265 OA
BRANCH  28  30
ATOM     30  C   UNL d   1      53.181  35.104  54.477  0.00  0.00     0.085 A 
ATOM     31  C   UNL d   1      53.674  35.551  54.024  0.00  0.00     0.019 A 
ATOM     32  C   UNL d   1      53.806  36.360  54.175  0.00  0.00     0.002 A 
ATOM     33  C   UNL d   1      53.419  36.709  54.804  0.00  0.00     0.000 A 
ATOM     34  C   UNL d   1      52.914  36.255  55.269  0.00  0.00     0.002 A 
ATOM     35  C   UNL d   1      52.786  35.454  55.118  0.00  0.00     0.019 A 
ENDBRANCH  28  30
ENDBRANCH   1  27
TORSDOF 8
ENDMDL
