MODEL 1
REMARK VINA RESULT:      18.9      0.000      0.000
REMARK  5 active torsions:
REMARK  status: ('A' for Active; 'I' for Inactive)
REMARK    1  A    between atoms: N_3  and  C_1 
REMARK       I    between atoms: C_9  and  N_3 
REMARK       I    between atoms: N_5  and  C_8 
REMARK    2  A    between atoms: C_8  and  C_16 
REMARK    3  A    between atoms: C_17  and  C_9 
REMARK    4  A    between atoms: S_13  and  C_17 
REMARK    5  A    between atoms: C_16  and  S_13 
ROOT
ATOM      1  N   UNL d   1      46.224 -16.921  43.640  0.00  0.00    -0.183 NA
ATOM      2  C   UNL d   1      46.073 -17.037  44.448  0.00  0.00     0.287 C 
ATOM      3  O   UNL d   1      46.030 -17.806  44.754  0.00  0.00    -0.265 OA
ENDROOT
BRANCH   2   4
ATOM      4  C   UNL d   1      45.965 -16.395  44.947  0.00  0.00     0.098 C 
BRANCH   4   5
ATOM      5  S   UNL d   1      46.197 -15.634  44.711  0.00  0.00    -0.076 SA
BRANCH   5   6
ATOM      6  C   UNL d   1      45.630 -15.087  44.461  0.00  0.00     0.097 C 
BRANCH   6   7
ATOM      7  C   UNL d   1      45.846 -14.452  43.982  0.00  0.00     0.271 C 
ATOM      8  N   UNL d   1      45.281 -13.898  43.751  0.00  0.00    -0.272 N 
ATOM      9  C   UNL d   1      45.499 -13.267  43.274  0.00  0.00     0.083 A 
ATOM     10  C   UNL d   1      44.494 -13.978  43.998  0.00  0.00     0.083 A 
ATOM     11  C   UNL d   1      44.931 -12.715  43.044  0.00  0.00     0.018 A 
ATOM     12  C   UNL d   1      45.147 -12.080  42.565  0.00  0.00     0.002 C 
ATOM     13  C   UNL d   1      44.148 -12.801  43.294  0.00  0.00     0.003 A 
ATOM     14  C   UNL d   1      43.928 -13.437  43.775  0.00  0.00     0.019 A 
ATOM     15  O   UNL d   1      46.626 -14.375  43.738  0.00  0.00    -0.266 OA
ENDBRANCH   6   7
ENDBRANCH   5   6
ENDBRANCH   4   5
ENDBRANCH   2   4
BRANCH   1  16
ATOM     16  C   UNL d   1      46.299 -17.683  43.327  0.00  0.00     0.182 A 
ATOM     17  N   UNL d   1      46.434 -17.873  42.532  0.00  0.00    -0.283 N 
ATOM     18  C   UNL d   1      46.471 -18.700  42.466  0.00  0.00     0.072 A 
ATOM     19  C   UNL d   1      46.515 -17.333  41.923  0.00  0.00     0.101 C 
ATOM     20  C   UNL d   1      46.590 -19.200  41.826  0.00  0.00     0.017 A 
ATOM     21  C   UNL d   1      46.359 -19.020  43.220  0.00  0.00     0.048 A 
ATOM     22  C   UNL d   1      46.599 -20.008  41.929  0.00  0.00    -0.011 A 
ATOM     23  C   UNL d   1      46.487 -20.329  42.683  0.00  0.00     0.027 A 
ATOM     24  C   UNL d   1      46.366 -19.842  43.334  0.00  0.00    -0.004 A 
ATOM     25  S   UNL d   1      46.252 -18.393  43.755  0.00  0.00    -0.048 SA
ENDBRANCH   1  16
TORSDOF 5
ENDMDL
