MODEL 1
REMARK VINA RESULT:      -2.9      0.000      0.000
REMARK  4 active torsions:
REMARK  status: ('A' for Active; 'I' for Inactive)
REMARK    1  A    between atoms: C_11  and  C_4 
REMARK    2  A    between atoms: C_12  and  C_5 
REMARK    3  A    between atoms: C_7  and  C_11 
REMARK    4  A    between atoms: C_8  and  C_12 
ROOT
ATOM      1  N   UNL d   1      32.800  22.266 -19.789  0.00  0.00    -0.246 NA
ATOM      2  C   UNL d   1      32.131  23.227 -20.941  0.00  0.00     0.003 A 
ATOM      3  C   UNL d   1      32.406  23.555 -20.238  0.00  0.00     0.019 A 
ATOM      4  C   UNL d   1      32.742  23.072 -19.659  0.00  0.00     0.081 A 
ATOM      5  C   UNL d   1      32.529  21.932 -20.487  0.00  0.00     0.081 A 
ATOM      6  C   UNL d   1      32.192  22.415 -21.066  0.00  0.00     0.019 A 
ATOM      7  C   UNL d   1      31.800  23.702 -21.511  0.00  0.00     0.000 C 
ENDROOT
BRANCH   4   8
ATOM      8  C   UNL d   1      33.017  23.426 -18.947  0.00  0.00     0.019 C 
BRANCH   8   9
ATOM      9  C   UNL d   1      32.770  23.145 -18.223  0.00  0.00     0.002 C 
ATOM     10  C   UNL d   1      32.948  23.550 -17.517  0.00  0.00     0.000 C 
ENDBRANCH   8   9
ENDBRANCH   4   8
BRANCH   5  11
ATOM     11  C   UNL d   1      32.593  21.103 -20.610  0.00  0.00     0.019 C 
BRANCH  11  12
ATOM     12  C   UNL d   1      33.082  20.811 -21.196  0.00  0.00     0.002 C 
ATOM     13  C   UNL d   1      33.137  19.991 -21.317  0.00  0.00     0.000 C 
ENDBRANCH  11  12
ENDBRANCH   5  11
TORSDOF 4
ENDMDL
MODEL 2
REMARK VINA RESULT:      -2.8      0.392      2.922
REMARK  4 active torsions:
REMARK  status: ('A' for Active; 'I' for Inactive)
REMARK    1  A    between atoms: C_11  and  C_4 
REMARK    2  A    between atoms: C_12  and  C_5 
REMARK    3  A    between atoms: C_7  and  C_11 
REMARK    4  A    between atoms: C_8  and  C_12 
ROOT
ATOM      1  N   UNL d   1      33.226  22.223 -19.979  0.00  0.00    -0.246 NA
ATOM      2  C   UNL d   1      32.235  23.213 -20.837  0.00  0.00     0.003 A 
ATOM      3  C   UNL d   1      32.490  22.502 -21.163  0.00  0.00     0.019 A 
ATOM      4  C   UNL d   1      32.989  22.004 -20.732  0.00  0.00     0.081 A 
ATOM      5  C   UNL d   1      32.975  22.930 -19.648  0.00  0.00     0.081 A 
ATOM      6  C   UNL d   1      32.477  23.427 -20.079  0.00  0.00     0.019 A 
ATOM      7  C   UNL d   1      31.744  23.702 -21.261  0.00  0.00     0.000 C 
ENDROOT
BRANCH   4   8
ATOM      8  C   UNL d   1      33.240  21.282 -21.082  0.00  0.00     0.019 C 
BRANCH   8   9
ATOM      9  C   UNL d   1      32.696  20.710 -21.285  0.00  0.00     0.002 C 
ATOM     10  C   UNL d   1      32.923  20.020 -21.693  0.00  0.00     0.000 C 
ENDBRANCH   8   9
ENDBRANCH   4   8
BRANCH   5  11
ATOM     11  C   UNL d   1      33.225  23.144 -18.875  0.00  0.00     0.019 C 
BRANCH  11  12
ATOM     12  C   UNL d   1      32.674  23.270 -18.285  0.00  0.00     0.002 C 
ATOM     13  C   UNL d   1      32.920  23.320 -17.494  0.00  0.00     0.000 C 
ENDBRANCH  11  12
ENDBRANCH   5  11
TORSDOF 4
ENDMDL
MODEL 3
REMARK VINA RESULT:      -2.6      4.529      6.666
REMARK  4 active torsions:
REMARK  status: ('A' for Active; 'I' for Inactive)
REMARK    1  A    between atoms: C_11  and  C_4 
REMARK    2  A    between atoms: C_12  and  C_5 
REMARK    3  A    between atoms: C_7  and  C_11 
REMARK    4  A    between atoms: C_8  and  C_12 
ROOT
ATOM      1  N   UNL d   1      31.648  17.903 -24.162  0.00  0.00    -0.246 NA
ATOM      2  C   UNL d   1      31.953  16.372 -23.655  0.00  0.00     0.003 A 
ATOM      3  C   UNL d   1      32.464  16.983 -23.449  0.00  0.00     0.019 A 
ATOM      4  C   UNL d   1      32.311  17.754 -23.704  0.00  0.00     0.081 A 
ATOM      5  C   UNL d   1      31.136  17.299 -24.370  0.00  0.00     0.081 A 
ATOM      6  C   UNL d   1      31.289  16.529 -24.115  0.00  0.00     0.019 A 
ATOM      7  C   UNL d   1      32.105  15.613 -23.404  0.00  0.00     0.000 C 
ENDROOT
BRANCH   4   8
ATOM      8  C   UNL d   1      32.844  18.366 -23.484  0.00  0.00     0.019 C 
BRANCH   8   9
ATOM      9  C   UNL d   1      32.731  18.785 -22.794  0.00  0.00     0.002 C 
ATOM     10  C   UNL d   1      33.229  19.418 -22.584  0.00  0.00     0.000 C 
ENDBRANCH   8   9
ENDBRANCH   4   8
BRANCH   5  11
ATOM     11  C   UNL d   1      30.459  17.464 -24.840  0.00  0.00     0.019 C 
BRANCH  11  12
ATOM     12  C   UNL d   1      29.716  17.483 -24.500  0.00  0.00     0.002 C 
ATOM     13  C   UNL d   1      29.057  17.689 -24.960  0.00  0.00     0.000 C 
ENDBRANCH  11  12
ENDBRANCH   5  11
TORSDOF 4
ENDMDL
MODEL 4
REMARK VINA RESULT:      -2.5      4.502      6.986
REMARK  4 active torsions:
REMARK  status: ('A' for Active; 'I' for Inactive)
REMARK    1  A    between atoms: C_11  and  C_4 
REMARK    2  A    between atoms: C_12  and  C_5 
REMARK    3  A    between atoms: C_7  and  C_11 
REMARK    4  A    between atoms: C_8  and  C_12 
ROOT
ATOM      1  N   UNL d   1      31.642  17.922 -24.173  0.00  0.00    -0.246 NA
ATOM      2  C   UNL d   1      32.009  16.410 -23.649  0.00  0.00     0.003 A 
ATOM      3  C   UNL d   1      31.343  16.534 -24.115  0.00  0.00     0.019 A 
ATOM      4  C   UNL d   1      31.158  17.295 -24.379  0.00  0.00     0.081 A 
ATOM      5  C   UNL d   1      32.307  17.806 -23.709  0.00  0.00     0.081 A 
ATOM      6  C   UNL d   1      32.492  17.045 -23.446  0.00  0.00     0.019 A 
ATOM      7  C   UNL d   1      32.191  15.662 -23.390  0.00  0.00     0.000 C 
ENDROOT
BRANCH   4   8
ATOM      8  C   UNL d   1      30.472  17.402 -24.854  0.00  0.00     0.019 C 
BRANCH   8   9
ATOM      9  C   UNL d   1      29.742  17.512 -24.509  0.00  0.00     0.002 C 
ATOM     10  C   UNL d   1      29.064  17.669 -24.966  0.00  0.00     0.000 C 
ENDBRANCH   8   9
ENDBRANCH   4   8
BRANCH   5  11
ATOM     11  C   UNL d   1      32.797  18.458 -23.505  0.00  0.00     0.019 C 
BRANCH  11  12
ATOM     12  C   UNL d   1      32.767  18.774 -22.752  0.00  0.00     0.002 C 
ATOM     13  C   UNL d   1      33.218  19.447 -22.569  0.00  0.00     0.000 C 
ENDBRANCH  11  12
ENDBRANCH   5  11
TORSDOF 4
ENDMDL
MODEL 5
REMARK VINA RESULT:      -2.4      3.236      5.763
REMARK  4 active torsions:
REMARK  status: ('A' for Active; 'I' for Inactive)
REMARK    1  A    between atoms: C_11  and  C_4 
REMARK    2  A    between atoms: C_12  and  C_5 
REMARK    3  A    between atoms: C_7  and  C_11 
REMARK    4  A    between atoms: C_8  and  C_12 
ROOT
ATOM      1  N   UNL d   1      32.622  18.438 -23.053  0.00  0.00    -0.246 NA
ATOM      2  C   UNL d   1      33.035  19.274 -24.404  0.00  0.00     0.003 A 
ATOM      3  C   UNL d   1      32.622  18.566 -24.468  0.00  0.00     0.019 A 
ATOM      4  C   UNL d   1      32.414  18.145 -23.789  0.00  0.00     0.081 A 
ATOM      5  C   UNL d   1      33.033  19.143 -22.981  0.00  0.00     0.081 A 
ATOM      6  C   UNL d   1      33.241  19.564 -23.661  0.00  0.00     0.019 A 
ATOM      7  C   UNL d   1      33.240  19.688 -25.073  0.00  0.00     0.000 C 
ENDROOT
BRANCH   4   8
ATOM      8  C   UNL d   1      31.992  17.422 -23.874  0.00  0.00     0.019 C 
BRANCH   8   9
ATOM      9  C   UNL d   1      32.289  16.730 -23.563  0.00  0.00     0.002 C 
ATOM     10  C   UNL d   1      31.842  16.028 -23.561  0.00  0.00     0.000 C 
ENDBRANCH   8   9
ENDBRANCH   4   8
BRANCH   5  11
ATOM     11  C   UNL d   1      33.241  19.434 -22.221  0.00  0.00     0.019 C 
BRANCH  11  12
ATOM     12  C   UNL d   1      32.919  20.133 -21.946  0.00  0.00     0.002 C 
ATOM     13  C   UNL d   1      32.968  20.321 -21.139  0.00  0.00     0.000 C 
ENDBRANCH  11  12
ENDBRANCH   5  11
TORSDOF 4
ENDMDL
MODEL 6
REMARK VINA RESULT:      -2.3      3.202      5.042
REMARK  4 active torsions:
REMARK  status: ('A' for Active; 'I' for Inactive)
REMARK    1  A    between atoms: C_11  and  C_4 
REMARK    2  A    between atoms: C_12  and  C_5 
REMARK    3  A    between atoms: C_7  and  C_11 
REMARK    4  A    between atoms: C_8  and  C_12 
ROOT
ATOM      1  N   UNL d   1      32.644  18.495 -22.977  0.00  0.00    -0.246 NA
ATOM      2  C   UNL d   1      33.043  19.221 -24.395  0.00  0.00     0.003 A 
ATOM      3  C   UNL d   1      33.233  19.581 -23.680  0.00  0.00     0.019 A 
ATOM      4  C   UNL d   1      33.032  19.216 -22.967  0.00  0.00     0.081 A 
ATOM      5  C   UNL d   1      32.452  18.131 -23.685  0.00  0.00     0.081 A 
ATOM      6  C   UNL d   1      32.652  18.496 -24.398  0.00  0.00     0.019 A 
ATOM      7  C   UNL d   1      33.240  19.580 -25.097  0.00  0.00     0.000 C 
ENDROOT
BRANCH   4   8
ATOM      8  C   UNL d   1      33.235  19.600 -22.246  0.00  0.00     0.019 C 
BRANCH   8   9
ATOM      9  C   UNL d   1      32.687  20.057 -21.852  0.00  0.00     0.002 C 
ATOM     10  C   UNL d   1      32.919  20.615 -21.278  0.00  0.00     0.000 C 
ENDBRANCH   8   9
ENDBRANCH   4   8
BRANCH   5  11
ATOM     11  C   UNL d   1      32.053  17.391 -23.683  0.00  0.00     0.019 C 
BRANCH  11  12
ATOM     12  C   UNL d   1      32.476  16.696 -23.602  0.00  0.00     0.002 C 
ATOM     13  C   UNL d   1      32.073  15.976 -23.513  0.00  0.00     0.000 C 
ENDBRANCH  11  12
ENDBRANCH   5  11
TORSDOF 4
ENDMDL
MODEL 7
REMARK VINA RESULT:      -2.3      1.796      3.132
REMARK  4 active torsions:
REMARK  status: ('A' for Active; 'I' for Inactive)
REMARK    1  A    between atoms: C_11  and  C_4 
REMARK    2  A    between atoms: C_12  and  C_5 
REMARK    3  A    between atoms: C_7  and  C_11 
REMARK    4  A    between atoms: C_8  and  C_12 
ROOT
ATOM      1  N   UNL d   1      33.219  22.459 -22.340  0.00  0.00    -0.246 NA
ATOM      2  C   UNL d   1      32.153  23.288 -21.406  0.00  0.00     0.003 A 
ATOM      3  C   UNL d   1      32.416  23.610 -22.116  0.00  0.00     0.019 A 
ATOM      4  C   UNL d   1      32.952  23.193 -22.586  0.00  0.00     0.081 A 
ATOM      5  C   UNL d   1      32.961  22.132 -21.635  0.00  0.00     0.081 A 
ATOM      6  C   UNL d   1      32.425  22.549 -21.165  0.00  0.00     0.019 A 
ATOM      7  C   UNL d   1      31.625  23.698 -20.943  0.00  0.00     0.000 C 
ENDROOT
BRANCH   4   8
ATOM      8  C   UNL d   1      33.210  23.538 -23.308  0.00  0.00     0.019 C 
BRANCH   8   9
ATOM      9  C   UNL d   1      32.910  23.281 -24.020  0.00  0.00     0.002 C 
ATOM     10  C   UNL d   1      33.175  23.598 -24.744  0.00  0.00     0.000 C 
ENDBRANCH   8   9
ENDBRANCH   4   8
BRANCH   5  11
ATOM     11  C   UNL d   1      33.241  21.377 -21.393  0.00  0.00     0.019 C 
BRANCH  11  12
ATOM     12  C   UNL d   1      32.890  20.697 -21.679  0.00  0.00     0.002 C 
ATOM     13  C   UNL d   1      33.240  19.959 -21.532  0.00  0.00     0.000 C 
ENDBRANCH  11  12
ENDBRANCH   5  11
TORSDOF 4
ENDMDL
MODEL 8
REMARK VINA RESULT:      -2.3      1.256      3.322
REMARK  4 active torsions:
REMARK  status: ('A' for Active; 'I' for Inactive)
REMARK    1  A    between atoms: C_11  and  C_4 
REMARK    2  A    between atoms: C_12  and  C_5 
REMARK    3  A    between atoms: C_7  and  C_11 
REMARK    4  A    between atoms: C_8  and  C_12 
ROOT
ATOM      1  N   UNL d   1      32.817  22.697 -21.377  0.00  0.00    -0.246 NA
ATOM      2  C   UNL d   1      32.890  21.056 -21.409  0.00  0.00     0.003 A 
ATOM      3  C   UNL d   1      33.079  21.491 -22.082  0.00  0.00     0.019 A 
ATOM      4  C   UNL d   1      33.042  22.316 -22.065  0.00  0.00     0.081 A 
ATOM      5  C   UNL d   1      32.627  22.270 -20.703  0.00  0.00     0.081 A 
ATOM      6  C   UNL d   1      32.664  21.445 -20.719  0.00  0.00     0.019 A 
ATOM      7  C   UNL d   1      32.927  20.244 -21.425  0.00  0.00     0.000 C 
ENDROOT
BRANCH   4   8
ATOM      8  C   UNL d   1      33.239  22.743 -22.763  0.00  0.00     0.019 C 
BRANCH   8   9
ATOM      9  C   UNL d   1      32.759  23.345 -23.029  0.00  0.00     0.002 C 
ATOM     10  C   UNL d   1      32.881  23.702 -23.771  0.00  0.00     0.000 C 
ENDBRANCH   8   9
ENDBRANCH   4   8
BRANCH   5  11
ATOM     11  C   UNL d   1      32.397  22.672 -20.001  0.00  0.00     0.019 C 
BRANCH  11  12
ATOM     12  C   UNL d   1      32.957  23.048 -19.540  0.00  0.00     0.002 C 
ATOM     13  C   UNL d   1      32.731  23.404 -18.825  0.00  0.00     0.000 C 
ENDBRANCH  11  12
ENDBRANCH   5  11
TORSDOF 4
ENDMDL
MODEL 9
REMARK VINA RESULT:      -2.0      7.083      7.721
REMARK  4 active torsions:
REMARK  status: ('A' for Active; 'I' for Inactive)
REMARK    1  A    between atoms: C_11  and  C_4 
REMARK    2  A    between atoms: C_12  and  C_5 
REMARK    3  A    between atoms: C_7  and  C_11 
REMARK    4  A    between atoms: C_8  and  C_12 
ROOT
ATOM      1  N   UNL d   1      30.673  16.075 -23.573  0.00  0.00    -0.246 NA
ATOM      2  C   UNL d   1      30.462  17.345 -24.592  0.00  0.00     0.003 A 
ATOM      3  C   UNL d   1      31.206  17.188 -24.278  0.00  0.00     0.019 A 
ATOM      4  C   UNL d   1      31.312  16.549 -23.765  0.00  0.00     0.081 A 
ATOM      5  C   UNL d   1      29.929  16.226 -23.883  0.00  0.00     0.081 A 
ATOM      6  C   UNL d   1      29.823  16.865 -24.395  0.00  0.00     0.019 A 
ATOM      7  C   UNL d   1      30.358  17.974 -25.097  0.00  0.00     0.000 C 
ENDROOT
BRANCH   4   8
ATOM      8  C   UNL d   1      32.080  16.404 -23.454  0.00  0.00     0.019 C 
BRANCH   8   9
ATOM      9  C   UNL d   1      32.454  15.693 -23.589  0.00  0.00     0.002 C 
ATOM     10  C   UNL d   1      33.204  15.528 -23.267  0.00  0.00     0.000 C 
ENDBRANCH   8   9
ENDBRANCH   4   8
BRANCH   5  11
ATOM     11  C   UNL d   1      29.280  15.732 -23.678  0.00  0.00     0.019 C 
BRANCH  11  12
ATOM     12  C   UNL d   1      28.546  16.059 -23.532  0.00  0.00     0.002 C 
ATOM     13  C   UNL d   1      27.908  15.566 -23.332  0.00  0.00     0.000 C 
ENDBRANCH  11  12
ENDBRANCH   5  11
TORSDOF 4
ENDMDL
