MODEL 1
REMARK VINA RESULT:      37.2      0.000      0.000
REMARK  3 active torsions:
REMARK  status: ('A' for Active; 'I' for Inactive)
REMARK    1  A    between atoms: N_9  and  C_5 
REMARK    2  A    between atoms: C_12  and  N_9 
REMARK    3  A    between atoms: C_13  and  C_12 
ROOT
ATOM      1  C   UNL d   1     -51.355  24.706  33.309  0.00  0.00     0.153 A 
ATOM      2  O   UNL d   1     -52.055  25.138  33.310  0.00  0.00    -0.302 OA
ATOM      3  C   UNL d   1     -51.550  23.903  33.308  0.00  0.00     0.111 A 
ATOM      4  C   UNL d   1     -52.377  23.844  33.309  0.00  0.00     0.043 A 
ATOM      5  C   UNL d   1     -50.560  24.941  33.308  0.00  0.00     0.189 A 
ATOM      6  C   UNL d   1     -52.684  24.603  33.310  0.00  0.00     0.102 A 
ATOM      7  N   UNL d   1     -49.963  24.371  33.307  0.00  0.00    -0.203 NA
ATOM      8  N   UNL d   1     -50.947  23.342  33.306  0.00  0.00    -0.222 NA
ATOM      9  C   UNL d   1     -50.158  23.569  33.306  0.00  0.00     0.201 A 
ATOM     10  C   UNL d   1     -52.870  23.191  33.308  0.00  0.00     0.004 A 
ATOM     11  C   UNL d   1     -53.501  24.711  33.312  0.00  0.00     0.025 A 
ATOM     12  C   UNL d   1     -53.687  23.299  33.310  0.00  0.00     0.000 A 
ATOM     13  C   UNL d   1     -54.004  24.059  33.311  0.00  0.00     0.002 A 
ENDROOT
BRANCH   5  14
ATOM     14  N   UNL d   1     -50.366  25.747  33.309  0.00  0.00    -0.222 NA
BRANCH  14  15
ATOM     15  C   UNL d   1     -49.770  26.021  33.809  0.00  0.00     0.120 C 
BRANCH  15  16
ATOM     16  C   UNL d   1     -49.626  26.831  33.861  0.00  0.00     0.101 A 
ATOM     17  N   UNL d   1     -49.156  27.129  34.470  0.00  0.00    -0.242 NA
ATOM     18  C   UNL d   1     -49.006  27.942  34.531  0.00  0.00     0.099 A 
ATOM     19  C   UNL d   1     -49.334  28.460  33.972  0.00  0.00     0.021 A 
ATOM     20  C   UNL d   1     -49.805  28.162  33.363  0.00  0.00     0.003 A 
ATOM     21  C   UNL d   1     -49.950  27.347  33.309  0.00  0.00     0.021 A 
ENDBRANCH  15  16
ENDBRANCH  14  15
ENDBRANCH   5  14
TORSDOF 3
ENDMDL
