MODEL 1
REMARK VINA RESULT:       9.8      0.000      0.000
REMARK  6 active torsions:
REMARK  status: ('A' for Active; 'I' for Inactive)
REMARK    1  A    between atoms: S_7  and  C_1 
REMARK       I    between atoms: C_6  and  N_9 
REMARK    2  A    between atoms: C_13  and  C_6 
REMARK    3  A    between atoms: C_15  and  S_7 
REMARK    4  A    between atoms: N_9  and  C_16 
REMARK    5  A    between atoms: O_14  and  C_13 
REMARK    6  A    between atoms: C_16  and  C_15 
ROOT
ATOM      1  C   UNL d   1      46.026 -17.980  43.887  0.00  0.00     0.049 A 
ATOM      2  N   UNL d   1      46.391 -18.652  42.794  0.00  0.00    -0.245 NA
ATOM      3  C   UNL d   1      46.141 -17.921  43.071  0.00  0.00     0.087 A 
ATOM      4  C   UNL d   1      46.204 -18.745  44.118  0.00  0.00     0.025 A 
ATOM      5  C   UNL d   1      46.432 -19.167  43.440  0.00  0.00     0.082 A 
ATOM      6  C   UNL d   1      46.023 -17.242  42.618  0.00  0.00     0.021 C 
ATOM      7  C   UNL d   1      46.192 -19.120  44.847  0.00  0.00     0.002 A 
ATOM      8  C   UNL d   1      46.646 -19.961  43.498  0.00  0.00     0.019 A 
ATOM      9  C   UNL d   1      46.406 -19.914  44.905  0.00  0.00     0.000 A 
ATOM     10  C   UNL d   1      46.631 -20.330  44.235  0.00  0.00     0.002 A 
ENDROOT
BRANCH   1  11
ATOM     11  S   UNL d   1      45.774 -17.372  44.387  0.00  0.00    -0.083 SA
BRANCH  11  12
ATOM     12  C   UNL d   1      45.916 -16.580  44.171  0.00  0.00     0.056 C 
BRANCH  12  13
ATOM     13  C   UNL d   1      45.626 -15.970  44.648  0.00  0.00     0.109 C 
BRANCH  13  14
ATOM     14  N   UNL d   1      46.014 -15.254  44.658  0.00  0.00    -0.204 NA
ATOM     15  C   UNL d   1      45.580 -14.556  44.641  0.00  0.00     0.304 C 
ATOM     16  O   UNL d   1      44.754 -14.579  44.615  0.00  0.00    -0.263 OA
BRANCH  15  17
ATOM     17  C   UNL d   1      45.978 -13.821  44.651  0.00  0.00     0.179 C 
BRANCH  17  18
ATOM     18  O   UNL d   1      45.584 -13.146  44.384  0.00  0.00    -0.322 OA
ATOM     19  C   UNL d   1      45.919 -12.396  44.501  0.00  0.00     0.182 C 
ENDBRANCH  17  18
ENDBRANCH  15  17
ENDBRANCH  13  14
ENDBRANCH  12  13
ENDBRANCH  11  12
ENDBRANCH   1  11
TORSDOF 6
ENDMDL
MODEL 2
REMARK VINA RESULT:      10.6      2.030      4.987
REMARK  6 active torsions:
REMARK  status: ('A' for Active; 'I' for Inactive)
REMARK    1  A    between atoms: S_7  and  C_1 
REMARK       I    between atoms: C_6  and  N_9 
REMARK    2  A    between atoms: C_13  and  C_6 
REMARK    3  A    between atoms: C_15  and  S_7 
REMARK    4  A    between atoms: N_9  and  C_16 
REMARK    5  A    between atoms: O_14  and  C_13 
REMARK    6  A    between atoms: C_16  and  C_15 
ROOT
ATOM      1  C   UNL d   1      45.475 -15.148  44.923  0.00  0.00     0.049 A 
ATOM      2  N   UNL d   1      44.427 -14.324  44.887  0.00  0.00    -0.245 NA
ATOM      3  C   UNL d   1      44.651 -15.113  44.923  0.00  0.00     0.087 A 
ATOM      4  C   UNL d   1      45.767 -14.383  44.887  0.00  0.00     0.025 A 
ATOM      5  C   UNL d   1      45.116 -13.866  44.864  0.00  0.00     0.082 A 
ATOM      6  C   UNL d   1      44.143 -15.762  44.955  0.00  0.00     0.021 C 
ATOM      7  C   UNL d   1      46.528 -14.080  44.871  0.00  0.00     0.002 A 
ATOM      8  C   UNL d   1      45.235 -13.051  44.825  0.00  0.00     0.019 A 
ATOM      9  C   UNL d   1      46.647 -13.265  44.833  0.00  0.00     0.000 A 
ATOM     10  C   UNL d   1      46.004 -12.757  44.810  0.00  0.00     0.002 A 
ENDROOT
BRANCH   1  11
ATOM     11  S   UNL d   1      45.932 -15.836  44.955  0.00  0.00    -0.083 SA
BRANCH  11  12
ATOM     12  C   UNL d   1      45.669 -16.520  44.560  0.00  0.00     0.056 C 
BRANCH  12  13
ATOM     13  C   UNL d   1      46.147 -17.194  44.550  0.00  0.00     0.109 C 
BRANCH  13  14
ATOM     14  N   UNL d   1      46.285 -17.575  43.843  0.00  0.00    -0.204 NA
ATOM     15  C   UNL d   1      46.432 -18.383  43.837  0.00  0.00     0.304 C 
ATOM     16  O   UNL d   1      46.439 -18.810  44.546  0.00  0.00    -0.263 OA
BRANCH  15  17
ATOM     17  C   UNL d   1      46.573 -18.773  43.112  0.00  0.00     0.179 C 
BRANCH  17  18
ATOM     18  O   UNL d   1      46.419 -19.583  43.053  0.00  0.00    -0.322 OA
ATOM     19  C   UNL d   1      46.311 -19.932  42.309  0.00  0.00     0.182 C 
ENDBRANCH  17  18
ENDBRANCH  15  17
ENDBRANCH  13  14
ENDBRANCH  12  13
ENDBRANCH  11  12
ENDBRANCH   1  11
TORSDOF 6
ENDMDL
MODEL 3
REMARK VINA RESULT:      12.7      1.934      5.252
REMARK  6 active torsions:
REMARK  status: ('A' for Active; 'I' for Inactive)
REMARK    1  A    between atoms: S_7  and  C_1 
REMARK       I    between atoms: C_6  and  N_9 
REMARK    2  A    between atoms: C_13  and  C_6 
REMARK    3  A    between atoms: C_15  and  S_7 
REMARK    4  A    between atoms: N_9  and  C_16 
REMARK    5  A    between atoms: O_14  and  C_13 
REMARK    6  A    between atoms: C_16  and  C_15 
ROOT
ATOM      1  C   UNL d   1      45.406 -14.272  44.172  0.00  0.00     0.049 A 
ATOM      2  N   UNL d   1      46.136 -13.172  44.360  0.00  0.00    -0.245 NA
ATOM      3  C   UNL d   1      46.095 -13.976  44.518  0.00  0.00     0.087 A 
ATOM      4  C   UNL d   1      45.018 -13.654  43.799  0.00  0.00     0.025 A 
ATOM      5  C   UNL d   1      45.470 -12.966  43.915  0.00  0.00     0.082 A 
ATOM      6  C   UNL d   1      46.644 -14.418  44.946  0.00  0.00     0.021 C 
ATOM      7  C   UNL d   1      44.320 -13.616  43.372  0.00  0.00     0.002 A 
ATOM      8  C   UNL d   1      45.218 -12.247  43.601  0.00  0.00     0.019 A 
ATOM      9  C   UNL d   1      44.067 -12.897  43.058  0.00  0.00     0.000 A 
ATOM     10  C   UNL d   1      44.515 -12.219  43.173  0.00  0.00     0.002 A 
ENDROOT
BRANCH   1  11
ATOM     11  S   UNL d   1      45.149 -15.057  44.195  0.00  0.00    -0.083 SA
BRANCH  11  12
ATOM     12  C   UNL d   1      45.529 -15.626  43.720  0.00  0.00     0.056 C 
BRANCH  12  13
ATOM     13  C   UNL d   1      45.552 -16.414  43.969  0.00  0.00     0.109 C 
BRANCH  13  14
ATOM     14  N   UNL d   1      45.659 -17.003  43.416  0.00  0.00    -0.204 NA
ATOM     15  C   UNL d   1      46.043 -17.698  43.630  0.00  0.00     0.304 C 
ATOM     16  O   UNL d   1      46.319 -17.800  44.402  0.00  0.00    -0.263 OA
BRANCH  15  17
ATOM     17  C   UNL d   1      46.152 -18.301  43.063  0.00  0.00     0.179 C 
BRANCH  17  18
ATOM     18  O   UNL d   1      45.994 -19.085  43.272  0.00  0.00    -0.322 OA
ATOM     19  C   UNL d   1      46.432 -19.702  42.933  0.00  0.00     0.182 C 
ENDBRANCH  17  18
ENDBRANCH  15  17
ENDBRANCH  13  14
ENDBRANCH  12  13
ENDBRANCH  11  12
ENDBRANCH   1  11
TORSDOF 6
ENDMDL
