MODEL 1
REMARK VINA RESULT:      -7.2      0.000      0.000
REMARK  5 active torsions:
REMARK  status: ('A' for Active; 'I' for Inactive)
REMARK    1  A    between atoms: C_2  and  S_1 
REMARK    2  A    between atoms: C_3  and  S_1 
REMARK    3  A    between atoms: C_5  and  C_3 
REMARK    4  A    between atoms: O_13  and  C_8 
REMARK    5  A    between atoms: O_14  and  C_10 
ROOT
ATOM      1  C   UNL d   1      53.534  33.002  53.840  0.00  0.00     0.048 A 
ATOM      2  C   UNL d   1      54.067  33.225  54.423  0.00  0.00     0.030 A 
ATOM      3  C   UNL d   1      54.022  33.986  54.747  0.00  0.00     0.116 A 
ATOM      4  C   UNL d   1      53.447  34.516  54.486  0.00  0.00     0.116 A 
ATOM      5  C   UNL d   1      52.956  33.526  53.573  0.00  0.00     0.006 A 
ATOM      6  C   UNL d   1      52.912  34.281  53.894  0.00  0.00     0.026 A 
ENDROOT
BRANCH   1   7
ATOM      7  C   UNL d   1      53.579  32.241  53.516  0.00  0.00     0.227 C 
ATOM      8  O   UNL d   1      54.285  31.982  53.177  0.00  0.00    -0.279 OA
BRANCH   7   9
ATOM      9  S   UNL d   1      52.917  31.748  53.534  0.00  0.00    -0.020 SA
BRANCH   9  10
ATOM     10  C   UNL d   1      53.016  30.932  53.484  0.00  0.00     0.143 A 
ATOM     11  N   UNL d   1      53.347  30.447  54.073  0.00  0.00    -0.230 NA
ATOM     12  C   UNL d   1      53.336  29.671  53.788  0.00  0.00     0.107 A 
ATOM     13  C   UNL d   1      53.005  29.673  53.035  0.00  0.00     0.058 A 
ATOM     14  S   UNL d   1      52.810  30.449  52.853  0.00  0.00    -0.059 SA
ENDBRANCH   9  10
ENDBRANCH   7   9
ENDBRANCH   1   7
BRANCH   3  15
ATOM     15  O   UNL d   1      54.568  34.186  55.330  0.00  0.00    -0.326 OA
ATOM     16  C   UNL d   1      55.301  33.806  55.352  0.00  0.00     0.181 C 
ENDBRANCH   3  15
BRANCH   4  17
ATOM     17  O   UNL d   1      53.402  35.268  54.805  0.00  0.00    -0.326 OA
ATOM     18  C   UNL d   1      52.795  35.780  54.581  0.00  0.00     0.181 C 
ENDBRANCH   4  17
TORSDOF 5
ENDMDL
MODEL 2
REMARK VINA RESULT:      -7.0      1.164      1.903
REMARK  5 active torsions:
REMARK  status: ('A' for Active; 'I' for Inactive)
REMARK    1  A    between atoms: C_2  and  S_1 
REMARK    2  A    between atoms: C_3  and  S_1 
REMARK    3  A    between atoms: C_5  and  C_3 
REMARK    4  A    between atoms: O_13  and  C_8 
REMARK    5  A    between atoms: O_14  and  C_10 
ROOT
ATOM      1  C   UNL d   1      52.876  33.099  53.331  0.00  0.00     0.048 A 
ATOM      2  C   UNL d   1      52.206  33.500  53.078  0.00  0.00     0.030 A 
ATOM      3  C   UNL d   1      52.092  34.289  53.302  0.00  0.00     0.116 A 
ATOM      4  C   UNL d   1      52.648  34.670  53.778  0.00  0.00     0.116 A 
ATOM      5  C   UNL d   1      53.437  33.473  53.807  0.00  0.00     0.006 A 
ATOM      6  C   UNL d   1      53.323  34.255  54.030  0.00  0.00     0.026 A 
ENDROOT
BRANCH   1   7
ATOM      7  C   UNL d   1      52.989  32.310  53.106  0.00  0.00     0.227 C 
ATOM      8  O   UNL d   1      52.882  32.091  52.318  0.00  0.00    -0.279 OA
BRANCH   7   9
ATOM      9  S   UNL d   1      53.209  31.750  53.671  0.00  0.00    -0.020 SA
BRANCH   9  10
ATOM     10  C   UNL d   1      53.107  30.949  53.511  0.00  0.00     0.143 A 
ATOM     11  N   UNL d   1      52.408  30.596  53.230  0.00  0.00    -0.230 NA
ATOM     12  C   UNL d   1      52.557  29.786  53.149  0.00  0.00     0.107 A 
ATOM     13  C   UNL d   1      53.334  29.638  53.376  0.00  0.00     0.058 A 
ATOM     14  S   UNL d   1      53.667  30.355  53.597  0.00  0.00    -0.059 SA
ENDBRANCH   9  10
ENDBRANCH   7   9
ENDBRANCH   1   7
BRANCH   3  15
ATOM     15  O   UNL d   1      51.412  34.669  53.035  0.00  0.00    -0.326 OA
ATOM     16  C   UNL d   1      50.729  34.228  52.888  0.00  0.00     0.181 C 
ENDBRANCH   3  15
BRANCH   4  17
ATOM     17  O   UNL d   1      52.536  35.449  54.001  0.00  0.00    -0.326 OA
ATOM     18  C   UNL d   1      53.035  35.798  54.558  0.00  0.00     0.181 C 
ENDBRANCH   4  17
TORSDOF 5
ENDMDL
MODEL 3
REMARK VINA RESULT:      -6.7      2.326      3.393
REMARK  5 active torsions:
REMARK  status: ('A' for Active; 'I' for Inactive)
REMARK    1  A    between atoms: C_2  and  S_1 
REMARK    2  A    between atoms: C_3  and  S_1 
REMARK    3  A    between atoms: C_5  and  C_3 
REMARK    4  A    between atoms: O_13  and  C_8 
REMARK    5  A    between atoms: O_14  and  C_10 
ROOT
ATOM      1  C   UNL d   1      52.541  33.430  53.781  0.00  0.00     0.048 A 
ATOM      2  C   UNL d   1      52.968  32.754  53.600  0.00  0.00     0.030 A 
ATOM      3  C   UNL d   1      53.717  32.641  53.936  0.00  0.00     0.116 A 
ATOM      4  C   UNL d   1      54.031  33.204  54.450  0.00  0.00     0.116 A 
ATOM      5  C   UNL d   1      52.847  33.999  54.294  0.00  0.00     0.006 A 
ATOM      6  C   UNL d   1      53.590  33.886  54.628  0.00  0.00     0.026 A 
ENDROOT
BRANCH   1   7
ATOM      7  C   UNL d   1      51.792  33.543  53.445  0.00  0.00     0.227 C 
ATOM      8  O   UNL d   1      51.180  33.021  53.628  0.00  0.00    -0.279 OA
BRANCH   7   9
ATOM      9  S   UNL d   1      51.665  34.176  52.931  0.00  0.00    -0.020 SA
BRANCH   9  10
ATOM     10  C   UNL d   1      50.913  34.302  52.619  0.00  0.00     0.143 A 
ATOM     11  N   UNL d   1      50.255  34.585  53.041  0.00  0.00    -0.230 NA
ATOM     12  C   UNL d   1      49.621  34.625  52.511  0.00  0.00     0.107 A 
ATOM     13  C   UNL d   1      49.881  34.371  51.773  0.00  0.00     0.058 A 
ATOM     14  S   UNL d   1      50.674  34.174  51.844  0.00  0.00    -0.059 SA
ENDBRANCH   9  10
ENDBRANCH   7   9
ENDBRANCH   1   7
BRANCH   3  15
ATOM     15  O   UNL d   1      54.126  31.954  53.738  0.00  0.00    -0.326 OA
ATOM     16  C   UNL d   1      53.705  31.269  53.549  0.00  0.00     0.181 C 
ENDBRANCH   3  15
BRANCH   4  17
ATOM     17  O   UNL d   1      54.770  33.094  54.783  0.00  0.00    -0.326 OA
ATOM     18  C   UNL d   1      55.139  33.709  55.190  0.00  0.00     0.181 C 
ENDBRANCH   4  17
TORSDOF 5
ENDMDL
MODEL 4
REMARK VINA RESULT:      -5.8      2.115      4.287
REMARK  5 active torsions:
REMARK  status: ('A' for Active; 'I' for Inactive)
REMARK    1  A    between atoms: C_2  and  S_1 
REMARK    2  A    between atoms: C_3  and  S_1 
REMARK    3  A    between atoms: C_5  and  C_3 
REMARK    4  A    between atoms: O_13  and  C_8 
REMARK    5  A    between atoms: O_14  and  C_10 
ROOT
ATOM      1  C   UNL d   1      52.982  31.346  53.324  0.00  0.00     0.048 A 
ATOM      2  C   UNL d   1      52.343  30.838  53.235  0.00  0.00     0.030 A 
ATOM      3  C   UNL d   1      52.415  30.047  53.467  0.00  0.00     0.116 A 
ATOM      4  C   UNL d   1      53.123  29.770  53.787  0.00  0.00     0.116 A 
ATOM      5  C   UNL d   1      53.694  31.078  53.643  0.00  0.00     0.006 A 
ATOM      6  C   UNL d   1      53.764  30.292  53.873  0.00  0.00     0.026 A 
ENDROOT
BRANCH   1   7
ATOM      7  C   UNL d   1      52.910  32.138  53.091  0.00  0.00     0.227 C 
ATOM      8  O   UNL d   1      52.801  32.320  52.294  0.00  0.00    -0.279 OA
BRANCH   7   9
ATOM      9  S   UNL d   1      52.947  32.736  53.657  0.00  0.00    -0.020 SA
BRANCH   9  10
ATOM     10  C   UNL d   1      52.640  33.481  53.483  0.00  0.00     0.143 A 
ATOM     11  N   UNL d   1      51.840  33.651  53.330  0.00  0.00    -0.230 NA
ATOM     12  C   UNL d   1      51.786  34.464  53.184  0.00  0.00     0.107 A 
ATOM     13  C   UNL d   1      52.538  34.792  53.245  0.00  0.00     0.058 A 
ATOM     14  S   UNL d   1      53.058  34.185  53.430  0.00  0.00    -0.059 SA
ENDBRANCH   9  10
ENDBRANCH   7   9
ENDBRANCH   1   7
BRANCH   3  15
ATOM     15  O   UNL d   1      51.761  29.557  53.367  0.00  0.00    -0.326 OA
ATOM     16  C   UNL d   1      51.015  29.818  53.610  0.00  0.00     0.181 C 
ENDBRANCH   3  15
BRANCH   4  17
ATOM     17  O   UNL d   1      53.196  28.988  54.017  0.00  0.00    -0.326 OA
ATOM     18  C   UNL d   1      53.688  28.783  54.647  0.00  0.00     0.181 C 
ENDBRANCH   4  17
TORSDOF 5
ENDMDL
