MODEL 1
REMARK VINA RESULT:      -2.0      0.000      0.000
REMARK  4 active torsions:
REMARK  status: ('A' for Active; 'I' for Inactive)
REMARK    1  A    between atoms: C_10  and  C_3 
REMARK    2  A    between atoms: N_11  and  C_4 
REMARK    3  A    between atoms: C_14  and  N_11 
REMARK    4  A    between atoms: C_15  and  C_14 
ROOT
ATOM      1  C   UNL d   1      33.214  21.870 -22.891  0.00  0.00     0.150 A 
ATOM      2  N   UNL d   1      33.220  21.042 -22.904  0.00  0.00    -0.275 N 
ATOM      3  C   UNL d   1      33.220  22.289 -23.590  0.00  0.00     0.056 A 
ATOM      4  C   UNL d   1      33.234  20.654 -23.620  0.00  0.00     0.149 A 
ATOM      5  N   UNL d   1      33.200  22.273 -22.189  0.00  0.00    -0.227 NA
ATOM      6  C   UNL d   1      33.234  21.886 -24.310  0.00  0.00     0.007 A 
ATOM      7  C   UNL d   1      33.241  21.076 -24.323  0.00  0.00     0.038 A 
ATOM      8  C   UNL d   1      33.200  21.026 -21.489  0.00  0.00     0.084 A 
ATOM      9  C   UNL d   1      33.193  21.851 -21.479  0.00  0.00     0.099 A 
ATOM     10  C   UNL d   1      33.241  22.308 -25.008  0.00  0.00     0.000 C 
ATOM     11  C   UNL d   1      33.193  20.611 -20.787  0.00  0.00     0.019 A 
ATOM     12  C   UNL d   1      33.180  22.238 -20.759  0.00  0.00     0.021 A 
ATOM     13  C   UNL d   1      33.179  20.999 -20.074  0.00  0.00     0.002 A 
ATOM     14  C   UNL d   1      33.173  21.824 -20.056  0.00  0.00     0.002 A 
ENDROOT
BRANCH   4  15
ATOM     15  N   UNL d   1      33.240  19.803 -23.623  0.00  0.00    -0.225 NA
BRANCH  15  16
ATOM     16  C   UNL d   1      32.705  19.368 -24.128  0.00  0.00     0.120 C 
BRANCH  16  17
ATOM     17  C   UNL d   1      32.675  18.518 -24.093  0.00  0.00     0.101 A 
ATOM     18  N   UNL d   1      33.129  18.054 -24.658  0.00  0.00    -0.242 NA
ATOM     19  C   UNL d   1      33.099  17.203 -24.623  0.00  0.00     0.099 A 
ATOM     20  C   UNL d   1      32.619  16.813 -24.028  0.00  0.00     0.021 A 
ATOM     21  C   UNL d   1      32.161  17.285 -23.457  0.00  0.00     0.003 A 
ATOM     22  C   UNL d   1      32.198  18.135 -23.501  0.00  0.00     0.021 A 
ENDBRANCH  16  17
ENDBRANCH  15  16
ENDBRANCH   4  15
BRANCH   3  23
ATOM     23  C   UNL d   1      33.214  23.098 -23.579  0.00  0.00     0.125 C 
ATOM     24  N   UNL d   1      32.651  23.479 -24.055  0.00  0.00    -0.146 N 
ENDBRANCH   3  23
TORSDOF 4
ENDMDL
MODEL 2
REMARK VINA RESULT:      -1.1      1.944      5.370
REMARK  4 active torsions:
REMARK  status: ('A' for Active; 'I' for Inactive)
REMARK    1  A    between atoms: C_10  and  C_3 
REMARK    2  A    between atoms: N_11  and  C_4 
REMARK    3  A    between atoms: C_14  and  N_11 
REMARK    4  A    between atoms: C_15  and  C_14 
ROOT
ATOM      1  C   UNL d   1      31.403  16.819 -23.823  0.00  0.00     0.150 A 
ATOM      2  N   UNL d   1      31.652  17.560 -24.098  0.00  0.00    -0.275 N 
ATOM      3  C   UNL d   1      31.930  16.329 -23.440  0.00  0.00     0.056 A 
ATOM      4  C   UNL d   1      32.425  17.791 -23.981  0.00  0.00     0.149 A 
ATOM      5  N   UNL d   1      30.639  16.573 -23.929  0.00  0.00    -0.227 NA
ATOM      6  C   UNL d   1      32.710  16.572 -23.328  0.00  0.00     0.007 A 
ATOM      7  C   UNL d   1      32.954  17.297 -23.597  0.00  0.00     0.038 A 
ATOM      8  C   UNL d   1      30.349  17.806 -24.591  0.00  0.00     0.084 A 
ATOM      9  C   UNL d   1      30.104  17.068 -24.316  0.00  0.00     0.099 A 
ATOM     10  C   UNL d   1      33.235  16.079 -22.944  0.00  0.00     0.000 C 
ATOM     11  C   UNL d   1      29.818  18.294 -24.973  0.00  0.00     0.019 A 
ATOM     12  C   UNL d   1      29.328  16.839 -24.434  0.00  0.00     0.021 A 
ATOM     13  C   UNL d   1      29.048  18.063 -25.089  0.00  0.00     0.002 A 
ATOM     14  C   UNL d   1      28.797  17.326 -24.816  0.00  0.00     0.002 A 
ENDROOT
BRANCH   4  15
ATOM     15  N   UNL d   1      32.670  18.554 -24.268  0.00  0.00    -0.225 NA
BRANCH  15  16
ATOM     16  C   UNL d   1      33.046  19.112 -23.741  0.00  0.00     0.120 C 
BRANCH  16  17
ATOM     17  C   UNL d   1      33.101  19.934 -23.954  0.00  0.00     0.101 A 
ATOM     18  N   UNL d   1      33.135  20.155 -24.786  0.00  0.00    -0.242 NA
ATOM     19  C   UNL d   1      33.190  20.979 -24.999  0.00  0.00     0.099 A 
ATOM     20  C   UNL d   1      33.211  21.581 -24.388  0.00  0.00     0.021 A 
ATOM     21  C   UNL d   1      33.176  21.355 -23.548  0.00  0.00     0.003 A 
ATOM     22  C   UNL d   1      33.122  20.529 -23.346  0.00  0.00     0.021 A 
ENDBRANCH  16  17
ENDBRANCH  15  16
ENDBRANCH   4  15
BRANCH   3  23
ATOM     23  C   UNL d   1      31.689  15.604 -23.171  0.00  0.00     0.125 C 
ATOM     24  N   UNL d   1      31.674  15.491 -22.349  0.00  0.00    -0.146 N 
ENDBRANCH   3  23
TORSDOF 4
ENDMDL
MODEL 3
REMARK VINA RESULT:      -0.3      0.833      1.104
REMARK  4 active torsions:
REMARK  status: ('A' for Active; 'I' for Inactive)
REMARK    1  A    between atoms: C_10  and  C_3 
REMARK    2  A    between atoms: N_11  and  C_4 
REMARK    3  A    between atoms: C_14  and  N_11 
REMARK    4  A    between atoms: C_15  and  C_14 
ROOT
ATOM      1  C   UNL d   1      33.190  20.957 -22.805  0.00  0.00     0.150 A 
ATOM      2  N   UNL d   1      33.192  20.133 -22.718  0.00  0.00    -0.275 N 
ATOM      3  C   UNL d   1      33.205  21.288 -23.549  0.00  0.00     0.056 A 
ATOM      4  C   UNL d   1      33.210  19.661 -23.382  0.00  0.00     0.149 A 
ATOM      5  N   UNL d   1      33.172  21.442 -22.157  0.00  0.00    -0.227 NA
ATOM      6  C   UNL d   1      33.224  20.800 -24.215  0.00  0.00     0.007 A 
ATOM      7  C   UNL d   1      33.226  19.995 -24.130  0.00  0.00     0.038 A 
ATOM      8  C   UNL d   1      33.158  20.289 -21.312  0.00  0.00     0.084 A 
ATOM      9  C   UNL d   1      33.155  21.109 -21.402  0.00  0.00     0.099 A 
ATOM     10  C   UNL d   1      33.240  21.135 -24.960  0.00  0.00     0.000 C 
ATOM     11  C   UNL d   1      33.142  19.962 -20.564  0.00  0.00     0.019 A 
ATOM     12  C   UNL d   1      33.137  21.580 -20.734  0.00  0.00     0.021 A 
ATOM     13  C   UNL d   1      33.123  20.434 -19.904  0.00  0.00     0.002 A 
ATOM     14  C   UNL d   1      33.121  21.255 -19.986  0.00  0.00     0.002 A 
ENDROOT
BRANCH   4  15
ATOM     15  N   UNL d   1      33.212  18.816 -23.281  0.00  0.00    -0.225 NA
BRANCH  15  16
ATOM     16  C   UNL d   1      32.527  18.353 -23.499  0.00  0.00     0.120 C 
BRANCH  16  17
ATOM     17  C   UNL d   1      32.600  17.517 -23.640  0.00  0.00     0.101 A 
ATOM     18  N   UNL d   1      32.899  17.006 -23.014  0.00  0.00    -0.242 NA
ATOM     19  C   UNL d   1      32.972  16.169 -23.155  0.00  0.00     0.099 A 
ATOM     20  C   UNL d   1      32.749  15.839 -23.915  0.00  0.00     0.021 A 
ATOM     21  C   UNL d   1      32.448  16.358 -24.547  0.00  0.00     0.003 A 
ATOM     22  C   UNL d   1      32.379  17.194 -24.395  0.00  0.00     0.021 A 
ENDBRANCH  16  17
ENDBRANCH  15  16
ENDBRANCH   4  15
BRANCH   3  23
ATOM     23  C   UNL d   1      33.203  22.093 -23.637  0.00  0.00     0.125 C 
ATOM     24  N   UNL d   1      33.183  22.389 -24.411  0.00  0.00    -0.146 N 
ENDBRANCH   3  23
TORSDOF 4
ENDMDL
