MODEL 1
REMARK VINA RESULT:      -6.5      0.000      0.000
REMARK  5 active torsions:
REMARK  status: ('A' for Active; 'I' for Inactive)
REMARK    1  A    between atoms: C_2  and  C_1 
REMARK    2  A    between atoms: C_6  and  C_2 
REMARK    3  A    between atoms: C_3  and  O_5 
REMARK    4  A    between atoms: C_11  and  C_3 
REMARK    5  A    between atoms: O_5  and  C_6 
ROOT
ATOM      1  O   UNL d   1     -48.234  14.392  22.932  0.00  0.00    -0.268 OA
ENDROOT
BRANCH   1   2
ATOM      2  C   UNL d   1     -48.876  14.629  22.463  0.00  0.00     0.300 C 
ATOM      3  O   UNL d   1     -48.825  14.554  21.655  0.00  0.00    -0.259 OA
BRANCH   2   4
ATOM      4  C   UNL d   1     -49.554  14.935  22.806  0.00  0.00     0.064 A 
ATOM      5  C   UNL d   1     -49.506  15.547  23.345  0.00  0.00     0.005 A 
ATOM      6  C   UNL d   1     -50.184  15.850  23.685  0.00  0.00     0.000 A 
ATOM      7  C   UNL d   1     -50.916  15.545  23.491  0.00  0.00     0.000 A 
ATOM      8  C   UNL d   1     -50.970  14.927  22.948  0.00  0.00     0.000 A 
ATOM      9  C   UNL d   1     -50.289  14.618  22.602  0.00  0.00     0.005 A 
ENDBRANCH   2   4
ENDBRANCH   1   2
BRANCH   1  10
ATOM     10  C   UNL d   1     -47.801  13.708  22.715  0.00  0.00     0.168 C 
BRANCH  10  11
ATOM     11  C   UNL d   1     -47.105  13.507  23.097  0.00  0.00     0.226 C 
ATOM     12  O   UNL d   1     -46.531  14.069  23.288  0.00  0.00    -0.284 OA
BRANCH  11  13
ATOM     13  C   UNL d   1     -46.986  12.674  23.296  0.00  0.00     0.070 A 
ATOM     14  S   UNL d   1     -46.245  12.244  23.266  0.00  0.00    -0.083 SA
ATOM     15  C   UNL d   1     -46.393  11.428  23.513  0.00  0.00     0.035 A 
ATOM     16  C   UNL d   1     -47.234  11.353  23.698  0.00  0.00     0.008 A 
ATOM     17  C   UNL d   1     -47.604  12.121  23.565  0.00  0.00     0.010 A 
ENDBRANCH  11  13
ENDBRANCH  10  11
ENDBRANCH   1  10
TORSDOF 5
ENDMDL
MODEL 2
REMARK VINA RESULT:      -6.5      1.405      4.188
REMARK  5 active torsions:
REMARK  status: ('A' for Active; 'I' for Inactive)
REMARK    1  A    between atoms: C_2  and  C_1 
REMARK    2  A    between atoms: C_6  and  C_2 
REMARK    3  A    between atoms: C_3  and  O_5 
REMARK    4  A    between atoms: C_11  and  C_3 
REMARK    5  A    between atoms: O_5  and  C_6 
ROOT
ATOM      1  O   UNL d   1     -47.954  13.887  22.593  0.00  0.00    -0.268 OA
ENDROOT
BRANCH   1   2
ATOM      2  C   UNL d   1     -47.160  14.012  22.800  0.00  0.00     0.300 C 
ATOM      3  O   UNL d   1     -46.901  14.770  22.938  0.00  0.00    -0.259 OA
BRANCH   2   4
ATOM      4  C   UNL d   1     -46.641  13.381  22.866  0.00  0.00     0.064 A 
ATOM      5  C   UNL d   1     -46.800  12.764  23.378  0.00  0.00     0.005 A 
ATOM      6  C   UNL d   1     -46.281  12.137  23.442  0.00  0.00     0.000 A 
ATOM      7  C   UNL d   1     -45.598  12.119  22.994  0.00  0.00     0.000 A 
ATOM      8  C   UNL d   1     -45.434  12.738  22.475  0.00  0.00     0.000 A 
ATOM      9  C   UNL d   1     -45.954  13.373  22.408  0.00  0.00     0.005 A 
ENDBRANCH   2   4
ENDBRANCH   1   2
BRANCH   1  10
ATOM     10  C   UNL d   1     -48.500  14.517  22.674  0.00  0.00     0.168 C 
BRANCH  10  11
ATOM     11  C   UNL d   1     -49.269  14.451  22.400  0.00  0.00     0.226 C 
ATOM     12  O   UNL d   1     -49.451  14.073  21.690  0.00  0.00    -0.284 OA
BRANCH  11  13
ATOM     13  C   UNL d   1     -49.896  14.794  22.887  0.00  0.00     0.070 A 
ATOM     14  S   UNL d   1     -50.534  14.368  23.271  0.00  0.00    -0.083 SA
ATOM     15  C   UNL d   1     -51.026  14.939  23.697  0.00  0.00     0.035 A 
ATOM     16  C   UNL d   1     -50.689  15.725  23.575  0.00  0.00     0.008 A 
ATOM     17  C   UNL d   1     -49.990  15.640  23.075  0.00  0.00     0.010 A 
ENDBRANCH  11  13
ENDBRANCH  10  11
ENDBRANCH   1  10
TORSDOF 5
ENDMDL
MODEL 3
REMARK VINA RESULT:      -6.2      1.924      3.980
REMARK  5 active torsions:
REMARK  status: ('A' for Active; 'I' for Inactive)
REMARK    1  A    between atoms: C_2  and  C_1 
REMARK    2  A    between atoms: C_6  and  C_2 
REMARK    3  A    between atoms: C_3  and  O_5 
REMARK    4  A    between atoms: C_11  and  C_3 
REMARK    5  A    between atoms: O_5  and  C_6 
ROOT
ATOM      1  O   UNL d   1     -47.831  13.399  22.262  0.00  0.00    -0.268 OA
ENDROOT
BRANCH   1   2
ATOM      2  C   UNL d   1     -47.171  13.672  22.684  0.00  0.00     0.300 C 
ATOM      3  O   UNL d   1     -47.244  14.334  23.149  0.00  0.00    -0.259 OA
BRANCH   2   4
ATOM      4  C   UNL d   1     -46.453  13.280  22.635  0.00  0.00     0.064 A 
ATOM      5  C   UNL d   1     -45.863  13.554  22.140  0.00  0.00     0.005 A 
ATOM      6  C   UNL d   1     -45.149  13.161  22.093  0.00  0.00     0.000 A 
ATOM      7  C   UNL d   1     -45.016  12.491  22.541  0.00  0.00     0.000 A 
ATOM      8  C   UNL d   1     -45.607  12.211  23.042  0.00  0.00     0.000 A 
ATOM      9  C   UNL d   1     -46.329  12.603  23.092  0.00  0.00     0.005 A 
ENDBRANCH   2   4
ENDBRANCH   1   2
BRANCH   1  10
ATOM     10  C   UNL d   1     -48.599  13.568  22.552  0.00  0.00     0.168 C 
BRANCH  10  11
ATOM     11  C   UNL d   1     -49.269  13.304  22.161  0.00  0.00     0.226 C 
ATOM     12  O   UNL d   1     -49.330  13.315  21.339  0.00  0.00    -0.284 OA
BRANCH  11  13
ATOM     13  C   UNL d   1     -49.921  13.008  22.646  0.00  0.00     0.070 A 
ATOM     14  S   UNL d   1     -50.531  13.481  23.021  0.00  0.00    -0.083 SA
ATOM     15  C   UNL d   1     -51.064  12.949  23.447  0.00  0.00     0.035 A 
ATOM     16  C   UNL d   1     -50.781  12.140  23.335  0.00  0.00     0.008 A 
ATOM     17  C   UNL d   1     -50.075  12.173  22.841  0.00  0.00     0.010 A 
ENDBRANCH  11  13
ENDBRANCH  10  11
ENDBRANCH   1  10
TORSDOF 5
ENDMDL
MODEL 4
REMARK VINA RESULT:      -5.6      9.249     10.444
REMARK  5 active torsions:
REMARK  status: ('A' for Active; 'I' for Inactive)
REMARK    1  A    between atoms: C_2  and  C_1 
REMARK    2  A    between atoms: C_6  and  C_2 
REMARK    3  A    between atoms: C_3  and  O_5 
REMARK    4  A    between atoms: C_11  and  C_3 
REMARK    5  A    between atoms: O_5  and  C_6 
ROOT
ATOM      1  O   UNL d   1     -39.511  14.216  18.549  0.00  0.00    -0.268 OA
ENDROOT
BRANCH   1   2
ATOM      2  C   UNL d   1     -40.315  14.311  18.734  0.00  0.00     0.300 C 
ATOM      3  O   UNL d   1     -40.876  14.017  18.223  0.00  0.00    -0.259 OA
BRANCH   2   4
ATOM      4  C   UNL d   1     -40.543  14.695  19.420  0.00  0.00     0.064 A 
ATOM      5  C   UNL d   1     -40.692  14.271  20.103  0.00  0.00     0.005 A 
ATOM      6  C   UNL d   1     -40.919  14.657  20.786  0.00  0.00     0.000 A 
ATOM      7  C   UNL d   1     -41.001  15.469  20.794  0.00  0.00     0.000 A 
ATOM      8  C   UNL d   1     -40.852  15.901  20.108  0.00  0.00     0.000 A 
ATOM      9  C   UNL d   1     -40.623  15.517  19.417  0.00  0.00     0.005 A 
ENDBRANCH   2   4
ENDBRANCH   1   2
BRANCH   1  10
ATOM     10  C   UNL d   1     -39.287  14.102  17.749  0.00  0.00     0.168 C 
BRANCH  10  11
ATOM     11  C   UNL d   1     -38.507  13.962  17.542  0.00  0.00     0.226 C 
ATOM     12  O   UNL d   1     -37.940  13.736  18.097  0.00  0.00    -0.284 OA
BRANCH  11  13
ATOM     13  C   UNL d   1     -38.294  14.059  16.711  0.00  0.00     0.070 A 
ATOM     14  S   UNL d   1     -38.130  14.801  16.311  0.00  0.00    -0.083 SA
ATOM     15  C   UNL d   1     -37.941  14.629  15.484  0.00  0.00     0.035 A 
ATOM     16  C   UNL d   1     -37.988  13.773  15.371  0.00  0.00     0.008 A 
ATOM     17  C   UNL d   1     -38.205  13.418  16.127  0.00  0.00     0.010 A 
ENDBRANCH  11  13
ENDBRANCH  10  11
ENDBRANCH   1  10
TORSDOF 5
ENDMDL
MODEL 5
REMARK VINA RESULT:      -5.6      9.255     10.151
REMARK  5 active torsions:
REMARK  status: ('A' for Active; 'I' for Inactive)
REMARK    1  A    between atoms: C_2  and  C_1 
REMARK    2  A    between atoms: C_6  and  C_2 
REMARK    3  A    between atoms: C_3  and  O_5 
REMARK    4  A    between atoms: C_11  and  C_3 
REMARK    5  A    between atoms: O_5  and  C_6 
ROOT
ATOM      1  O   UNL d   1     -39.780  14.289  19.744  0.00  0.00    -0.268 OA
ENDROOT
BRANCH   1   2
ATOM      2  C   UNL d   1     -39.395  14.637  20.392  0.00  0.00     0.300 C 
ATOM      3  O   UNL d   1     -39.316  15.446  20.417  0.00  0.00    -0.259 OA
BRANCH   2   4
ATOM      4  C   UNL d   1     -39.099  14.174  21.000  0.00  0.00     0.064 A 
ATOM      5  C   UNL d   1     -39.512  14.096  21.701  0.00  0.00     0.005 A 
ATOM      6  C   UNL d   1     -39.215  13.635  22.305  0.00  0.00     0.000 A 
ATOM      7  C   UNL d   1     -38.502  13.246  22.216  0.00  0.00     0.000 A 
ATOM      8  C   UNL d   1     -38.081  13.322  21.511  0.00  0.00     0.000 A 
ATOM      9  C   UNL d   1     -38.377  13.786  20.898  0.00  0.00     0.005 A 
ENDBRANCH   2   4
ENDBRANCH   1   2
BRANCH   1  10
ATOM     10  C   UNL d   1     -40.024  14.774  19.106  0.00  0.00     0.168 C 
BRANCH  10  11
ATOM     11  C   UNL d   1     -40.405  14.459  18.454  0.00  0.00     0.226 C 
ATOM     12  O   UNL d   1     -40.693  13.685  18.444  0.00  0.00    -0.284 OA
BRANCH  11  13
ATOM     13  C   UNL d   1     -40.499  14.969  17.763  0.00  0.00     0.070 A 
ATOM     14  S   UNL d   1     -39.972  15.013  17.086  0.00  0.00    -0.083 SA
ATOM     15  C   UNL d   1     -40.287  15.599  16.533  0.00  0.00     0.035 A 
ATOM     16  C   UNL d   1     -41.015  15.921  16.869  0.00  0.00     0.008 A 
ATOM     17  C   UNL d   1     -41.149  15.534  17.629  0.00  0.00     0.010 A 
ENDBRANCH  11  13
ENDBRANCH  10  11
ENDBRANCH   1  10
TORSDOF 5
ENDMDL
MODEL 6
REMARK VINA RESULT:      -5.5      8.484      9.473
REMARK  5 active torsions:
REMARK  status: ('A' for Active; 'I' for Inactive)
REMARK    1  A    between atoms: C_2  and  C_1 
REMARK    2  A    between atoms: C_6  and  C_2 
REMARK    3  A    between atoms: C_3  and  O_5 
REMARK    4  A    between atoms: C_11  and  C_3 
REMARK    5  A    between atoms: O_5  and  C_6 
ROOT
ATOM      1  O   UNL d   1     -40.715  14.901  19.192  0.00  0.00    -0.268 OA
ENDROOT
BRANCH   1   2
ATOM      2  C   UNL d   1     -40.699  14.506  18.462  0.00  0.00     0.300 C 
ATOM      3  O   UNL d   1     -40.891  13.717  18.435  0.00  0.00    -0.259 OA
BRANCH   2   4
ATOM      4  C   UNL d   1     -40.494  14.904  17.776  0.00  0.00     0.064 A 
ATOM      5  C   UNL d   1     -41.009  15.441  17.437  0.00  0.00     0.005 A 
ATOM      6  C   UNL d   1     -40.801  15.836  16.753  0.00  0.00     0.000 A 
ATOM      7  C   UNL d   1     -40.077  15.699  16.401  0.00  0.00     0.000 A 
ATOM      8  C   UNL d   1     -39.554  15.159  16.738  0.00  0.00     0.000 A 
ATOM      9  C   UNL d   1     -39.759  14.758  17.428  0.00  0.00     0.005 A 
ENDBRANCH   2   4
ENDBRANCH   1   2
BRANCH   1  10
ATOM     10  C   UNL d   1     -40.524  14.477  19.889  0.00  0.00     0.168 C 
BRANCH  10  11
ATOM     11  C   UNL d   1     -40.596  14.821  20.628  0.00  0.00     0.226 C 
ATOM     12  O   UNL d   1     -41.220  15.327  20.819  0.00  0.00    -0.284 OA
BRANCH  11  13
ATOM     13  C   UNL d   1     -39.988  14.635  21.214  0.00  0.00     0.070 A 
ATOM     14  S   UNL d   1     -39.411  15.180  21.540  0.00  0.00    -0.083 SA
ATOM     15  C   UNL d   1     -38.917  14.749  22.105  0.00  0.00     0.035 A 
ATOM     16  C   UNL d   1     -39.191  13.930  22.128  0.00  0.00     0.008 A 
ATOM     17  C   UNL d   1     -39.852  13.855  21.579  0.00  0.00     0.010 A 
ENDBRANCH  11  13
ENDBRANCH  10  11
ENDBRANCH   1  10
TORSDOF 5
ENDMDL
MODEL 7
REMARK VINA RESULT:      -5.3      9.648     11.191
REMARK  5 active torsions:
REMARK  status: ('A' for Active; 'I' for Inactive)
REMARK    1  A    between atoms: C_2  and  C_1 
REMARK    2  A    between atoms: C_6  and  C_2 
REMARK    3  A    between atoms: C_3  and  O_5 
REMARK    4  A    between atoms: C_11  and  C_3 
REMARK    5  A    between atoms: O_5  and  C_6 
ROOT
ATOM      1  O   UNL d   1     -39.309  14.221  17.564  0.00  0.00    -0.268 OA
ENDROOT
BRANCH   1   2
ATOM      2  C   UNL d   1     -38.527  14.321  17.306  0.00  0.00     0.300 C 
ATOM      3  O   UNL d   1     -37.953  14.515  17.848  0.00  0.00    -0.259 OA
BRANCH   2   4
ATOM      4  C   UNL d   1     -38.332  14.227  16.516  0.00  0.00     0.064 A 
ATOM      5  C   UNL d   1     -38.295  14.874  16.017  0.00  0.00     0.005 A 
ATOM      6  C   UNL d   1     -38.100  14.777  15.231  0.00  0.00     0.000 A 
ATOM      7  C   UNL d   1     -37.940  14.033  14.933  0.00  0.00     0.000 A 
ATOM      8  C   UNL d   1     -37.976  13.378  15.431  0.00  0.00     0.000 A 
ATOM      9  C   UNL d   1     -38.172  13.470  16.225  0.00  0.00     0.005 A 
ENDBRANCH   2   4
ENDBRANCH   1   2
BRANCH   1  10
ATOM     10  C   UNL d   1     -39.531  14.514  18.317  0.00  0.00     0.168 C 
BRANCH  10  11
ATOM     11  C   UNL d   1     -40.303  14.454  18.585  0.00  0.00     0.226 C 
ATOM     12  O   UNL d   1     -40.877  14.022  18.180  0.00  0.00    -0.284 OA
BRANCH  11  13
ATOM     13  C   UNL d   1     -40.501  14.866  19.319  0.00  0.00     0.070 A 
ATOM     14  S   UNL d   1     -40.548  14.517  20.102  0.00  0.00    -0.083 SA
ATOM     15  C   UNL d   1     -40.763  15.138  20.665  0.00  0.00     0.035 A 
ATOM     16  C   UNL d   1     -40.850  15.878  20.227  0.00  0.00     0.008 A 
ATOM     17  C   UNL d   1     -40.688  15.714  19.395  0.00  0.00     0.010 A 
ENDBRANCH  11  13
ENDBRANCH  10  11
ENDBRANCH   1  10
TORSDOF 5
ENDMDL
