MODEL 1
REMARK VINA RESULT:      -0.9      0.000      0.000
REMARK  2 active torsions:
REMARK  status: ('A' for Active; 'I' for Inactive)
REMARK    1  A    between atoms: C_7  and  C_1 
REMARK    2  A    between atoms: C_9  and  C_1 
ROOT
ATOM      1  C   UNL d   1     -42.900-122.542 -49.930  0.00  0.00     0.240 A 
ATOM      2  S   UNL d   1     -42.897-122.253 -50.697  0.00  0.00    -0.043 SA
ATOM      3  N   UNL d   1     -42.307-123.063 -49.689  0.00  0.00    -0.199 NA
ATOM      4  C   UNL d   1     -42.308-122.481 -51.225  0.00  0.00     0.181 A 
ATOM      5  N   UNL d   1     -41.716-123.002 -50.984  0.00  0.00    -0.237 N 
ATOM      6  C   UNL d   1     -41.712-123.296 -50.215  0.00  0.00     0.352 A 
ATOM      7  N   UNL d   1     -42.311-122.187 -51.994  0.00  0.00    -0.221 NA
ATOM      8  O   UNL d   1     -41.123-123.817 -49.967  0.00  0.00    -0.244 OA
ATOM      9  C   UNL d   1     -41.126-123.229 -51.512  0.00  0.00     0.088 A 
ATOM     10  C   UNL d   1     -41.725-122.414 -52.515  0.00  0.00     0.103 A 
ATOM     11  C   UNL d   1     -41.133-122.936 -52.274  0.00  0.00     0.040 A 
ENDROOT
BRANCH   1  12
ATOM     12  C   UNL d   1     -43.492-122.021 -50.171  0.00  0.00     0.429 C 
ATOM     13  F   UNL d   1     -44.039-121.557 -50.392  0.00  0.00    -0.167 F 
ATOM     14  F   UNL d   1     -44.287-122.208 -50.432  0.00  0.00    -0.167 F 
ATOM     15  F   UNL d   1     -43.476-121.171 -50.224  0.00  0.00    -0.167 F 
ENDBRANCH   1  12
BRANCH   1  16
ATOM     16  C   UNL d   1     -42.890-122.841 -49.159  0.00  0.00     0.016 A 
ATOM     17  C   UNL d   1     -43.342-123.513 -48.974  0.00  0.00    -0.001 A 
ATOM     18  C   UNL d   1     -43.335-123.814 -48.205  0.00  0.00    -0.000 A 
ATOM     19  C   UNL d   1     -42.874-123.442 -47.619  0.00  0.00    -0.000 A 
ATOM     20  C   UNL d   1     -42.428-122.773 -47.816  0.00  0.00    -0.000 A 
ATOM     21  C   UNL d   1     -42.433-122.469 -48.582  0.00  0.00    -0.001 A 
ENDBRANCH   1  16
TORSDOF 2
ENDMDL
MODEL 2
REMARK VINA RESULT:      -0.7      1.489      2.203
REMARK  2 active torsions:
REMARK  status: ('A' for Active; 'I' for Inactive)
REMARK    1  A    between atoms: C_7  and  C_1 
REMARK    2  A    between atoms: C_9  and  C_1 
ROOT
ATOM      1  C   UNL d   1     -41.757-121.813 -51.346  0.00  0.00     0.240 A 
ATOM      2  S   UNL d   1     -41.699-121.351 -52.020  0.00  0.00    -0.043 SA
ATOM      3  N   UNL d   1     -41.740-122.635 -51.415  0.00  0.00    -0.199 NA
ATOM      4  C   UNL d   1     -41.624-121.701 -52.761  0.00  0.00     0.181 A 
ATOM      5  N   UNL d   1     -41.606-122.523 -52.829  0.00  0.00    -0.237 N 
ATOM      6  C   UNL d   1     -41.664-122.995 -52.157  0.00  0.00     0.352 A 
ATOM      7  N   UNL d   1     -41.565-121.231 -53.434  0.00  0.00    -0.221 NA
ATOM      8  O   UNL d   1     -41.648-123.817 -52.217  0.00  0.00    -0.244 OA
ATOM      9  C   UNL d   1     -41.531-122.875 -53.570  0.00  0.00     0.088 A 
ATOM     10  C   UNL d   1     -41.491-121.582 -54.166  0.00  0.00     0.103 A 
ATOM     11  C   UNL d   1     -41.474-122.404 -54.235  0.00  0.00     0.040 A 
ENDROOT
BRANCH   1  12
ATOM     12  C   UNL d   1     -41.774-120.991 -51.278  0.00  0.00     0.429 C 
ATOM     13  F   UNL d   1     -41.777-120.244 -51.214  0.00  0.00    -0.167 F 
ATOM     14  F   UNL d   1     -41.123-120.461 -51.105  0.00  0.00    -0.167 F 
ATOM     15  F   UNL d   1     -42.431-120.455 -51.359  0.00  0.00    -0.167 F 
ENDBRANCH   1  12
BRANCH   1  16
ATOM     16  C   UNL d   1     -41.815-122.293 -50.675  0.00  0.00     0.016 A 
ATOM     17  C   UNL d   1     -41.123-122.585 -50.318  0.00  0.00    -0.001 A 
ATOM     18  C   UNL d   1     -41.178-123.063 -49.648  0.00  0.00    -0.000 A 
ATOM     19  C   UNL d   1     -41.925-123.251 -49.333  0.00  0.00    -0.000 A 
ATOM     20  C   UNL d   1     -42.607-122.954 -49.698  0.00  0.00    -0.000 A 
ATOM     21  C   UNL d   1     -42.558-122.476 -50.366  0.00  0.00    -0.001 A 
ENDBRANCH   1  16
TORSDOF 2
ENDMDL
MODEL 3
REMARK VINA RESULT:       0.1      1.944      3.840
REMARK  2 active torsions:
REMARK  status: ('A' for Active; 'I' for Inactive)
REMARK    1  A    between atoms: C_7  and  C_1 
REMARK    2  A    between atoms: C_9  and  C_1 
ROOT
ATOM      1  C   UNL d   1     -41.742-121.695 -52.454  0.00  0.00     0.240 A 
ATOM      2  S   UNL d   1     -41.622-121.700 -51.643  0.00  0.00    -0.043 SA
ATOM      3  N   UNL d   1     -41.696-122.402 -52.876  0.00  0.00    -0.199 NA
ATOM      4  C   UNL d   1     -41.458-122.404 -51.251  0.00  0.00     0.181 A 
ATOM      5  N   UNL d   1     -41.413-123.111 -51.673  0.00  0.00    -0.237 N 
ATOM      6  C   UNL d   1     -41.531-123.114 -52.488  0.00  0.00     0.352 A 
ATOM      7  N   UNL d   1     -41.339-122.403 -50.436  0.00  0.00    -0.221 NA
ATOM      8  O   UNL d   1     -41.488-123.817 -52.917  0.00  0.00    -0.244 OA
ATOM      9  C   UNL d   1     -41.248-123.817 -51.281  0.00  0.00     0.088 A 
ATOM     10  C   UNL d   1     -41.177-123.103 -50.051  0.00  0.00     0.103 A 
ATOM     11  C   UNL d   1     -41.131-123.810 -50.473  0.00  0.00     0.040 A 
ENDROOT
BRANCH   1  12
ATOM     12  C   UNL d   1     -41.787-120.987 -52.031  0.00  0.00     0.429 C 
ATOM     13  F   UNL d   1     -41.840-120.347 -51.644  0.00  0.00    -0.167 F 
ATOM     14  F   UNL d   1     -42.450-120.682 -51.580  0.00  0.00    -0.167 F 
ATOM     15  F   UNL d   1     -41.199-120.379 -51.930  0.00  0.00    -0.167 F 
ENDBRANCH   1  12
BRANCH   1  16
ATOM     16  C   UNL d   1     -41.860-121.704 -53.272  0.00  0.00     0.016 A 
ATOM     17  C   UNL d   1     -41.203-121.699 -53.782  0.00  0.00    -0.001 A 
ATOM     18  C   UNL d   1     -41.318-121.708 -54.599  0.00  0.00    -0.000 A 
ATOM     19  C   UNL d   1     -42.091-121.724 -54.909  0.00  0.00    -0.000 A 
ATOM     20  C   UNL d   1     -42.737-121.729 -54.390  0.00  0.00    -0.000 A 
ATOM     21  C   UNL d   1     -42.627-121.719 -53.574  0.00  0.00    -0.001 A 
ENDBRANCH   1  16
TORSDOF 2
ENDMDL
MODEL 4
REMARK VINA RESULT:       0.6      2.388      3.231
REMARK  2 active torsions:
REMARK  status: ('A' for Active; 'I' for Inactive)
REMARK    1  A    between atoms: C_7  and  C_1 
REMARK    2  A    between atoms: C_9  and  C_1 
ROOT
ATOM      1  C   UNL d   1     -41.859-121.796 -52.925  0.00  0.00     0.240 A 
ATOM      2  S   UNL d   1     -41.886-121.800 -53.744  0.00  0.00    -0.043 SA
ATOM      3  N   UNL d   1     -41.605-122.469 -52.523  0.00  0.00    -0.199 NA
ATOM      4  C   UNL d   1     -41.660-122.470 -54.164  0.00  0.00     0.181 A 
ATOM      5  N   UNL d   1     -41.405-123.144 -53.762  0.00  0.00    -0.237 N 
ATOM      6  C   UNL d   1     -41.376-123.147 -52.940  0.00  0.00     0.352 A 
ATOM      7  N   UNL d   1     -41.688-122.468 -54.987  0.00  0.00    -0.221 NA
ATOM      8  O   UNL d   1     -41.123-123.817 -52.530  0.00  0.00    -0.244 OA
ATOM      9  C   UNL d   1     -41.179-123.815 -54.183  0.00  0.00     0.088 A 
ATOM     10  C   UNL d   1     -41.464-123.134 -55.401  0.00  0.00     0.103 A 
ATOM     11  C   UNL d   1     -41.209-123.808 -54.999  0.00  0.00     0.040 A 
ENDROOT
BRANCH   1  12
ATOM     12  C   UNL d   1     -42.114-121.122 -53.327  0.00  0.00     0.429 C 
ATOM     13  F   UNL d   1     -42.358-120.514 -53.693  0.00  0.00    -0.167 F 
ATOM     14  F   UNL d   1     -42.906-120.935 -53.598  0.00  0.00    -0.167 F 
ATOM     15  F   UNL d   1     -41.668-120.441 -53.579  0.00  0.00    -0.167 F 
ENDBRANCH   1  12
BRANCH   1  16
ATOM     16  C   UNL d   1     -41.828-121.806 -52.099  0.00  0.00     0.016 A 
ATOM     17  C   UNL d   1     -42.439-122.171 -51.669  0.00  0.00    -0.001 A 
ATOM     18  C   UNL d   1     -42.410-122.183 -50.845  0.00  0.00    -0.000 A 
ATOM     19  C   UNL d   1     -41.769-121.829 -50.447  0.00  0.00    -0.000 A 
ATOM     20  C   UNL d   1     -41.167-121.468 -50.886  0.00  0.00    -0.000 A 
ATOM     21  C   UNL d   1     -41.191-121.454 -51.709  0.00  0.00    -0.001 A 
ENDBRANCH   1  16
TORSDOF 2
ENDMDL
MODEL 5
REMARK VINA RESULT:       0.7      2.681      4.753
REMARK  2 active torsions:
REMARK  status: ('A' for Active; 'I' for Inactive)
REMARK    1  A    between atoms: C_7  and  C_1 
REMARK    2  A    between atoms: C_9  and  C_1 
ROOT
ATOM      1  C   UNL d   1     -42.121-121.893 -53.943  0.00  0.00     0.240 A 
ATOM      2  S   UNL d   1     -42.107-121.876 -53.124  0.00  0.00    -0.043 SA
ATOM      3  N   UNL d   1     -41.802-122.541 -54.341  0.00  0.00    -0.199 NA
ATOM      4  C   UNL d   1     -41.778-122.499 -52.699  0.00  0.00     0.181 A 
ATOM      5  N   UNL d   1     -41.460-123.148 -53.098  0.00  0.00    -0.237 N 
ATOM      6  C   UNL d   1     -41.470-123.172 -53.920  0.00  0.00     0.352 A 
ATOM      7  N   UNL d   1     -41.768-122.476 -51.876  0.00  0.00    -0.221 NA
ATOM      8  O   UNL d   1     -41.153-123.817 -54.326  0.00  0.00    -0.244 OA
ATOM      9  C   UNL d   1     -41.131-123.772 -52.673  0.00  0.00     0.088 A 
ATOM     10  C   UNL d   1     -41.441-123.096 -51.459  0.00  0.00     0.103 A 
ATOM     11  C   UNL d   1     -41.123-123.744 -51.858  0.00  0.00     0.040 A 
ENDROOT
BRANCH   1  12
ATOM     12  C   UNL d   1     -42.439-121.245 -53.544  0.00  0.00     0.429 C 
ATOM     13  F   UNL d   1     -42.741-120.661 -53.183  0.00  0.00    -0.167 F 
ATOM     14  F   UNL d   1     -43.258-121.104 -53.334  0.00  0.00    -0.167 F 
ATOM     15  F   UNL d   1     -42.049-120.552 -53.239  0.00  0.00    -0.167 F 
ENDBRANCH   1  12
BRANCH   1  16
ATOM     16  C   UNL d   1     -42.128-121.924 -54.769  0.00  0.00     0.016 A 
ATOM     17  C   UNL d   1     -41.474-121.639 -55.196  0.00  0.00    -0.001 A 
ATOM     18  C   UNL d   1     -41.478-121.669 -56.021  0.00  0.00    -0.000 A 
ATOM     19  C   UNL d   1     -42.137-121.984 -56.421  0.00  0.00    -0.000 A 
ATOM     20  C   UNL d   1     -42.782-122.266 -55.984  0.00  0.00    -0.000 A 
ATOM     21  C   UNL d   1     -42.783-122.238 -55.161  0.00  0.00    -0.001 A 
ENDBRANCH   1  16
TORSDOF 2
ENDMDL
