MODEL 1
REMARK VINA RESULT:      21.2      0.000      0.000
REMARK  0 active torsions:
REMARK  status: ('A' for Active; 'I' for Inactive)
ROOT
ATOM      1  C   UNL d   1      46.015 -16.920  43.455  0.00  0.00     0.191 A 
ATOM      2  S   UNL d   1      45.784 -15.753  44.274  0.00  0.00     0.289 S 
ATOM      3  N   UNL d   1      45.881 -16.107  43.523  0.00  0.00    -0.134 NA
ATOM      4  N   UNL d   1      46.052 -17.379  44.141  0.00  0.00    -0.284 N 
ATOM      5  S   UNL d   1      46.128 -17.412  42.820  0.00  0.00    -0.048 SA
ATOM      6  C   UNL d   1      46.235 -18.173  43.102  0.00  0.00     0.048 A 
ATOM      7  C   UNL d   1      46.187 -18.151  43.925  0.00  0.00     0.072 A 
ATOM      8  C   UNL d   1      45.822 -16.222  44.955  0.00  0.00     0.137 A 
ATOM      9  C   UNL d   1      46.371 -18.895  42.730  0.00  0.00     0.007 A 
ATOM     10  C   UNL d   1      45.955 -17.030  44.896  0.00  0.00     0.096 A 
ATOM     11  O   UNL d   1      45.718 -15.152  43.720  0.00  0.00    -0.198 OA
ATOM     12  O   UNL d   1      45.663 -15.182  44.828  0.00  0.00    -0.198 OA
ATOM     13  C   UNL d   1      46.280 -18.886  44.373  0.00  0.00     0.018 A 
ATOM     14  C   UNL d   1      46.460 -19.601  43.160  0.00  0.00     0.001 A 
ATOM     15  C   UNL d   1      46.415 -19.591  43.965  0.00  0.00     0.002 A 
ATOM     16  C   UNL d   1      46.416 -18.891  41.885  0.00  0.00     0.001 A 
ATOM     17  C   UNL d   1      46.596 -20.308  42.748  0.00  0.00     0.000 A 
ATOM     18  C   UNL d   1      46.550 -19.595  41.478  0.00  0.00     0.000 A 
ATOM     19  C   UNL d   1      46.644 -20.330  41.925  0.00  0.00     0.000 A 
ENDROOT
TORSDOF 0
ENDMDL
MODEL 2
REMARK VINA RESULT:      24.0      7.590      8.062
REMARK  0 active torsions:
REMARK  status: ('A' for Active; 'I' for Inactive)
ROOT
ATOM      1  C   UNL d   1      42.984 -15.211  36.733  0.00  0.00     0.191 A 
ATOM      2  S   UNL d   1      41.681 -15.799  36.525  0.00  0.00     0.289 S 
ATOM      3  N   UNL d   1      42.159 -15.144  36.726  0.00  0.00    -0.134 NA
ATOM      4  N   UNL d   1      43.328 -15.936  36.537  0.00  0.00    -0.284 N 
ATOM      5  S   UNL d   1      43.581 -14.688  36.900  0.00  0.00    -0.048 SA
ATOM      6  C   UNL d   1      44.295 -15.079  36.811  0.00  0.00     0.048 A 
ATOM      7  C   UNL d   1      44.136 -15.856  36.584  0.00  0.00     0.072 A 
ATOM      8  C   UNL d   1      42.037 -16.520  36.330  0.00  0.00     0.137 A 
ATOM      9  C   UNL d   1      45.078 -14.843  36.902  0.00  0.00     0.007 A 
ATOM     10  C   UNL d   1      42.854 -16.596  36.334  0.00  0.00     0.096 A 
ATOM     11  O   UNL d   1      41.173 -15.176  36.686  0.00  0.00    -0.198 OA
ATOM     12  O   UNL d   1      41.018 -16.232  36.381  0.00  0.00    -0.198 OA
ATOM     13  C   UNL d   1      44.796 -16.399  36.450  0.00  0.00     0.018 A 
ATOM     14  C   UNL d   1      45.713 -15.366  36.773  0.00  0.00     0.001 A 
ATOM     15  C   UNL d   1      45.568 -16.127  36.552  0.00  0.00     0.002 A 
ATOM     16  C   UNL d   1      45.215 -14.041  37.135  0.00  0.00     0.001 A 
ATOM     17  C   UNL d   1      46.488 -15.089  36.876  0.00  0.00     0.000 A 
ATOM     18  C   UNL d   1      45.987 -13.769  37.237  0.00  0.00     0.000 A 
ATOM     19  C   UNL d   1      46.647 -14.312  37.102  0.00  0.00     0.000 A 
ENDROOT
TORSDOF 0
ENDMDL
