MODEL 1
REMARK VINA RESULT:      54.1      0.000      0.000
REMARK  5 active torsions:
REMARK  status: ('A' for Active; 'I' for Inactive)
REMARK    1  A    between atoms: C_13  and  N_2 
REMARK    2  A    between atoms: C_10  and  N_4 
REMARK    3  A    between atoms: C_11  and  C_10 
REMARK       I    between atoms: N_15  and  C_11 
REMARK    4  A    between atoms: C_16  and  N_15 
REMARK    5  A    between atoms: O_21  and  C_19 
ROOT
ATOM      1  C   UNL d   1      45.909 -19.138  42.305  0.00  0.00     0.172 A 
ATOM      2  N   UNL d   1      45.965 -18.119  41.290  0.00  0.00    -0.226 N 
ATOM      3  C   UNL d   1      46.251 -17.579  41.873  0.00  0.00     0.342 A 
ATOM      4  N   UNL d   1      46.358 -17.826  42.645  0.00  0.00    -0.252 N 
ATOM      5  C   UNL d   1      46.189 -18.598  42.863  0.00  0.00     0.098 A 
ATOM      6  C   UNL d   1      45.797 -18.894  41.516  0.00  0.00     0.292 A 
ATOM      7  O   UNL d   1      45.787 -19.863  42.669  0.00  0.00    -0.301 OA
ATOM      8  C   UNL d   1      46.233 -19.014  43.568  0.00  0.00     0.041 A 
ATOM      9  C   UNL d   1      45.985 -19.783  43.435  0.00  0.00     0.102 A 
ATOM     10  O   UNL d   1      46.428 -16.783  41.661  0.00  0.00    -0.245 OA
ATOM     11  O   UNL d   1      45.514 -19.438  40.949  0.00  0.00    -0.264 OA
ATOM     12  C   UNL d   1      46.474 -18.778  44.330  0.00  0.00     0.004 A 
ATOM     13  C   UNL d   1      45.973 -20.330  44.059  0.00  0.00     0.025 A 
ATOM     14  C   UNL d   1      46.462 -19.325  44.954  0.00  0.00     0.000 A 
ATOM     15  C   UNL d   1      46.212 -20.089  44.805  0.00  0.00     0.002 A 
ENDROOT
BRANCH   4  16
ATOM     16  C   UNL d   1      46.644 -17.286  43.227  0.00  0.00     0.147 C 
BRANCH  16  17
ATOM     17  C   UNL d   1      46.111 -16.714  43.559  0.00  0.00     0.297 C 
ATOM     18  N   UNL d   1      46.394 -15.997  43.809  0.00  0.00    -0.207 NA
ATOM     19  O   UNL d   1      45.310 -16.903  43.621  0.00  0.00    -0.264 OA
BRANCH  18  20
ATOM     20  C   UNL d   1      45.882 -15.451  44.127  0.00  0.00     0.087 A 
ATOM     21  C   UNL d   1      45.979 -14.645  43.940  0.00  0.00     0.043 A 
ATOM     22  C   UNL d   1      45.462 -14.084  44.260  0.00  0.00     0.096 A 
ATOM     23  C   UNL d   1      44.847 -14.331  44.767  0.00  0.00     0.024 A 
ATOM     24  C   UNL d   1      44.756 -15.134  44.949  0.00  0.00     0.004 A 
ATOM     25  C   UNL d   1      45.270 -15.687  44.630  0.00  0.00     0.019 A 
BRANCH  22  26
ATOM     26  O   UNL d   1      45.551 -13.272  44.079  0.00  0.00    -0.328 OA
ATOM     27  C   UNL d   1      45.092 -12.933  43.485  0.00  0.00     0.181 C 
ENDBRANCH  22  26
ENDBRANCH  18  20
ENDBRANCH  16  17
ENDBRANCH   4  16
BRANCH   2  28
ATOM     28  C   UNL d   1      45.851 -17.882  40.500  0.00  0.00     0.071 A 
ATOM     29  C   UNL d   1      46.496 -17.827  39.988  0.00  0.00     0.018 A 
ATOM     30  C   UNL d   1      46.373 -17.588  39.200  0.00  0.00     0.002 A 
ATOM     31  C   UNL d   1      45.626 -17.414  38.942  0.00  0.00     0.000 A 
ATOM     32  C   UNL d   1      44.981 -17.469  39.452  0.00  0.00     0.002 A 
ATOM     33  C   UNL d   1      45.101 -17.702  40.226  0.00  0.00     0.018 A 
ENDBRANCH   2  28
TORSDOF 5
ENDMDL
