MODEL 1
REMARK VINA RESULT:      -5.0      0.000      0.000
REMARK  1 active torsions:
REMARK  status: ('A' for Active; 'I' for Inactive)
REMARK    1  A    between atoms: C_6  and  C_2 
ROOT
ATOM      1  O   UNL d   1      57.416   0.384  31.165  0.00  0.00    -0.260 OA
ATOM      2  C   UNL d   1      57.047  -0.300  31.459  0.00  0.00     0.207 A 
ATOM      3  N   UNL d   1      57.298  -0.933  30.992  0.00  0.00    -0.120 NA
ATOM      4  C   UNL d   1      57.888   0.167  30.523  0.00  0.00     0.262 A 
ATOM      5  N   UNL d   1      57.814  -0.652  30.417  0.00  0.00    -0.109 NA
ATOM      6  S   UNL d   1      58.350   0.682  30.072  0.00  0.00    -0.029 SA
ENDROOT
BRANCH   2   7
ATOM      7  C   UNL d   1      56.532  -0.334  32.094  0.00  0.00     0.062 A 
ATOM      8  C   UNL d   1      56.224   0.360  32.416  0.00  0.00     0.102 A 
ATOM      9  N   UNL d   1      55.701   0.316  33.061  0.00  0.00    -0.242 NA
ATOM     10  C   UNL d   1      55.490  -0.413  33.378  0.00  0.00     0.099 A 
ATOM     11  C   UNL d   1      55.798  -1.103  33.055  0.00  0.00     0.021 A 
ATOM     12  C   UNL d   1      56.320  -1.072  32.413  0.00  0.00     0.007 A 
ENDBRANCH   2   7
TORSDOF 1
ENDMDL
MODEL 2
REMARK VINA RESULT:      -5.0      0.843      1.098
REMARK  1 active torsions:
REMARK  status: ('A' for Active; 'I' for Inactive)
REMARK    1  A    between atoms: C_6  and  C_2 
ROOT
ATOM      1  O   UNL d   1      57.146   0.056  31.683  0.00  0.00    -0.260 OA
ATOM      2  C   UNL d   1      56.667  -0.389  32.195  0.00  0.00     0.207 A 
ATOM      3  N   UNL d   1      56.648  -1.161  31.903  0.00  0.00    -0.120 NA
ATOM      4  C   UNL d   1      57.416  -0.443  31.083  0.00  0.00     0.262 A 
ATOM      5  N   UNL d   1      57.105  -1.199  31.221  0.00  0.00    -0.109 NA
ATOM      6  S   UNL d   1      57.908  -0.220  30.459  0.00  0.00    -0.029 SA
ENDROOT
BRANCH   2   7
ATOM      7  C   UNL d   1      56.287  -0.109  32.865  0.00  0.00     0.062 A 
ATOM      8  C   UNL d   1      56.693   0.363  33.405  0.00  0.00     0.102 A 
ATOM      9  N   UNL d   1      56.299   0.643  34.082  0.00  0.00    -0.242 NA
ATOM     10  C   UNL d   1      55.510   0.452  34.214  0.00  0.00     0.099 A 
ATOM     11  C   UNL d   1      55.108  -0.019  33.674  0.00  0.00     0.021 A 
ATOM     12  C   UNL d   1      55.489  -0.303  32.996  0.00  0.00     0.007 A 
ENDBRANCH   2   7
TORSDOF 1
ENDMDL
MODEL 3
REMARK VINA RESULT:      -5.0      2.185      3.348
REMARK  1 active torsions:
REMARK  status: ('A' for Active; 'I' for Inactive)
REMARK    1  A    between atoms: C_6  and  C_2 
ROOT
ATOM      1  O   UNL d   1      56.042   0.222  34.147  0.00  0.00    -0.260 OA
ATOM      2  C   UNL d   1      55.735   0.047  33.395  0.00  0.00     0.207 A 
ATOM      3  N   UNL d   1      54.921   0.178  33.426  0.00  0.00    -0.120 NA
ATOM      4  C   UNL d   1      55.416   0.458  34.632  0.00  0.00     0.262 A 
ATOM      5  N   UNL d   1      54.720   0.430  34.182  0.00  0.00    -0.109 NA
ATOM      6  S   UNL d   1      55.481   0.682  35.424  0.00  0.00    -0.029 SA
ENDROOT
BRANCH   2   7
ATOM      7  C   UNL d   1      56.167  -0.209  32.748  0.00  0.00     0.062 A 
ATOM      8  C   UNL d   1      56.201  -1.011  32.561  0.00  0.00     0.102 A 
ATOM      9  N   UNL d   1      56.642  -1.261  31.902  0.00  0.00    -0.242 NA
ATOM     10  C   UNL d   1      57.042  -0.713  31.436  0.00  0.00     0.099 A 
ATOM     11  C   UNL d   1      57.006   0.086  31.624  0.00  0.00     0.021 A 
ATOM     12  C   UNL d   1      56.571   0.346  32.278  0.00  0.00     0.007 A 
ENDBRANCH   2   7
TORSDOF 1
ENDMDL
MODEL 4
REMARK VINA RESULT:      -4.6      1.788      3.030
REMARK  1 active torsions:
REMARK  status: ('A' for Active; 'I' for Inactive)
REMARK    1  A    between atoms: C_6  and  C_2 
ROOT
ATOM      1  O   UNL d   1      55.808   0.457  32.883  0.00  0.00    -0.260 OA
ATOM      2  C   UNL d   1      56.168  -0.199  32.522  0.00  0.00     0.207 A 
ATOM      3  N   UNL d   1      55.902  -0.873  32.917  0.00  0.00    -0.120 NA
ATOM      4  C   UNL d   1      55.326   0.182  33.495  0.00  0.00     0.262 A 
ATOM      5  N   UNL d   1      55.385  -0.645  33.514  0.00  0.00    -0.109 NA
ATOM      6  S   UNL d   1      54.868   0.654  33.994  0.00  0.00    -0.029 SA
ENDROOT
BRANCH   2   7
ATOM      7  C   UNL d   1      56.689  -0.175  31.891  0.00  0.00     0.062 A 
ATOM      8  C   UNL d   1      56.938  -0.872  31.530  0.00  0.00     0.102 A 
ATOM      9  N   UNL d   1      57.468  -0.838  30.890  0.00  0.00    -0.242 NA
ATOM     10  C   UNL d   1      57.744  -0.113  30.616  0.00  0.00     0.099 A 
ATOM     11  C   UNL d   1      57.494   0.582  30.978  0.00  0.00     0.021 A 
ATOM     12  C   UNL d   1      56.967   0.559  31.616  0.00  0.00     0.007 A 
ENDBRANCH   2   7
TORSDOF 1
ENDMDL
MODEL 5
REMARK VINA RESULT:      -3.8      1.683      2.924
REMARK  1 active torsions:
REMARK  status: ('A' for Active; 'I' for Inactive)
REMARK    1  A    between atoms: C_6  and  C_2 
ROOT
ATOM      1  O   UNL d   1      56.447   0.002  32.484  0.00  0.00    -0.260 OA
ATOM      2  C   UNL d   1      56.889  -0.390  31.900  0.00  0.00     0.207 A 
ATOM      3  N   UNL d   1      56.694  -1.191  31.940  0.00  0.00    -0.120 NA
ATOM      4  C   UNL d   1      55.984  -0.559  32.876  0.00  0.00     0.262 A 
ATOM      5  N   UNL d   1      56.139  -1.300  32.537  0.00  0.00    -0.109 NA
ATOM      6  S   UNL d   1      55.462  -0.402  33.496  0.00  0.00    -0.029 SA
ENDROOT
BRANCH   2   7
ATOM      7  C   UNL d   1      57.420  -0.040  31.384  0.00  0.00     0.062 A 
ATOM      8  C   UNL d   1      57.280  -0.054  30.572  0.00  0.00     0.102 A 
ATOM      9  N   UNL d   1      57.825   0.304  30.055  0.00  0.00    -0.242 NA
ATOM     10  C   UNL d   1      58.501   0.670  30.349  0.00  0.00     0.099 A 
ATOM     11  C   UNL d   1      58.638   0.682  31.159  0.00  0.00     0.021 A 
ATOM     12  C   UNL d   1      58.103   0.329  31.683  0.00  0.00     0.007 A 
ENDBRANCH   2   7
TORSDOF 1
ENDMDL
MODEL 6
REMARK VINA RESULT:      -3.7      9.219      9.834
REMARK  1 active torsions:
REMARK  status: ('A' for Active; 'I' for Inactive)
REMARK    1  A    between atoms: C_6  and  C_2 
ROOT
ATOM      1  O   UNL d   1      59.798  -7.864  35.042  0.00  0.00    -0.260 OA
ATOM      2  C   UNL d   1      59.730  -8.674  34.875  0.00  0.00     0.207 A 
ATOM      3  N   UNL d   1      59.454  -9.044  35.559  0.00  0.00    -0.120 NA
ATOM      4  C   UNL d   1      59.563  -7.741  35.824  0.00  0.00     0.262 A 
ATOM      5  N   UNL d   1      59.349  -8.476  36.144  0.00  0.00    -0.109 NA
ATOM      6  S   UNL d   1      59.547  -7.012  36.212  0.00  0.00    -0.029 SA
ENDROOT
BRANCH   2   7
ATOM      7  C   UNL d   1      59.907  -9.034  34.161  0.00  0.00     0.062 A 
ATOM      8  C   UNL d   1      59.303  -9.314  33.676  0.00  0.00     0.102 A 
ATOM      9  N   UNL d   1      59.492  -9.679  32.952  0.00  0.00    -0.242 NA
ATOM     10  C   UNL d   1      60.277  -9.761  32.720  0.00  0.00     0.099 A 
ATOM     11  C   UNL d   1      60.877  -9.481  33.206  0.00  0.00     0.021 A 
ATOM     12  C   UNL d   1      60.701  -9.117  33.928  0.00  0.00     0.007 A 
ENDBRANCH   2   7
TORSDOF 1
ENDMDL
MODEL 7
REMARK VINA RESULT:      -3.1      9.525      9.838
REMARK  1 active torsions:
REMARK  status: ('A' for Active; 'I' for Inactive)
REMARK    1  A    between atoms: C_6  and  C_2 
ROOT
ATOM      1  O   UNL d   1      58.727  -9.392  33.608  0.00  0.00    -0.260 OA
ATOM      2  C   UNL d   1      59.451  -9.340  34.011  0.00  0.00     0.207 A 
ATOM      3  N   UNL d   1      60.039  -9.601  33.494  0.00  0.00    -0.120 NA
ATOM      4  C   UNL d   1      58.874  -9.683  32.849  0.00  0.00     0.262 A 
ATOM      5  N   UNL d   1      59.690  -9.812  32.780  0.00  0.00    -0.109 NA
ATOM      6  S   UNL d   1      58.304  -9.818  32.267  0.00  0.00    -0.029 SA
ENDROOT
BRANCH   2   7
ATOM      7  C   UNL d   1      59.556  -9.078  34.780  0.00  0.00     0.062 A 
ATOM      8  C   UNL d   1      59.512  -9.608  35.409  0.00  0.00     0.102 A 
ATOM      9  N   UNL d   1      59.619  -9.333  36.187  0.00  0.00    -0.242 NA
ATOM     10  C   UNL d   1      59.769  -8.537  36.330  0.00  0.00     0.099 A 
ATOM     11  C   UNL d   1      59.813  -8.010  35.700  0.00  0.00     0.021 A 
ATOM     12  C   UNL d   1      59.708  -8.273  34.923  0.00  0.00     0.007 A 
ENDBRANCH   2   7
TORSDOF 1
ENDMDL
MODEL 8
REMARK VINA RESULT:      -3.0      2.749      4.097
REMARK  1 active torsions:
REMARK  status: ('A' for Active; 'I' for Inactive)
REMARK    1  A    between atoms: C_6  and  C_2 
ROOT
ATOM      1  O   UNL d   1      58.503  -0.476  30.173  0.00  0.00    -0.260 OA
ATOM      2  C   UNL d   1      58.636  -0.756  29.403  0.00  0.00     0.207 A 
ATOM      3  N   UNL d   1      58.259  -0.236  28.884  0.00  0.00    -0.120 NA
ATOM      4  C   UNL d   1      58.047   0.211  30.123  0.00  0.00     0.262 A 
ATOM      5  N   UNL d   1      57.896   0.359  29.321  0.00  0.00    -0.109 NA
ATOM      6  S   UNL d   1      57.791   0.665  30.763  0.00  0.00    -0.029 SA
ENDROOT
BRANCH   2   7
ATOM      7  C   UNL d   1      59.063  -1.425  29.201  0.00  0.00     0.062 A 
ATOM      8  C   UNL d   1      59.846  -1.358  28.952  0.00  0.00     0.102 A 
ATOM      9  N   UNL d   1      60.272  -2.043  28.749  0.00  0.00    -0.242 NA
ATOM     10  C   UNL d   1      59.917  -2.784  28.795  0.00  0.00     0.099 A 
ATOM     11  C   UNL d   1      59.136  -2.847  29.044  0.00  0.00     0.021 A 
ATOM     12  C   UNL d   1      58.703  -2.173  29.248  0.00  0.00     0.007 A 
ENDBRANCH   2   7
TORSDOF 1
ENDMDL
MODEL 9
REMARK VINA RESULT:      -2.5      4.174      4.416
REMARK  1 active torsions:
REMARK  status: ('A' for Active; 'I' for Inactive)
REMARK    1  A    between atoms: C_6  and  C_2 
ROOT
ATOM      1  O   UNL d   1      59.533  -2.313  28.613  0.00  0.00    -0.260 OA
ATOM      2  C   UNL d   1      59.054  -1.790  29.045  0.00  0.00     0.207 A 
ATOM      3  N   UNL d   1      58.511  -2.246  29.468  0.00  0.00    -0.120 NA
ATOM      4  C   UNL d   1      59.282  -3.083  28.773  0.00  0.00     0.262 A 
ATOM      5  N   UNL d   1      58.647  -3.040  29.304  0.00  0.00    -0.109 NA
ATOM      6  S   UNL d   1      59.611  -3.771  28.455  0.00  0.00    -0.029 SA
ENDROOT
BRANCH   2   7
ATOM      7  C   UNL d   1      59.114  -0.973  29.047  0.00  0.00     0.062 A 
ATOM      8  C   UNL d   1      59.703  -0.601  29.486  0.00  0.00     0.102 A 
ATOM      9  N   UNL d   1      59.757   0.229  29.482  0.00  0.00    -0.242 NA
ATOM     10  C   UNL d   1      59.226   0.679  29.043  0.00  0.00     0.099 A 
ATOM     11  C   UNL d   1      58.639   0.305  28.606  0.00  0.00     0.021 A 
ATOM     12  C   UNL d   1      58.576  -0.520  28.603  0.00  0.00     0.007 A 
ENDBRANCH   2   7
TORSDOF 1
ENDMDL
