MODEL 1
REMARK VINA RESULT:      -1.6      0.000      0.000
REMARK  4 active torsions:
REMARK  status: ('A' for Active; 'I' for Inactive)
REMARK    1  A    between atoms: C_4  and  C_1 
REMARK       I    between atoms: N_7  and  C_4 
REMARK    2  A    between atoms: C_8  and  N_7 
REMARK    3  A    between atoms: O_21  and  C_13 
REMARK    4  A    between atoms: O_22  and  C_16 
ROOT
ATOM      1  C   UNL d   1      31.842  16.198 -24.453  0.00  0.00     0.263 C 
ATOM      2  N   UNL d   1      31.021  15.902 -24.456  0.00  0.00    -0.209 NA
ATOM      3  O   UNL d   1      32.528  15.709 -24.694  0.00  0.00    -0.270 OA
ENDROOT
BRANCH   1   4
ATOM      4  C   UNL d   1      32.055  16.959 -24.227  0.00  0.00     0.113 A 
ATOM      5  C   UNL d   1      32.577  18.064 -23.293  0.00  0.00     0.025 A 
ATOM      6  C   UNL d   1      32.275  17.726 -23.981  0.00  0.00     0.074 A 
ATOM      7  C   UNL d   1      32.726  18.860 -23.264  0.00  0.00     0.002 C 
ATOM      8  C   UNL d   1      32.788  17.790 -22.562  0.00  0.00     0.002 C 
ATOM      9  C   UNL d   1      32.427  18.537 -23.950  0.00  0.00     0.012 C 
ATOM     10  C   UNL d   1      32.348  17.092 -23.462  0.00  0.00    -0.023 A 
ATOM     11  C   UNL d   1      32.057  17.995 -24.730  0.00  0.00     0.172 A 
ATOM     12  C   UNL d   1      32.136  16.353 -23.698  0.00  0.00    -0.018 A 
ATOM     13  C   UNL d   1      31.845  17.240 -24.958  0.00  0.00     0.024 A 
ATOM     14  O   UNL d   1      32.059  18.748 -25.094  0.00  0.00    -0.291 OA
ENDBRANCH   1   4
BRANCH   2  15
ATOM     15  C   UNL d   1      30.371  16.430 -24.207  0.00  0.00     0.108 A 
ATOM     16  C   UNL d   1      30.139  17.093 -24.732  0.00  0.00     0.045 A 
ATOM     17  C   UNL d   1      29.485  17.623 -24.481  0.00  0.00     0.096 A 
ATOM     18  C   UNL d   1      29.071  17.485 -23.709  0.00  0.00     0.026 A 
ATOM     19  C   UNL d   1      29.320  16.816 -23.202  0.00  0.00     0.028 A 
ATOM     20  C   UNL d   1      29.974  16.286 -23.453  0.00  0.00     0.112 A 
BRANCH  17  21
ATOM     21  O   UNL d   1      29.242  18.287 -24.991  0.00  0.00    -0.328 OA
ATOM     22  C   UNL d   1      28.395  18.475 -25.097  0.00  0.00     0.181 C 
ENDBRANCH  17  21
BRANCH  20  23
ATOM     23  O   UNL d   1      30.224  15.616 -22.945  0.00  0.00    -0.327 OA
ATOM     24  C   UNL d   1      29.777  15.454 -22.209  0.00  0.00     0.181 C 
ENDBRANCH  20  23
ENDBRANCH   2  15
TORSDOF 4
ENDMDL
