MODEL 1
REMARK VINA RESULT:      -6.0      0.000      0.000
REMARK  3 active torsions:
REMARK  status: ('A' for Active; 'I' for Inactive)
REMARK    1  A    between atoms: C_7  and  C_3 
REMARK    2  A    between atoms: C_10  and  C_5 
REMARK    3  A    between atoms: C_9  and  C_7 
ROOT
ATOM      1  C   UNL d   1     -41.502-123.003 -53.202  0.00  0.00     0.101 A 
ATOM      2  O   UNL d   1     -41.545-122.456 -52.583  0.00  0.00    -0.307 OA
ATOM      3  C   UNL d   1     -41.311-122.825 -51.881  0.00  0.00     0.101 A 
ATOM      4  C   UNL d   1     -41.239-123.712 -52.869  0.00  0.00     0.027 A 
ATOM      5  C   UNL d   1     -41.125-123.601 -52.071  0.00  0.00     0.027 A 
ENDROOT
BRANCH   3   6
ATOM      6  C   UNL d   1     -41.268-122.489 -51.117  0.00  0.00     0.036 C 
BRANCH   6   7
ATOM      7  C   UNL d   1     -41.820-122.712 -50.545  0.00  0.00     0.091 A 
ATOM      8  C   UNL d   1     -42.398-122.168 -50.277  0.00  0.00     0.286 A 
ATOM      9  N   UNL d   1     -42.867-122.539 -49.714  0.00  0.00    -0.190 NA
ATOM     10  O   UNL d   1     -42.480-121.379 -50.540  0.00  0.00    -0.265 OA
ATOM     11  C   UNL d   1     -42.605-123.283 -49.625  0.00  0.00     0.169 A 
ATOM     12  S   UNL d   1     -41.959-123.415 -50.127  0.00  0.00    -0.052 SA
ATOM     13  S   UNL d   1     -42.943-123.817 -49.106  0.00  0.00    -0.050 SA
ENDBRANCH   6   7
ENDBRANCH   3   6
BRANCH   1  14
ATOM     14  C   UNL d   1     -41.728-122.655 -53.895  0.00  0.00     0.033 A 
ATOM     15  C   UNL d   1     -41.602-123.058 -54.617  0.00  0.00     0.060 A 
ATOM     16 CL   UNL d   1     -41.253-123.799 -54.626  0.00  0.00    -0.082 Cl
ATOM     17  C   UNL d   1     -41.826-122.716 -55.331  0.00  0.00     0.011 A 
ATOM     18  C   UNL d   1     -42.179-121.968 -55.327  0.00  0.00     0.001 A 
ATOM     19  C   UNL d   1     -42.305-121.565 -54.605  0.00  0.00     0.000 A 
ATOM     20  C   UNL d   1     -42.075-121.920 -53.907  0.00  0.00     0.003 A 
ENDBRANCH   1  14
TORSDOF 3
ENDMDL
MODEL 2
REMARK VINA RESULT:      -5.1      1.132      1.532
REMARK  3 active torsions:
REMARK  status: ('A' for Active; 'I' for Inactive)
REMARK    1  A    between atoms: C_7  and  C_3 
REMARK    2  A    between atoms: C_10  and  C_5 
REMARK    3  A    between atoms: C_9  and  C_7 
ROOT
ATOM      1  C   UNL d   1     -41.452-122.318 -52.468  0.00  0.00     0.101 A 
ATOM      2  O   UNL d   1     -41.359-122.950 -51.943  0.00  0.00    -0.307 OA
ATOM      3  C   UNL d   1     -41.289-122.652 -51.174  0.00  0.00     0.101 A 
ATOM      4  C   UNL d   1     -41.438-121.630 -52.011  0.00  0.00     0.027 A 
ATOM      5  C   UNL d   1     -41.339-121.836 -51.230  0.00  0.00     0.027 A 
ENDROOT
BRANCH   3   6
ATOM      6  C   UNL d   1     -41.186-123.084 -50.466  0.00  0.00     0.036 C 
BRANCH   6   7
ATOM      7  C   UNL d   1     -41.845-123.261 -50.001  0.00  0.00     0.091 A 
ATOM      8  C   UNL d   1     -41.800-123.215 -49.166  0.00  0.00     0.286 A 
ATOM      9  N   UNL d   1     -42.532-123.419 -48.852  0.00  0.00    -0.190 NA
ATOM     10  O   UNL d   1     -41.123-122.997 -48.727  0.00  0.00    -0.265 OA
ATOM     11  C   UNL d   1     -43.021-123.587 -49.454  0.00  0.00     0.169 A 
ATOM     12  S   UNL d   1     -42.621-123.497 -50.174  0.00  0.00    -0.052 SA
ATOM     13  S   UNL d   1     -43.799-123.814 -49.348  0.00  0.00    -0.050 SA
ENDBRANCH   6   7
ENDBRANCH   3   6
BRANCH   1  14
ATOM     14  C   UNL d   1     -41.522-122.597 -53.224  0.00  0.00     0.033 A 
ATOM     15  C   UNL d   1     -42.011-122.189 -53.767  0.00  0.00     0.060 A 
ATOM     16 CL   UNL d   1     -42.417-121.515 -53.539  0.00  0.00    -0.082 Cl
ATOM     17  C   UNL d   1     -42.093-122.460 -54.540  0.00  0.00     0.011 A 
ATOM     18  C   UNL d   1     -41.685-123.140 -54.774  0.00  0.00     0.001 A 
ATOM     19  C   UNL d   1     -41.196-123.547 -54.232  0.00  0.00     0.000 A 
ATOM     20  C   UNL d   1     -41.129-123.263 -53.469  0.00  0.00     0.003 A 
ENDBRANCH   1  14
TORSDOF 3
ENDMDL
MODEL 3
REMARK VINA RESULT:      -4.8      2.279      4.235
REMARK  3 active torsions:
REMARK  status: ('A' for Active; 'I' for Inactive)
REMARK    1  A    between atoms: C_7  and  C_3 
REMARK    2  A    between atoms: C_10  and  C_5 
REMARK    3  A    between atoms: C_9  and  C_7 
ROOT
ATOM      1  C   UNL d   1     -41.828-123.232 -50.586  0.00  0.00     0.101 A 
ATOM      2  O   UNL d   1     -41.800-122.548 -51.050  0.00  0.00    -0.307 OA
ATOM      3  C   UNL d   1     -41.369-122.707 -51.738  0.00  0.00     0.101 A 
ATOM      4  C   UNL d   1     -41.408-123.812 -51.000  0.00  0.00     0.027 A 
ATOM      5  C   UNL d   1     -41.133-123.490 -51.695  0.00  0.00     0.027 A 
ENDROOT
BRANCH   3   6
ATOM      6  C   UNL d   1     -41.199-122.183 -52.366  0.00  0.00     0.036 C 
BRANCH   6   7
ATOM      7  C   UNL d   1     -41.355-122.418 -53.142  0.00  0.00     0.091 A 
ATOM      8  C   UNL d   1     -41.841-121.949 -53.639  0.00  0.00     0.286 A 
ATOM      9  N   UNL d   1     -41.898-122.316 -54.372  0.00  0.00    -0.190 NA
ATOM     10  O   UNL d   1     -42.205-121.229 -53.421  0.00  0.00    -0.265 OA
ATOM     11  C   UNL d   1     -41.472-122.984 -54.348  0.00  0.00     0.169 A 
ATOM     12  S   UNL d   1     -41.126-123.071 -53.600  0.00  0.00    -0.052 SA
ATOM     13  S   UNL d   1     -41.403-123.494 -54.984  0.00  0.00    -0.050 SA
ENDBRANCH   6   7
ENDBRANCH   3   6
BRANCH   1  14
ATOM     14  C   UNL d   1     -42.246-123.090 -49.909  0.00  0.00     0.033 A 
ATOM     15  C   UNL d   1     -41.894-123.251 -49.168  0.00  0.00     0.060 A 
ATOM     16 CL   UNL d   1     -41.132-123.549 -49.124  0.00  0.00    -0.082 Cl
ATOM     17  C   UNL d   1     -42.307-123.112 -48.470  0.00  0.00     0.011 A 
ATOM     18  C   UNL d   1     -43.076-122.811 -48.510  0.00  0.00     0.001 A 
ATOM     19  C   UNL d   1     -43.429-122.650 -49.251  0.00  0.00     0.000 A 
ATOM     20  C   UNL d   1     -43.002-122.795 -49.932  0.00  0.00     0.003 A 
ENDBRANCH   1  14
TORSDOF 3
ENDMDL
