MODEL 1
REMARK VINA RESULT:       0.2      0.000      0.000
REMARK  2 active torsions:
REMARK  status: ('A' for Active; 'I' for Inactive)
REMARK       I    between atoms: C_6  and  N_7 
REMARK    1  A    between atoms: C_9  and  C_6 
REMARK    2  A    between atoms: N_7  and  C_13 
ROOT
ATOM      1  N   UNL d   1     -41.503-122.119 -52.938  0.00  0.00    -0.169 NA
ATOM      2  C   UNL d   1     -41.323-121.794 -52.205  0.00  0.00     0.282 A 
ATOM      3  C   UNL d   1     -41.628-122.923 -52.836  0.00  0.00     0.282 A 
ATOM      4  C   UNL d   1     -41.339-122.406 -51.644  0.00  0.00     0.064 A 
ATOM      5  C   UNL d   1     -41.527-123.096 -52.041  0.00  0.00     0.063 A 
ATOM      6  C   UNL d   1     -41.582-123.805 -51.619  0.00  0.00     0.006 A 
ATOM      7  C   UNL d   1     -41.203-122.405 -50.829  0.00  0.00     0.024 A 
ATOM      8  O   UNL d   1     -41.160-120.997 -52.071  0.00  0.00    -0.265 OA
ATOM      9  O   UNL d   1     -41.822-123.466 -53.425  0.00  0.00    -0.265 OA
ATOM     10  C   UNL d   1     -41.258-123.109 -50.412  0.00  0.00     0.085 A 
ATOM     11  C   UNL d   1     -41.448-123.813 -50.804  0.00  0.00     0.019 A 
ENDROOT
BRANCH  10  12
ATOM     12  N   UNL d   1     -41.123-123.109 -49.597  0.00  0.00    -0.208 NA
ATOM     13  C   UNL d   1     -41.758-123.083 -49.077  0.00  0.00     0.279 C 
ATOM     14  O   UNL d   1     -41.619-123.083 -48.267  0.00  0.00    -0.265 OA
BRANCH  13  15
ATOM     15  C   UNL d   1     -42.524-123.057 -49.359  0.00  0.00     0.058 A 
ATOM     16  C   UNL d   1     -42.933-123.764 -49.482  0.00  0.00     0.005 A 
ATOM     17  C   UNL d   1     -43.703-123.751 -49.765  0.00  0.00     0.000 A 
ATOM     18  C   UNL d   1     -44.075-123.024 -49.928  0.00  0.00     0.000 A 
ATOM     19  C   UNL d   1     -43.662-122.319 -49.803  0.00  0.00     0.000 A 
ATOM     20  C   UNL d   1     -44.855-123.003 -50.215  0.00  0.00     0.000 C 
ATOM     21  C   UNL d   1     -42.890-122.344 -49.519  0.00  0.00     0.005 A 
ENDBRANCH  13  15
ENDBRANCH  10  12
TORSDOF 2
ENDMDL
MODEL 2
REMARK VINA RESULT:       0.5      1.393      2.174
REMARK  2 active torsions:
REMARK  status: ('A' for Active; 'I' for Inactive)
REMARK       I    between atoms: C_6  and  N_7 
REMARK    1  A    between atoms: C_9  and  C_6 
REMARK    2  A    between atoms: N_7  and  C_13 
ROOT
ATOM      1  N   UNL d   1     -42.565-122.448 -54.655  0.00  0.00    -0.169 NA
ATOM      2  C   UNL d   1     -42.491-121.724 -54.275  0.00  0.00     0.282 A 
ATOM      3  C   UNL d   1     -42.179-123.014 -54.205  0.00  0.00     0.282 A 
ATOM      4  C   UNL d   1     -42.054-121.846 -53.579  0.00  0.00     0.064 A 
ATOM      5  C   UNL d   1     -41.866-122.641 -53.544  0.00  0.00     0.063 A 
ATOM      6  C   UNL d   1     -41.427-122.927 -52.905  0.00  0.00     0.006 A 
ATOM      7  C   UNL d   1     -41.812-121.324 -52.986  0.00  0.00     0.024 A 
ATOM      8  O   UNL d   1     -42.803-121.013 -54.550  0.00  0.00    -0.265 OA
ATOM      9  O   UNL d   1     -42.114-123.817 -54.379  0.00  0.00    -0.265 OA
ATOM     10  C   UNL d   1     -41.376-121.609 -52.352  0.00  0.00     0.085 A 
ATOM     11  C   UNL d   1     -41.182-122.413 -52.308  0.00  0.00     0.019 A 
ENDROOT
BRANCH  10  12
ATOM     12  N   UNL d   1     -41.134-121.088 -51.759  0.00  0.00    -0.208 NA
ATOM     13  C   UNL d   1     -41.366-121.217 -50.982  0.00  0.00     0.279 C 
ATOM     14  O   UNL d   1     -41.123-120.696 -50.395  0.00  0.00    -0.265 OA
BRANCH  13  15
ATOM     15  C   UNL d   1     -41.836-121.857 -50.790  0.00  0.00     0.058 A 
ATOM     16  C   UNL d   1     -42.656-121.760 -50.755  0.00  0.00     0.005 A 
ATOM     17  C   UNL d   1     -43.138-122.396 -50.563  0.00  0.00     0.000 A 
ATOM     18  C   UNL d   1     -42.801-123.141 -50.402  0.00  0.00     0.000 A 
ATOM     19  C   UNL d   1     -41.981-123.233 -50.438  0.00  0.00     0.000 A 
ATOM     20  C   UNL d   1     -43.283-123.789 -50.207  0.00  0.00     0.000 C 
ATOM     21  C   UNL d   1     -41.507-122.588 -50.632  0.00  0.00     0.005 A 
ENDBRANCH  13  15
ENDBRANCH  10  12
TORSDOF 2
ENDMDL
MODEL 3
REMARK VINA RESULT:       1.8      0.543      1.346
REMARK  2 active torsions:
REMARK  status: ('A' for Active; 'I' for Inactive)
REMARK       I    between atoms: C_6  and  N_7 
REMARK    1  A    between atoms: C_9  and  C_6 
REMARK    2  A    between atoms: N_7  and  C_13 
ROOT
ATOM      1  N   UNL d   1     -41.602-122.408 -53.107  0.00  0.00    -0.169 NA
ATOM      2  C   UNL d   1     -41.415-123.052 -52.634  0.00  0.00     0.282 A 
ATOM      3  C   UNL d   1     -41.709-121.757 -52.621  0.00  0.00     0.282 A 
ATOM      4  C   UNL d   1     -41.406-122.795 -51.845  0.00  0.00     0.064 A 
ATOM      5  C   UNL d   1     -41.588-121.997 -51.846  0.00  0.00     0.063 A 
ATOM      6  C   UNL d   1     -41.620-121.587 -51.129  0.00  0.00     0.006 A 
ATOM      7  C   UNL d   1     -41.254-123.197 -51.139  0.00  0.00     0.024 A 
ATOM      8  O   UNL d   1     -41.266-123.813 -52.913  0.00  0.00    -0.265 OA
ATOM      9  O   UNL d   1     -41.904-120.993 -52.861  0.00  0.00    -0.265 OA
ATOM     10  C   UNL d   1     -41.286-122.788 -50.429  0.00  0.00     0.085 A 
ATOM     11  C   UNL d   1     -41.469-121.980 -50.419  0.00  0.00     0.019 A 
ENDROOT
BRANCH  10  12
ATOM     12  N   UNL d   1     -41.134-123.190 -49.723  0.00  0.00    -0.208 NA
ATOM     13  C   UNL d   1     -41.757-123.413 -49.237  0.00  0.00     0.279 C 
ATOM     14  O   UNL d   1     -41.602-123.812 -48.536  0.00  0.00    -0.265 OA
BRANCH  13  15
ATOM     15  C   UNL d   1     -42.528-123.241 -49.445  0.00  0.00     0.058 A 
ATOM     16  C   UNL d   1     -42.843-122.502 -49.254  0.00  0.00     0.005 A 
ATOM     17  C   UNL d   1     -43.616-122.317 -49.458  0.00  0.00     0.000 A 
ATOM     18  C   UNL d   1     -44.085-122.877 -49.860  0.00  0.00     0.000 A 
ATOM     19  C   UNL d   1     -43.766-123.615 -50.049  0.00  0.00     0.000 A 
ATOM     20  C   UNL d   1     -44.869-122.697 -50.070  0.00  0.00     0.000 C 
ATOM     21  C   UNL d   1     -42.989-123.789 -49.839  0.00  0.00     0.005 A 
ENDBRANCH  13  15
ENDBRANCH  10  12
TORSDOF 2
ENDMDL
MODEL 4
REMARK VINA RESULT:       3.1      1.291      3.526
REMARK  2 active torsions:
REMARK  status: ('A' for Active; 'I' for Inactive)
REMARK       I    between atoms: C_6  and  N_7 
REMARK    1  A    between atoms: C_9  and  C_6 
REMARK    2  A    between atoms: N_7  and  C_13 
ROOT
ATOM      1  N   UNL d   1     -42.579-123.507 -49.323  0.00  0.00    -0.169 NA
ATOM      2  C   UNL d   1     -41.983-122.956 -49.447  0.00  0.00     0.282 A 
ATOM      3  C   UNL d   1     -43.159-123.388 -49.890  0.00  0.00     0.282 A 
ATOM      4  C   UNL d   1     -42.199-122.491 -50.100  0.00  0.00     0.064 A 
ATOM      5  C   UNL d   1     -42.923-122.763 -50.366  0.00  0.00     0.063 A 
ATOM      6  C   UNL d   1     -43.279-122.400 -51.018  0.00  0.00     0.006 A 
ATOM      7  C   UNL d   1     -41.817-121.860 -50.472  0.00  0.00     0.024 A 
ATOM      8  O   UNL d   1     -41.299-122.893 -48.993  0.00  0.00    -0.265 OA
ATOM      9  O   UNL d   1     -43.859-123.817 -49.972  0.00  0.00    -0.265 OA
ATOM     10  C   UNL d   1     -42.172-121.501 -51.119  0.00  0.00     0.085 A 
ATOM     11  C   UNL d   1     -42.905-121.769 -51.396  0.00  0.00     0.019 A 
ENDROOT
BRANCH  10  12
ATOM     12  N   UNL d   1     -41.791-120.870 -51.492  0.00  0.00    -0.208 NA
ATOM     13  C   UNL d   1     -41.502-120.960 -52.256  0.00  0.00     0.279 C 
ATOM     14  O   UNL d   1     -41.124-120.330 -52.623  0.00  0.00    -0.265 OA
BRANCH  13  15
ATOM     15  C   UNL d   1     -41.588-121.669 -52.651  0.00  0.00     0.058 A 
ATOM     16  C   UNL d   1     -42.155-121.732 -53.249  0.00  0.00     0.005 A 
ATOM     17  C   UNL d   1     -42.251-122.440 -53.653  0.00  0.00     0.000 A 
ATOM     18  C   UNL d   1     -41.776-123.097 -53.461  0.00  0.00     0.000 A 
ATOM     19  C   UNL d   1     -41.210-123.029 -52.862  0.00  0.00     0.000 A 
ATOM     20  C   UNL d   1     -41.867-123.817 -53.866  0.00  0.00     0.000 C 
ATOM     21  C   UNL d   1     -41.123-122.314 -52.464  0.00  0.00     0.005 A 
ENDBRANCH  13  15
ENDBRANCH  10  12
TORSDOF 2
ENDMDL
