MODEL 1
REMARK VINA RESULT:      -8.2      0.000      0.000
REMARK  4 active torsions:
REMARK  status: ('A' for Active; 'I' for Inactive)
REMARK    1  A    between atoms: C_2  and  S_1 
REMARK    2  A    between atoms: N_3  and  S_1 
REMARK    3  A    between atoms: C_4  and  C_6 
REMARK       I    between atoms: N_7  and  C_4 
REMARK    4  A    between atoms: C_14  and  N_7 
ROOT
ATOM      1  C   UNL d   1     -48.341  13.961  22.817  0.00  0.00     0.104 A 
ATOM      2  C   UNL d   1     -47.606  13.587  22.854  0.00  0.00     0.018 A 
ATOM      3  C   UNL d   1     -46.914  14.021  22.711  0.00  0.00     0.059 A 
ATOM      4  C   UNL d   1     -48.385  14.758  22.639  0.00  0.00     0.012 A 
ATOM      5  C   UNL d   1     -46.961  14.827  22.532  0.00  0.00     0.005 A 
ATOM      6  C   UNL d   1     -47.694  15.192  22.496  0.00  0.00     0.001 A 
ATOM      7  C   UNL d   1     -49.121  15.132  22.602  0.00  0.00     0.001 C 
ENDROOT
BRANCH   3   8
ATOM      8  C   UNL d   1     -46.174  13.651  22.747  0.00  0.00     0.279 C 
ATOM      9  N   UNL d   1     -46.014  12.998  22.273  0.00  0.00    -0.208 NA
ATOM     10  O   UNL d   1     -45.594  13.937  23.260  0.00  0.00    -0.265 OA
BRANCH   9  11
ATOM     11  C   UNL d   1     -45.279  12.629  22.308  0.00  0.00     0.087 A 
ATOM     12  C   UNL d   1     -45.171  11.990  22.804  0.00  0.00     0.045 A 
ATOM     13  C   UNL d   1     -44.443  11.619  22.844  0.00  0.00     0.121 A 
ATOM     14  O   UNL d   1     -44.164  10.971  23.283  0.00  0.00    -0.299 OA
ATOM     15  C   UNL d   1     -43.812  11.893  22.379  0.00  0.00     0.119 A 
ATOM     16  C   UNL d   1     -43.370  10.842  23.096  0.00  0.00     0.304 A 
ATOM     17  O   UNL d   1     -43.147  11.418  22.530  0.00  0.00    -0.300 OA
ATOM     18  C   UNL d   1     -43.925  12.542  21.877  0.00  0.00     0.028 A 
ATOM     19  C   UNL d   1     -44.657  12.910  21.841  0.00  0.00     0.021 A 
ENDBRANCH   9  11
ENDBRANCH   3   8
BRANCH   1  20
ATOM     20  S   UNL d   1     -49.025  13.531  22.958  0.00  0.00     0.271 S 
ATOM     21  O   UNL d   1     -49.123  13.928  23.689  0.00  0.00    -0.200 OA
ATOM     22  O   UNL d   1     -48.915  13.084  22.132  0.00  0.00    -0.200 OA
BRANCH  20  23
ATOM     23  N   UNL d   1     -49.711  13.072  23.054  0.00  0.00    -0.229 N 
ATOM     24  C   UNL d   1     -49.717  12.452  23.599  0.00  0.00     0.092 A 
ATOM     25  C   UNL d   1     -50.390  11.996  23.698  0.00  0.00     0.020 A 
ATOM     26  C   UNL d   1     -51.064  12.151  23.254  0.00  0.00     0.003 A 
ATOM     27  C   UNL d   1     -51.058  12.771  22.709  0.00  0.00     0.020 A 
ATOM     28  C   UNL d   1     -50.383  13.231  22.608  0.00  0.00     0.092 A 
ENDBRANCH  20  23
ENDBRANCH   1  20
TORSDOF 4
ENDMDL
MODEL 2
REMARK VINA RESULT:      -6.9      1.157      1.858
REMARK  4 active torsions:
REMARK  status: ('A' for Active; 'I' for Inactive)
REMARK    1  A    between atoms: C_2  and  S_1 
REMARK    2  A    between atoms: N_3  and  S_1 
REMARK    3  A    between atoms: C_4  and  C_6 
REMARK       I    between atoms: N_7  and  C_4 
REMARK    4  A    between atoms: C_14  and  N_7 
ROOT
ATOM      1  C   UNL d   1     -48.640  12.760  23.197  0.00  0.00     0.104 A 
ATOM      2  C   UNL d   1     -47.849  12.928  23.032  0.00  0.00     0.018 A 
ATOM      3  C   UNL d   1     -47.264  12.365  23.201  0.00  0.00     0.059 A 
ATOM      4  C   UNL d   1     -48.845  12.040  23.527  0.00  0.00     0.012 A 
ATOM      5  C   UNL d   1     -47.473  11.638  23.535  0.00  0.00     0.005 A 
ATOM      6  C   UNL d   1     -48.260  11.478  23.697  0.00  0.00     0.001 A 
ATOM      7  C   UNL d   1     -49.637  11.873  23.692  0.00  0.00     0.001 C 
ENDROOT
BRANCH   3   8
ATOM      8  C   UNL d   1     -46.468  12.528  23.037  0.00  0.00     0.279 C 
ATOM      9  N   UNL d   1     -46.178  12.446  22.271  0.00  0.00    -0.208 NA
ATOM     10  O   UNL d   1     -45.964  12.774  23.643  0.00  0.00    -0.265 OA
BRANCH   9  11
ATOM     11  C   UNL d   1     -45.388  12.607  22.108  0.00  0.00     0.087 A 
ATOM     12  C   UNL d   1     -44.818  12.044  22.269  0.00  0.00     0.045 A 
ATOM     13  C   UNL d   1     -44.031  12.198  22.109  0.00  0.00     0.121 A 
ATOM     14  O   UNL d   1     -43.338  11.750  22.208  0.00  0.00    -0.299 OA
ATOM     15  C   UNL d   1     -43.809  12.927  21.782  0.00  0.00     0.119 A 
ATOM     16  C   UNL d   1     -42.693  12.194  21.947  0.00  0.00     0.304 A 
ATOM     17  O   UNL d   1     -42.985  12.932  21.679  0.00  0.00    -0.300 OA
ATOM     18  C   UNL d   1     -44.389  13.497  21.619  0.00  0.00     0.028 A 
ATOM     19  C   UNL d   1     -45.177  13.337  21.782  0.00  0.00     0.021 A 
ENDBRANCH   9  11
ENDBRANCH   3   8
BRANCH   1  20
ATOM     20  S   UNL d   1     -49.219  13.316  23.029  0.00  0.00     0.271 S 
ATOM     21  O   UNL d   1     -48.985  13.762  23.698  0.00  0.00    -0.200 OA
ATOM     22  O   UNL d   1     -49.484  12.813  22.273  0.00  0.00    -0.200 OA
BRANCH  20  23
ATOM     23  N   UNL d   1     -49.819  13.850  22.817  0.00  0.00    -0.229 N 
ATOM     24  C   UNL d   1     -50.017  14.470  23.324  0.00  0.00     0.092 A 
ATOM     25  C   UNL d   1     -50.607  14.998  23.120  0.00  0.00     0.020 A 
ATOM     26  C   UNL d   1     -51.009  14.916  22.407  0.00  0.00     0.003 A 
ATOM     27  C   UNL d   1     -50.811  14.296  21.900  0.00  0.00     0.020 A 
ATOM     28  C   UNL d   1     -50.218  13.762  22.102  0.00  0.00     0.092 A 
ENDBRANCH  20  23
ENDBRANCH   1  20
TORSDOF 4
ENDMDL
