MODEL 1
REMARK VINA RESULT:      -5.4      0.000      0.000
REMARK  4 active torsions:
REMARK  status: ('A' for Active; 'I' for Inactive)
REMARK    1  A    between atoms: N_2  and  S_1 
REMARK    2  A    between atoms: C_3  and  S_1 
REMARK    3  A    between atoms: C_17  and  N_4 
REMARK    4  A    between atoms: C_16  and  C_17 
ROOT
ATOM      1  N   UNL d   1     -42.595-123.251 -49.937  0.00  0.00    -0.226 N 
ATOM      2  N   UNL d   1     -41.620-122.671 -51.124  0.00  0.00    -0.300 N 
ATOM      3  C   UNL d   1     -42.718-122.484 -50.230  0.00  0.00     0.111 A 
ATOM      4  C   UNL d   1     -41.987-123.721 -50.237  0.00  0.00     0.111 A 
ATOM      5  C   UNL d   1     -41.500-123.425 -50.833  0.00  0.00     0.100 A 
ATOM      6  C   UNL d   1     -42.220-122.195 -50.833  0.00  0.00     0.100 A 
ENDROOT
BRANCH   1   7
ATOM      7  S   UNL d   1     -43.086-123.535 -49.343  0.00  0.00     0.272 S 
ATOM      8  O   UNL d   1     -43.574-123.817 -48.753  0.00  0.00    -0.200 OA
ATOM      9  O   UNL d   1     -43.630-123.770 -49.906  0.00  0.00    -0.200 OA
BRANCH   7  10
ATOM     10  C   UNL d   1     -42.536-123.297 -48.775  0.00  0.00     0.106 A 
ATOM     11  C   UNL d   1     -42.731-122.683 -48.246  0.00  0.00     0.043 A 
ATOM     12  C   UNL d   1     -42.176-122.443 -47.672  0.00  0.00     0.141 A 
ATOM     13  F   UNL d   1     -42.362-121.837 -47.146  0.00  0.00    -0.204 F 
ATOM     14  C   UNL d   1     -41.432-122.820 -47.634  0.00  0.00     0.030 A 
ATOM     15  C   UNL d   1     -41.253-123.420 -48.157  0.00  0.00     0.003 A 
ATOM     16  C   UNL d   1     -41.807-123.660 -48.731  0.00  0.00     0.013 A 
ENDBRANCH   7  10
ENDBRANCH   1   7
BRANCH   2  17
ATOM     17  C   UNL d   1     -41.127-122.385 -51.720  0.00  0.00     0.080 C 
BRANCH  17  18
ATOM     18  C   UNL d   1     -41.267-122.590 -52.505  0.00  0.00     0.020 A 
ATOM     19  C   UNL d   1     -41.489-122.009 -53.037  0.00  0.00     0.028 A 
ATOM     20  C   UNL d   1     -41.633-122.204 -53.827  0.00  0.00     0.119 A 
ATOM     21  O   UNL d   1     -41.861-121.749 -54.482  0.00  0.00    -0.300 OA
ATOM     22  C   UNL d   1     -41.550-122.988 -54.070  0.00  0.00     0.119 A 
ATOM     23  C   UNL d   1     -41.918-122.258 -55.134  0.00  0.00     0.304 A 
ATOM     24  O   UNL d   1     -41.725-123.028 -54.879  0.00  0.00    -0.300 OA
ATOM     25  C   UNL d   1     -41.325-123.574 -53.532  0.00  0.00     0.026 A 
ATOM     26  C   UNL d   1     -41.184-123.374 -52.748  0.00  0.00     0.004 A 
ENDBRANCH  17  18
ENDBRANCH   2  17
TORSDOF 4
ENDMDL
