MODEL 1
REMARK VINA RESULT:      25.6      0.000      0.000
REMARK  3 active torsions:
REMARK  status: ('A' for Active; 'I' for Inactive)
REMARK    1  A    between atoms: C_6  and  N_1 
REMARK    2  A    between atoms: C_7  and  C_6 
REMARK    3  A    between atoms: C_8  and  C_7 
ROOT
ATOM      1  N   UNL d   1     -54.713-101.819 -38.044  0.00  0.00    -0.305 N 
ATOM      2  C   UNL d   1     -54.713-101.009 -38.190  0.00  0.00     0.064 A 
ATOM      3  C   UNL d   1     -54.713-102.251 -37.129  0.00  0.00     0.064 A 
ATOM      4  C   UNL d   1     -54.713-100.854 -37.387  0.00  0.00     0.018 A 
ATOM      5  C   UNL d   1     -54.713-101.473 -36.850  0.00  0.00     0.018 A 
ATOM      6  C   UNL d   1     -54.713-102.875 -36.605  0.00  0.00     0.018 A 
ATOM      7  C   UNL d   1     -54.713-100.384 -38.732  0.00  0.00     0.018 A 
ATOM      8  C   UNL d   1     -54.712-100.068 -37.113  0.00  0.00     0.002 A 
ATOM      9  C   UNL d   1     -54.713-101.324 -36.042  0.00  0.00     0.002 A 
ATOM     10  C   UNL d   1     -54.713-101.958 -35.510  0.00  0.00     0.000 A 
ATOM     11  C   UNL d   1     -54.712 -99.600 -38.468  0.00  0.00     0.002 A 
ATOM     12  C   UNL d   1     -54.713-102.730 -35.794  0.00  0.00     0.002 A 
ATOM     13  C   UNL d   1     -54.712 -99.449 -37.650  0.00  0.00     0.000 A 
ENDROOT
BRANCH   1  14
ATOM     14  C   UNL d   1     -54.714-102.352 -38.678  0.00  0.00     0.086 C 
BRANCH  14  15
ATOM     15  C   UNL d   1     -55.410-102.696 -38.957  0.00  0.00     0.089 C 
BRANCH  15  16
ATOM     16  C   UNL d   1     -55.533-102.762 -39.772  0.00  0.00     0.213 C 
ATOM     17  O   UNL d   1     -56.302-102.848 -40.066  0.00  0.00    -0.644 OA
ATOM     18  O   UNL d   1     -54.894-102.743 -40.292  0.00  0.00    -0.644 OA
ENDBRANCH  15  16
ENDBRANCH  14  15
ENDBRANCH   1  14
TORSDOF 3
ENDMDL
