MODEL 1
REMARK VINA RESULT:      -8.5      0.000      0.000
REMARK  3 active torsions:
REMARK  status: ('A' for Active; 'I' for Inactive)
REMARK       I    between atoms: C_2  and  N_1 
REMARK    1  A    between atoms: C_6  and  C_2 
REMARK    2  A    between atoms: O_14  and  C_9 
REMARK    3  A    between atoms: O_16  and  C_11 
ROOT
ATOM      1  C   UNL d   1      53.544  32.713  53.553  0.00  0.00     0.060 A 
ATOM      2  C   UNL d   1      53.125  33.267  53.993  0.00  0.00     0.031 A 
ATOM      3  C   UNL d   1      53.516  33.763  54.519  0.00  0.00     0.116 A 
ATOM      4  C   UNL d   1      54.338  33.704  54.606  0.00  0.00     0.116 A 
ATOM      5  C   UNL d   1      54.366  32.654  53.640  0.00  0.00     0.007 A 
ATOM      6  C   UNL d   1      54.762  33.150  54.167  0.00  0.00     0.026 A 
ENDROOT
BRANCH   1   7
ATOM      7  C   UNL d   1      53.149  32.219  53.028  0.00  0.00     0.280 C 
ATOM      8  N   UNL d   1      53.089  31.416  53.189  0.00  0.00    -0.195 N 
ATOM      9  N   UNL d   1      52.709  30.849  52.714  0.00  0.00    -0.163 NA
ATOM     10  C   UNL d   1      53.394  31.029  53.848  0.00  0.00     0.088 A 
ATOM     11  C   UNL d   1      52.782  30.114  53.083  0.00  0.00     0.103 A 
ATOM     12  C   UNL d   1      52.483  29.396  52.800  0.00  0.00     0.022 C 
ATOM     13  C   UNL d   1      53.203  30.221  53.782  0.00  0.00     0.040 A 
ATOM     14  C   UNL d   1      53.816  31.379  54.468  0.00  0.00     0.021 C 
ATOM     15  O   UNL d   1      52.813  32.529  52.341  0.00  0.00    -0.265 OA
ENDBRANCH   1   7
BRANCH   3  16
ATOM     16  O   UNL d   1      53.093  34.316  54.958  0.00  0.00    -0.326 OA
ATOM     17  C   UNL d   1      52.535  34.797  54.587  0.00  0.00     0.181 C 
ENDBRANCH   3  16
BRANCH   4  18
ATOM     18  O   UNL d   1      54.730  34.199  55.132  0.00  0.00    -0.326 OA
ATOM     19  C   UNL d   1      55.541  34.123  55.249  0.00  0.00     0.181 C 
ENDBRANCH   4  18
TORSDOF 3
ENDMDL
MODEL 2
REMARK VINA RESULT:      -8.1      2.025      3.200
REMARK  3 active torsions:
REMARK  status: ('A' for Active; 'I' for Inactive)
REMARK       I    between atoms: C_2  and  N_1 
REMARK    1  A    between atoms: C_6  and  C_2 
REMARK    2  A    between atoms: O_14  and  C_9 
REMARK    3  A    between atoms: O_16  and  C_11 
ROOT
ATOM      1  C   UNL d   1      52.813  33.258  53.312  0.00  0.00     0.060 A 
ATOM      2  C   UNL d   1      53.190  33.197  54.040  0.00  0.00     0.031 A 
ATOM      3  C   UNL d   1      53.566  32.500  54.258  0.00  0.00     0.116 A 
ATOM      4  C   UNL d   1      53.564  31.852  53.740  0.00  0.00     0.116 A 
ATOM      5  C   UNL d   1      52.811  32.611  52.794  0.00  0.00     0.007 A 
ATOM      6  C   UNL d   1      53.187  31.909  53.010  0.00  0.00     0.026 A 
ENDROOT
BRANCH   1   7
ATOM      7  C   UNL d   1      52.439  33.958  53.098  0.00  0.00     0.280 C 
ATOM      8  N   UNL d   1      51.618  33.990  53.067  0.00  0.00    -0.195 N 
ATOM      9  N   UNL d   1      51.163  34.654  52.862  0.00  0.00    -0.163 NA
ATOM     10  C   UNL d   1      51.102  33.371  53.234  0.00  0.00     0.088 A 
ATOM     11  C   UNL d   1      50.366  34.441  52.902  0.00  0.00     0.103 A 
ATOM     12  C   UNL d   1      49.722  34.935  52.741  0.00  0.00     0.022 C 
ATOM     13  C   UNL d   1      50.325  33.652  53.132  0.00  0.00     0.040 A 
ATOM     14  C   UNL d   1      51.316  32.605  53.463  0.00  0.00     0.021 C 
ATOM     15  O   UNL d   1      52.886  34.627  52.915  0.00  0.00    -0.265 OA
ENDBRANCH   1   7
BRANCH   3  16
ATOM     16  O   UNL d   1      53.942  32.443  54.987  0.00  0.00    -0.326 OA
ATOM     17  C   UNL d   1      54.330  33.099  55.303  0.00  0.00     0.181 C 
ENDBRANCH   3  16
BRANCH   4  18
ATOM     18  O   UNL d   1      53.938  31.154  53.957  0.00  0.00    -0.326 OA
ATOM     19  C   UNL d   1      53.796  30.459  53.539  0.00  0.00     0.181 C 
ENDBRANCH   4  18
TORSDOF 3
ENDMDL
MODEL 3
REMARK VINA RESULT:      -7.4      1.613      3.462
REMARK  3 active torsions:
REMARK  status: ('A' for Active; 'I' for Inactive)
REMARK       I    between atoms: C_2  and  N_1 
REMARK    1  A    between atoms: C_6  and  C_2 
REMARK    2  A    between atoms: O_14  and  C_9 
REMARK    3  A    between atoms: O_16  and  C_11 
ROOT
ATOM      1  C   UNL d   1      53.891  32.091  53.401  0.00  0.00     0.060 A 
ATOM      2  C   UNL d   1      53.134  32.279  53.140  0.00  0.00     0.031 A 
ATOM      3  C   UNL d   1      52.568  31.691  53.047  0.00  0.00     0.116 A 
ATOM      4  C   UNL d   1      52.759  30.903  53.220  0.00  0.00     0.116 A 
ATOM      5  C   UNL d   1      54.083  31.303  53.573  0.00  0.00     0.007 A 
ATOM      6  C   UNL d   1      53.516  30.710  53.482  0.00  0.00     0.026 A 
ENDROOT
BRANCH   1   7
ATOM      7  C   UNL d   1      54.455  32.681  53.492  0.00  0.00     0.280 C 
ATOM      8  N   UNL d   1      54.597  33.000  54.236  0.00  0.00    -0.195 N 
ATOM      9  N   UNL d   1      55.147  33.597  54.415  0.00  0.00    -0.163 NA
ATOM     10  C   UNL d   1      54.221  32.786  54.936  0.00  0.00     0.088 A 
ATOM     11  C   UNL d   1      55.107  33.749  55.226  0.00  0.00     0.103 A 
ATOM     12  C   UNL d   1      55.560  34.304  55.640  0.00  0.00     0.022 C 
ATOM     13  C   UNL d   1      54.538  33.251  55.550  0.00  0.00     0.040 A 
ATOM     14  C   UNL d   1      53.632  32.210  55.017  0.00  0.00     0.021 C 
ATOM     15  O   UNL d   1      54.878  32.954  52.838  0.00  0.00    -0.265 OA
ENDBRANCH   1   7
BRANCH   3  16
ATOM     16  O   UNL d   1      51.812  31.883  52.785  0.00  0.00    -0.326 OA
ATOM     17  C   UNL d   1      51.593  32.675  52.702  0.00  0.00     0.181 C 
ENDBRANCH   3  16
BRANCH   4  18
ATOM     18  O   UNL d   1      52.194  30.315  53.128  0.00  0.00    -0.326 OA
ATOM     19  C   UNL d   1      52.407  29.521  53.180  0.00  0.00     0.181 C 
ENDBRANCH   4  18
TORSDOF 3
ENDMDL
MODEL 4
REMARK VINA RESULT:      -7.3      1.258      2.037
REMARK  3 active torsions:
REMARK  status: ('A' for Active; 'I' for Inactive)
REMARK       I    between atoms: C_2  and  N_1 
REMARK    1  A    between atoms: C_6  and  C_2 
REMARK    2  A    between atoms: O_14  and  C_9 
REMARK    3  A    between atoms: O_16  and  C_11 
ROOT
ATOM      1  C   UNL d   1      53.208  32.671  53.356  0.00  0.00     0.060 A 
ATOM      2  C   UNL d   1      53.114  33.220  53.960  0.00  0.00     0.031 A 
ATOM      3  C   UNL d   1      52.608  33.860  53.867  0.00  0.00     0.116 A 
ATOM      4  C   UNL d   1      52.188  33.953  53.158  0.00  0.00     0.116 A 
ATOM      5  C   UNL d   1      52.788  32.764  52.647  0.00  0.00     0.007 A 
ATOM      6  C   UNL d   1      52.279  33.405  52.550  0.00  0.00     0.026 A 
ENDROOT
BRANCH   1   7
ATOM      7  C   UNL d   1      53.716  32.032  53.453  0.00  0.00     0.280 C 
ATOM      8  N   UNL d   1      53.410  31.271  53.505  0.00  0.00    -0.195 N 
ATOM      9  N   UNL d   1      53.850  30.573  53.604  0.00  0.00    -0.163 NA
ATOM     10  C   UNL d   1      52.614  31.064  53.470  0.00  0.00     0.088 A 
ATOM     11  C   UNL d   1      53.323  29.938  53.628  0.00  0.00     0.103 A 
ATOM     12  C   UNL d   1      53.526  29.141  53.720  0.00  0.00     0.022 C 
ATOM     13  C   UNL d   1      52.561  30.237  53.546  0.00  0.00     0.040 A 
ATOM     14  C   UNL d   1      51.978  31.585  53.375  0.00  0.00     0.021 C 
ATOM     15  O   UNL d   1      54.530  32.154  53.498  0.00  0.00    -0.265 OA
ENDBRANCH   1   7
BRANCH   3  16
ATOM     16  O   UNL d   1      52.517  34.407  54.475  0.00  0.00    -0.326 OA
ATOM     17  C   UNL d   1      53.166  34.621  54.938  0.00  0.00     0.181 C 
ENDBRANCH   3  16
BRANCH   4  18
ATOM     18  O   UNL d   1      51.682  34.593  53.064  0.00  0.00    -0.326 OA
ATOM     19  C   UNL d   1      51.092  34.575  52.489  0.00  0.00     0.181 C 
ENDBRANCH   4  18
TORSDOF 3
ENDMDL
MODEL 5
REMARK VINA RESULT:      -6.9      1.920      3.580
REMARK  3 active torsions:
REMARK  status: ('A' for Active; 'I' for Inactive)
REMARK       I    between atoms: C_2  and  N_1 
REMARK    1  A    between atoms: C_6  and  C_2 
REMARK    2  A    between atoms: O_14  and  C_9 
REMARK    3  A    between atoms: O_16  and  C_11 
ROOT
ATOM      1  C   UNL d   1      52.686  33.442  53.209  0.00  0.00     0.060 A 
ATOM      2  C   UNL d   1      52.103  32.877  53.343  0.00  0.00     0.031 A 
ATOM      3  C   UNL d   1      51.312  33.056  53.217  0.00  0.00     0.116 A 
ATOM      4  C   UNL d   1      51.098  33.812  52.951  0.00  0.00     0.116 A 
ATOM      5  C   UNL d   1      52.472  34.198  52.943  0.00  0.00     0.007 A 
ATOM      6  C   UNL d   1      51.678  34.381  52.815  0.00  0.00     0.026 A 
ENDROOT
BRANCH   1   7
ATOM      7  C   UNL d   1      53.476  33.259  53.337  0.00  0.00     0.280 C 
ATOM      8  N   UNL d   1      53.852  33.522  54.019  0.00  0.00    -0.195 N 
ATOM      9  N   UNL d   1      54.645  33.382  54.225  0.00  0.00    -0.163 NA
ATOM     10  C   UNL d   1      53.511  33.970  54.618  0.00  0.00     0.088 A 
ATOM     11  C   UNL d   1      54.789  33.745  54.952  0.00  0.00     0.103 A 
ATOM     12  C   UNL d   1      55.508  33.744  55.362  0.00  0.00     0.022 C 
ATOM     13  C   UNL d   1      54.093  34.109  55.197  0.00  0.00     0.040 A 
ATOM     14  C   UNL d   1      52.728  34.237  54.643  0.00  0.00     0.021 C 
ATOM     15  O   UNL d   1      53.892  32.812  52.782  0.00  0.00    -0.265 OA
ENDBRANCH   1   7
BRANCH   3  16
ATOM     16  O   UNL d   1      50.732  32.488  53.353  0.00  0.00    -0.326 OA
ATOM     17  C   UNL d   1      50.920  31.687  53.298  0.00  0.00     0.181 C 
ENDBRANCH   3  16
BRANCH   4  18
ATOM     18  O   UNL d   1      50.307  33.993  52.824  0.00  0.00    -0.326 OA
ATOM     19  C   UNL d   1      50.095  34.699  52.458  0.00  0.00     0.181 C 
ENDBRANCH   4  18
TORSDOF 3
ENDMDL
