MODEL 1
REMARK VINA RESULT:      -0.3      0.000      0.000
REMARK  9 active torsions:
REMARK  status: ('A' for Active; 'I' for Inactive)
REMARK    1  A    between atoms: C_10  and  N_1 
REMARK    2  A    between atoms: S_13  and  C_2 
REMARK    3  A    between atoms: C_6  and  N_11 
REMARK    4  A    between atoms: C_24  and  C_10 
REMARK       I    between atoms: N_11  and  C_15 
REMARK    5  A    between atoms: C_21  and  S_13 
REMARK    6  A    between atoms: C_15  and  C_21 
REMARK    7  A    between atoms: O_27  and  C_17 
REMARK    8  A    between atoms: O_28  and  C_18 
REMARK    9  A    between atoms: C_23  and  C_24 
ROOT
ATOM      1  N   UNL d   1      33.088  22.281 -22.218  0.00  0.00    -0.253 N 
ATOM      2  C   UNL d   1      33.109  21.566 -22.609  0.00  0.00     0.182 A 
ATOM      3  C   UNL d   1      32.958  22.988 -22.637  0.00  0.00     0.268 A 
ATOM      4  N   UNL d   1      33.001  21.538 -23.431  0.00  0.00    -0.222 NA
ATOM      5  C   UNL d   1      32.850  22.953 -23.458  0.00  0.00     0.074 A 
ATOM      6  C   UNL d   1      32.871  22.238 -23.850  0.00  0.00     0.088 A 
ATOM      7  O   UNL d   1      32.936  23.702 -22.246  0.00  0.00    -0.267 OA
ATOM      8  C   UNL d   1      32.719  23.662 -23.881  0.00  0.00     0.006 A 
ATOM      9  C   UNL d   1      32.762  22.212 -24.675  0.00  0.00     0.019 A 
ATOM     10  C   UNL d   1      32.612  23.625 -24.697  0.00  0.00     0.000 A 
ATOM     11  C   UNL d   1      32.634  22.909 -25.089  0.00  0.00     0.002 A 
ENDROOT
BRANCH   1  12
ATOM     12  C   UNL d   1      33.197  22.312 -21.388  0.00  0.00     0.085 C 
BRANCH  12  13
ATOM     13  C   UNL d   1      32.630  22.670 -20.906  0.00  0.00     0.019 C 
BRANCH  13  14
ATOM     14  C   UNL d   1      32.778  22.771 -20.100  0.00  0.00     0.004 A 
ATOM     15  C   UNL d   1      32.904  22.113 -19.617  0.00  0.00     0.026 A 
ATOM     16  C   UNL d   1      33.050  22.208 -18.819  0.00  0.00     0.116 A 
ATOM     17  C   UNL d   1      33.072  22.972 -18.489  0.00  0.00     0.116 A 
ATOM     18  C   UNL d   1      32.944  23.630 -18.983  0.00  0.00     0.026 A 
ATOM     19  C   UNL d   1      32.798  23.524 -19.785  0.00  0.00     0.002 A 
BRANCH  16  20
ATOM     20  O   UNL d   1      33.175  21.553 -18.339  0.00  0.00    -0.326 OA
ATOM     21  C   UNL d   1      33.241  20.809 -18.668  0.00  0.00     0.181 C 
ENDBRANCH  16  20
BRANCH  17  22
ATOM     22  O   UNL d   1      33.216  23.075 -17.697  0.00  0.00    -0.326 OA
ATOM     23  C   UNL d   1      32.810  23.646 -17.261  0.00  0.00     0.181 C 
ENDBRANCH  17  22
ENDBRANCH  13  14
ENDBRANCH  12  13
ENDBRANCH   1  12
BRANCH   2  24
ATOM     24  S   UNL d   1      33.241  20.853 -22.187  0.00  0.00    -0.044 SA
BRANCH  24  25
ATOM     25  C   UNL d   1      32.630  20.301 -22.094  0.00  0.00     0.101 C 
BRANCH  25  26
ATOM     26  C   UNL d   1      32.777  19.504 -22.234  0.00  0.00     0.287 C 
ATOM     27  N   UNL d   1      32.661  19.188 -22.976  0.00  0.00    -0.186 NA
ATOM     28  O   UNL d   1      33.044  19.023 -21.618  0.00  0.00    -0.265 OA
BRANCH  27  29
ATOM     29  C   UNL d   1      32.808  18.392 -23.116  0.00  0.00     0.194 A 
ATOM     30  N   UNL d   1      33.211  17.869 -22.615  0.00  0.00    -0.107 NA
ATOM     31  O   UNL d   1      33.231  17.129 -22.971  0.00  0.00    -0.210 OA
ATOM     32  C   UNL d   1      32.841  17.179 -23.697  0.00  0.00     0.128 A 
ATOM     33  C   UNL d   1      32.581  17.957 -23.785  0.00  0.00     0.068 A 
ATOM     34  C   UNL d   1      32.735  16.566 -24.229  0.00  0.00     0.029 C 
ENDBRANCH  27  29
ENDBRANCH  25  26
ENDBRANCH  24  25
ENDBRANCH   2  24
TORSDOF 9
ENDMDL
