MODEL 1
REMARK VINA RESULT:      -9.9      0.000      0.000
REMARK  4 active torsions:
REMARK  status: ('A' for Active; 'I' for Inactive)
REMARK    1  A    between atoms: N_2  and  S_1 
REMARK    2  A    between atoms: C_6  and  S_1 
REMARK    3  A    between atoms: O_17  and  C_12 
REMARK    4  A    between atoms: C_19  and  O_17 
ROOT
ATOM      1  S   UNL d   1      52.265  33.284  53.244  0.00  0.00     0.271 S 
ATOM      2  O   UNL d   1      52.723  33.565  52.611  0.00  0.00    -0.200 OA
ATOM      3  O   UNL d   1      51.809  33.004  53.874  0.00  0.00    -0.200 OA
ENDROOT
BRANCH   1   4
ATOM      4  N   UNL d   1      52.939  32.925  53.573  0.00  0.00    -0.232 N 
ATOM      5  C   UNL d   1      53.199  32.154  53.426  0.00  0.00     0.075 A 
ATOM      6  C   UNL d   1      53.886  32.024  53.862  0.00  0.00     0.020 A 
ATOM      7  C   UNL d   1      52.830  31.609  52.925  0.00  0.00     0.020 C 
ATOM      8  C   UNL d   1      54.051  32.721  54.283  0.00  0.00     0.018 A 
ATOM      9  C   UNL d   1      53.465  33.272  54.101  0.00  0.00     0.075 A 
ATOM     10  C   UNL d   1      54.657  32.921  54.804  0.00  0.00     0.002 A 
ATOM     11  C   UNL d   1      53.486  34.027  54.443  0.00  0.00     0.018 A 
ATOM     12  C   UNL d   1      54.090  34.224  54.962  0.00  0.00     0.002 A 
ATOM     13  C   UNL d   1      54.677  33.676  55.145  0.00  0.00     0.000 A 
ENDBRANCH   1   4
BRANCH   1  14
ATOM     14  C   UNL d   1      51.595  33.640  52.918  0.00  0.00     0.104 A 
ATOM     15  C   UNL d   1      51.654  34.047  52.199  0.00  0.00     0.015 A 
ATOM     16  C   UNL d   1      50.987  34.402  51.874  0.00  0.00     0.025 A 
ATOM     17  C   UNL d   1      50.253  34.354  52.264  0.00  0.00     0.100 A 
ATOM     18  C   UNL d   1      50.203  33.944  52.983  0.00  0.00     0.025 A 
ATOM     19  C   UNL d   1      50.870  33.590  53.308  0.00  0.00     0.015 A 
BRANCH  17  20
ATOM     20  O   UNL d   1      49.587  34.708  51.940  0.00  0.00    -0.305 OA
BRANCH  20  21
ATOM     21  C   UNL d   1      49.218  34.372  51.288  0.00  0.00     0.123 C 
ATOM     22  C   UNL d   1      48.542  34.719  50.972  0.00  0.00     0.029 C 
ENDBRANCH  20  21
ENDBRANCH  17  20
ENDBRANCH   1  14
TORSDOF 4
ENDMDL
MODEL 2
REMARK VINA RESULT:      -8.5      1.715      4.245
REMARK  4 active torsions:
REMARK  status: ('A' for Active; 'I' for Inactive)
REMARK    1  A    between atoms: N_2  and  S_1 
REMARK    2  A    between atoms: C_6  and  S_1 
REMARK    3  A    between atoms: O_17  and  C_12 
REMARK    4  A    between atoms: C_19  and  O_17 
ROOT
ATOM      1  S   UNL d   1      52.796  32.403  53.331  0.00  0.00     0.271 S 
ATOM      2  O   UNL d   1      52.795  32.257  52.513  0.00  0.00    -0.200 OA
ATOM      3  O   UNL d   1      52.798  32.548  54.145  0.00  0.00    -0.200 OA
ENDROOT
BRANCH   1   4
ATOM      4  N   UNL d   1      52.631  33.205  53.189  0.00  0.00    -0.232 N 
ATOM      5  C   UNL d   1      53.189  33.810  53.115  0.00  0.00     0.075 A 
ATOM      6  C   UNL d   1      52.790  34.517  52.977  0.00  0.00     0.020 A 
ATOM      7  C   UNL d   1      54.010  33.718  53.172  0.00  0.00     0.020 C 
ATOM      8  C   UNL d   1      51.976  34.347  52.965  0.00  0.00     0.018 A 
ATOM      9  C   UNL d   1      51.885  33.538  53.096  0.00  0.00     0.075 A 
ATOM     10  C   UNL d   1      51.314  34.824  52.852  0.00  0.00     0.002 A 
ATOM     11  C   UNL d   1      51.126  33.205  53.114  0.00  0.00     0.018 A 
ATOM     12  C   UNL d   1      50.468  33.681  53.001  0.00  0.00     0.002 A 
ATOM     13  C   UNL d   1      50.556  34.490  52.870  0.00  0.00     0.000 A 
ENDBRANCH   1   4
BRANCH   1  14
ATOM     14  C   UNL d   1      52.961  31.606  53.473  0.00  0.00     0.104 A 
ATOM     15  C   UNL d   1      52.746  31.035  52.912  0.00  0.00     0.015 A 
ATOM     16  C   UNL d   1      52.909  30.242  53.053  0.00  0.00     0.025 A 
ATOM     17  C   UNL d   1      53.290  30.010  53.757  0.00  0.00     0.100 A 
ATOM     18  C   UNL d   1      53.501  30.587  54.312  0.00  0.00     0.025 A 
ATOM     19  C   UNL d   1      53.337  31.381  54.171  0.00  0.00     0.015 A 
BRANCH  17  20
ATOM     20  O   UNL d   1      53.453  29.217  53.898  0.00  0.00    -0.305 OA
BRANCH  20  21
ATOM     21  C   UNL d   1      53.313  28.894  54.639  0.00  0.00     0.123 C 
ATOM     22  C   UNL d   1      53.623  28.157  54.833  0.00  0.00     0.029 C 
ENDBRANCH  20  21
ENDBRANCH  17  20
ENDBRANCH   1  14
TORSDOF 4
ENDMDL
