MODEL 1
REMARK VINA RESULT:     -10.5      0.000      0.000
REMARK  4 active torsions:
REMARK  status: ('A' for Active; 'I' for Inactive)
REMARK    1  A    between atoms: C_4  and  N_1 
REMARK    2  A    between atoms: C_8  and  C_2 
REMARK    3  A    between atoms: C_17  and  C_6 
REMARK    4  A    between atoms: C_7  and  C_8 
ROOT
ATOM      1  N   UNL d   1      53.610  33.866  54.121  0.00  0.00    -0.255 N 
ATOM      2  C   UNL d   1      53.553  32.744  53.405  0.00  0.00     0.101 A 
ATOM      3  C   UNL d   1      54.341  33.472  54.202  0.00  0.00     0.305 A 
ATOM      4  C   UNL d   1      54.306  32.781  53.761  0.00  0.00     0.256 A 
ATOM      5  C   UNL d   1      53.138  33.413  53.633  0.00  0.00     0.075 A 
ATOM      6  O   UNL d   1      54.987  33.730  54.647  0.00  0.00    -0.263 OA
ATOM      7  O   UNL d   1      54.909  32.223  53.685  0.00  0.00    -0.281 OA
ENDROOT
BRANCH   2   8
ATOM      8  C   UNL d   1      53.279  32.140  52.912  0.00  0.00     0.223 C 
ATOM      9  O   UNL d   1      53.079  32.298  52.136  0.00  0.00    -0.284 OA
BRANCH   8  10
ATOM     10  C   UNL d   1      53.207  31.371  53.203  0.00  0.00     0.139 A 
ATOM     11  O   UNL d   1      53.367  31.130  53.977  0.00  0.00    -0.304 OA
ATOM     12  C   UNL d   1      53.221  30.322  54.021  0.00  0.00     0.100 A 
ATOM     13  C   UNL d   1      53.283  29.786  54.644  0.00  0.00     0.025 A 
ATOM     14  C   UNL d   1      52.973  30.059  53.284  0.00  0.00     0.025 A 
ATOM     15  C   UNL d   1      53.100  29.002  54.530  0.00  0.00     0.002 A 
ATOM     16  C   UNL d   1      52.849  28.740  53.785  0.00  0.00     0.000 A 
ATOM     17  C   UNL d   1      52.787  29.268  53.167  0.00  0.00     0.002 A 
ATOM     18  C   UNL d   1      52.964  30.708  52.778  0.00  0.00     0.030 A 
ENDBRANCH   8  10
ENDBRANCH   2   8
BRANCH   5  19
ATOM     19  C   UNL d   1      52.361  33.592  53.399  0.00  0.00     0.017 A 
ATOM     20  C   UNL d   1      51.726  33.362  53.869  0.00  0.00     0.001 A 
ATOM     21  C   UNL d   1      50.955  33.539  53.637  0.00  0.00     0.000 A 
ATOM     22  C   UNL d   1      50.824  33.948  52.931  0.00  0.00     0.000 A 
ATOM     23  C   UNL d   1      51.465  34.179  52.457  0.00  0.00     0.000 A 
ATOM     24  C   UNL d   1      50.050  34.128  52.694  0.00  0.00     0.000 C 
ATOM     25  C   UNL d   1      52.238  33.996  52.699  0.00  0.00     0.001 A 
ENDBRANCH   5  19
BRANCH   1  26
ATOM     26  C   UNL d   1      53.405  34.587  54.474  0.00  0.00     0.179 A 
ATOM     27  N   UNL d   1      53.021  34.674  55.191  0.00  0.00    -0.108 NA
ATOM     28  O   UNL d   1      52.928  35.486  55.329  0.00  0.00    -0.210 OA
ATOM     29  C   UNL d   1      53.257  35.892  54.696  0.00  0.00     0.128 A 
ATOM     30  C   UNL d   1      53.558  35.332  54.156  0.00  0.00     0.067 A 
ATOM     31  C   UNL d   1      53.291  36.709  54.597  0.00  0.00     0.029 C 
ENDBRANCH   1  26
TORSDOF 4
ENDMDL
MODEL 2
REMARK VINA RESULT:      -8.5      1.399      2.555
REMARK  4 active torsions:
REMARK  status: ('A' for Active; 'I' for Inactive)
REMARK    1  A    between atoms: C_4  and  N_1 
REMARK    2  A    between atoms: C_8  and  C_2 
REMARK    3  A    between atoms: C_17  and  C_6 
REMARK    4  A    between atoms: C_7  and  C_8 
ROOT
ATOM      1  N   UNL d   1      52.676  32.898  53.115  0.00  0.00    -0.255 N 
ATOM      2  C   UNL d   1      53.370  31.763  53.172  0.00  0.00     0.101 A 
ATOM      3  C   UNL d   1      52.278  32.331  52.651  0.00  0.00     0.305 A 
ATOM      4  C   UNL d   1      52.706  31.631  52.685  0.00  0.00     0.256 A 
ATOM      5  C   UNL d   1      53.340  32.541  53.428  0.00  0.00     0.075 A 
ATOM      6  O   UNL d   1      51.579  32.451  52.230  0.00  0.00    -0.263 OA
ATOM      7  O   UNL d   1      52.511  30.926  52.305  0.00  0.00    -0.281 OA
ENDROOT
BRANCH   2   8
ATOM      8  C   UNL d   1      53.951  31.206  53.358  0.00  0.00     0.223 C 
ATOM      9  O   UNL d   1      54.716  31.299  53.088  0.00  0.00    -0.284 OA
BRANCH   8  10
ATOM     10  C   UNL d   1      53.759  30.549  53.821  0.00  0.00     0.139 A 
ATOM     11  O   UNL d   1      53.384  30.569  54.557  0.00  0.00    -0.304 OA
ATOM     12  C   UNL d   1      53.304  29.793  54.816  0.00  0.00     0.100 A 
ATOM     13  C   UNL d   1      52.976  29.474  55.502  0.00  0.00     0.025 A 
ATOM     14  C   UNL d   1      53.625  29.292  54.251  0.00  0.00     0.025 A 
ATOM     15  C   UNL d   1      52.970  28.670  55.619  0.00  0.00     0.002 A 
ATOM     16  C   UNL d   1      53.296  28.167  55.045  0.00  0.00     0.000 A 
ATOM     17  C   UNL d   1      53.620  28.480  54.366  0.00  0.00     0.002 A 
ATOM     18  C   UNL d   1      53.907  29.759  53.635  0.00  0.00     0.030 A 
ENDBRANCH   8  10
ENDBRANCH   2   8
BRANCH   5  19
ATOM     19  C   UNL d   1      53.901  32.897  53.926  0.00  0.00     0.017 A 
ATOM     20  C   UNL d   1      53.762  32.944  54.736  0.00  0.00     0.001 A 
ATOM     21  C   UNL d   1      54.319  33.298  55.230  0.00  0.00     0.000 A 
ATOM     22  C   UNL d   1      55.015  33.605  54.909  0.00  0.00     0.000 A 
ATOM     23  C   UNL d   1      55.154  33.558  54.093  0.00  0.00     0.000 A 
ATOM     24  C   UNL d   1      55.577  33.962  55.403  0.00  0.00     0.000 C 
ATOM     25  C   UNL d   1      54.588  33.200  53.602  0.00  0.00     0.001 A 
ENDBRANCH   5  19
BRANCH   1  26
ATOM     26  C   UNL d   1      52.437  33.683  53.235  0.00  0.00     0.179 A 
ATOM     27  N   UNL d   1      52.751  34.339  52.861  0.00  0.00    -0.108 NA
ATOM     28  O   UNL d   1      52.349  35.006  53.145  0.00  0.00    -0.210 OA
ATOM     29  C   UNL d   1      51.791  34.755  53.693  0.00  0.00     0.128 A 
ATOM     30  C   UNL d   1      51.843  33.924  53.753  0.00  0.00     0.067 A 
ATOM     31  C   UNL d   1      51.266  35.227  54.117  0.00  0.00     0.029 C 
ENDBRANCH   1  26
TORSDOF 4
ENDMDL
MODEL 3
REMARK VINA RESULT:      -7.7      1.288      3.907
REMARK  4 active torsions:
REMARK  status: ('A' for Active; 'I' for Inactive)
REMARK    1  A    between atoms: C_4  and  N_1 
REMARK    2  A    between atoms: C_8  and  C_2 
REMARK    3  A    between atoms: C_17  and  C_6 
REMARK    4  A    between atoms: C_7  and  C_8 
ROOT
ATOM      1  N   UNL d   1      53.148  34.148  54.020  0.00  0.00    -0.255 N 
ATOM      2  C   UNL d   1      52.326  34.240  52.976  0.00  0.00     0.101 A 
ATOM      3  C   UNL d   1      52.965  34.954  53.909  0.00  0.00     0.305 A 
ATOM      4  C   UNL d   1      52.458  35.011  53.266  0.00  0.00     0.256 A 
ATOM      5  C   UNL d   1      52.754  33.722  53.446  0.00  0.00     0.075 A 
ATOM      6  O   UNL d   1      53.242  35.584  54.364  0.00  0.00    -0.263 OA
ATOM      7  O   UNL d   1      52.138  35.708  52.962  0.00  0.00    -0.281 OA
ENDROOT
BRANCH   2   8
ATOM      8  C   UNL d   1      51.850  34.040  52.332  0.00  0.00     0.223 C 
ATOM      9  O   UNL d   1      52.160  33.624  51.701  0.00  0.00    -0.284 OA
BRANCH   8  10
ATOM     10  C   UNL d   1      51.054  34.262  52.322  0.00  0.00     0.139 A 
ATOM     11  O   UNL d   1      50.613  34.508  52.976  0.00  0.00    -0.304 OA
ATOM     12  C   UNL d   1      49.852  34.673  52.714  0.00  0.00     0.100 A 
ATOM     13  C   UNL d   1      49.179  34.936  53.112  0.00  0.00     0.025 A 
ATOM     14  C   UNL d   1      49.815  34.531  51.907  0.00  0.00     0.025 A 
ATOM     15  C   UNL d   1      48.484  35.055  52.708  0.00  0.00     0.002 A 
ATOM     16  C   UNL d   1      48.450  34.911  51.892  0.00  0.00     0.000 A 
ATOM     17  C   UNL d   1      49.114  34.651  51.496  0.00  0.00     0.002 A 
ATOM     18  C   UNL d   1      50.559  34.277  51.663  0.00  0.00     0.030 A 
ENDBRANCH   8  10
ENDBRANCH   2   8
BRANCH   5  19
ATOM     19  C   UNL d   1      52.775  32.899  53.345  0.00  0.00     0.017 A 
ATOM     20  C   UNL d   1      52.203  32.425  53.701  0.00  0.00     0.001 A 
ATOM     21  C   UNL d   1      52.224  31.607  53.601  0.00  0.00     0.000 A 
ATOM     22  C   UNL d   1      52.820  31.266  53.142  0.00  0.00     0.000 A 
ATOM     23  C   UNL d   1      53.396  31.743  52.783  0.00  0.00     0.000 A 
ATOM     24  C   UNL d   1      52.845  30.443  53.039  0.00  0.00     0.000 C 
ATOM     25  C   UNL d   1      53.367  32.566  52.889  0.00  0.00     0.001 A 
ENDBRANCH   5  19
BRANCH   1  26
ATOM     26  C   UNL d   1      53.643  33.839  54.610  0.00  0.00     0.179 A 
ATOM     27  N   UNL d   1      53.396  33.419  55.267  0.00  0.00    -0.108 NA
ATOM     28  O   UNL d   1      54.071  33.219  55.705  0.00  0.00    -0.210 OA
ATOM     29  C   UNL d   1      54.728  33.517  55.313  0.00  0.00     0.128 A 
ATOM     30  C   UNL d   1      54.464  33.907  54.624  0.00  0.00     0.067 A 
ATOM     31  C   UNL d   1      55.515  33.450  55.545  0.00  0.00     0.029 C 
ENDBRANCH   1  26
TORSDOF 4
ENDMDL
