MODEL 1
REMARK VINA RESULT:      23.8      0.000      0.000
REMARK  5 active torsions:
REMARK  status: ('A' for Active; 'I' for Inactive)
REMARK    1  A    between atoms: N_2  and  C_1 
REMARK    2  A    between atoms: C_8  and  C_5 
REMARK    3  A    between atoms: C_6  and  C_9 
REMARK       I    between atoms: N_12  and  C_6 
REMARK    4  A    between atoms: C_9  and  C_8 
REMARK    5  A    between atoms: C_14  and  N_12 
ROOT
ATOM      1  C   UNL d   1      14.920  12.574  -1.495  0.00  0.00     0.279 C 
ATOM      2  N   UNL d   1      14.441  13.225  -1.365  0.00  0.00    -0.208 NA
ATOM      3  O   UNL d   1      15.715  12.601  -1.289  0.00  0.00    -0.265 OA
ENDROOT
BRANCH   1   4
ATOM      4  C   UNL d   1      14.603  11.885  -1.835  0.00  0.00     0.063 C 
BRANCH   4   5
ATOM      5  C   UNL d   1      13.804  11.851  -2.039  0.00  0.00     0.011 C 
BRANCH   5   6
ATOM      6  C   UNL d   1      13.561  11.986  -2.837  0.00  0.00     0.031 A 
ATOM      7  S   UNL d   1      13.903  11.780  -3.558  0.00  0.00    -0.064 SA
ATOM      8  C   UNL d   1      13.414  12.061  -4.150  0.00  0.00     0.156 A 
ATOM      9  C   UNL d   1      12.769  12.440  -3.817  0.00  0.00     0.031 A 
ATOM     10  C   UNL d   1      12.864  12.391  -2.989  0.00  0.00     0.009 A 
BRANCH   8  11
ATOM     11  N   UNL d   1      13.563  11.967  -4.960  0.00  0.00    -0.107 N 
ATOM     12  O   UNL d   1      14.323  12.039  -5.268  0.00  0.00    -0.531 OA
ATOM     13  O   UNL d   1      12.924  11.798  -5.461  0.00  0.00    -0.531 OA
ENDBRANCH   8  11
ENDBRANCH   5   6
ENDBRANCH   4   5
ENDBRANCH   1   4
BRANCH   2  14
ATOM     14  C   UNL d   1      14.758  13.913  -1.026  0.00  0.00     0.085 A 
ATOM     15  C   UNL d   1      15.279  13.854  -0.380  0.00  0.00     0.019 A 
ATOM     16  C   UNL d   1      15.600  14.515  -0.033  0.00  0.00     0.002 A 
ATOM     17  C   UNL d   1      15.385  15.275  -0.354  0.00  0.00     0.000 A 
ATOM     18  C   UNL d   1      14.869  15.325  -0.993  0.00  0.00     0.002 A 
ATOM     19  C   UNL d   1      15.691  15.977  -0.029  0.00  0.00     0.000 C 
ATOM     20  C   UNL d   1      14.559  14.652  -1.325  0.00  0.00     0.019 A 
ENDBRANCH   2  14
TORSDOF 5
ENDMDL
MODEL 2
REMARK VINA RESULT:      26.7      2.169      3.656
REMARK  5 active torsions:
REMARK  status: ('A' for Active; 'I' for Inactive)
REMARK    1  A    between atoms: N_2  and  C_1 
REMARK    2  A    between atoms: C_8  and  C_5 
REMARK    3  A    between atoms: C_6  and  C_9 
REMARK       I    between atoms: N_12  and  C_6 
REMARK    4  A    between atoms: C_9  and  C_8 
REMARK    5  A    between atoms: C_14  and  N_12 
ROOT
ATOM      1  C   UNL d   1      13.181  13.063  -4.320  0.00  0.00     0.279 C 
ATOM      2  N   UNL d   1      12.989  13.825  -4.089  0.00  0.00    -0.208 NA
ATOM      3  O   UNL d   1      13.781  12.938  -4.867  0.00  0.00    -0.265 OA
ENDROOT
BRANCH   1   4
ATOM      4  C   UNL d   1      12.769  12.415  -4.002  0.00  0.00     0.063 C 
BRANCH   4   5
ATOM      5  C   UNL d   1      13.180  11.779  -3.675  0.00  0.00     0.011 C 
BRANCH   5   6
ATOM      6  C   UNL d   1      13.388  11.781  -2.856  0.00  0.00     0.031 A 
ATOM      7  S   UNL d   1      14.118  11.782  -2.474  0.00  0.00    -0.064 SA
ATOM      8  C   UNL d   1      13.973  11.783  -1.670  0.00  0.00     0.156 A 
ATOM      9  C   UNL d   1      13.165  11.782  -1.535  0.00  0.00     0.031 A 
ATOM     10  C   UNL d   1      12.798  11.781  -2.285  0.00  0.00     0.009 A 
BRANCH   8  11
ATOM     11  N   UNL d   1      14.566  11.785  -1.089  0.00  0.00    -0.107 N 
ATOM     12  O   UNL d   1      15.364  11.785  -1.292  0.00  0.00    -0.531 OA
ATOM     13  O   UNL d   1      14.338  11.786  -0.293  0.00  0.00    -0.531 OA
ENDBRANCH   8  11
ENDBRANCH   5   6
ENDBRANCH   4   5
ENDBRANCH   1   4
BRANCH   2  14
ATOM     14  C   UNL d   1      13.400  14.472  -4.407  0.00  0.00     0.085 A 
ATOM     15  C   UNL d   1      13.719  15.049  -3.900  0.00  0.00     0.019 A 
ATOM     16  C   UNL d   1      14.125  15.690  -4.190  0.00  0.00     0.002 A 
ATOM     17  C   UNL d   1      14.215  15.752  -5.036  0.00  0.00     0.000 A 
ATOM     18  C   UNL d   1      13.897  15.177  -5.530  0.00  0.00     0.002 A 
ATOM     19  C   UNL d   1      14.624  16.392  -5.375  0.00  0.00     0.000 C 
ATOM     20  C   UNL d   1      13.495  14.544  -5.220  0.00  0.00     0.019 A 
ENDBRANCH   2  14
TORSDOF 5
ENDMDL
