MODEL 1
REMARK VINA RESULT:      33.2      0.000      0.000
REMARK  3 active torsions:
REMARK  status: ('A' for Active; 'I' for Inactive)
REMARK    1  A    between atoms: C_4  and  S_1 
REMARK    2  A    between atoms: N_7  and  S_1 
REMARK    3  A    between atoms: C_14  and  N_7 
ROOT
ATOM      1  S   UNL d   1      13.171  12.685  -3.660  0.00  0.00     0.285 S 
ATOM      2  O   UNL d   1      13.518  12.236  -4.240  0.00  0.00    -0.198 OA
ATOM      3  O   UNL d   1      12.805  13.145  -3.040  0.00  0.00    -0.198 OA
ENDROOT
BRANCH   1   4
ATOM      4  C   UNL d   1      13.203  13.365  -4.147  0.00  0.00     0.105 A 
ATOM      5  C   UNL d   1      13.184  13.283  -4.950  0.00  0.00     0.012 A 
ATOM      6  C   UNL d   1      13.217  13.978  -5.438  0.00  0.00     0.001 A 
ATOM      7  C   UNL d   1      13.132  12.516  -5.316  0.00  0.00     0.001 C 
ATOM      8  C   UNL d   1      13.266  14.710  -5.127  0.00  0.00     0.000 A 
ATOM      9  C   UNL d   1      13.286  14.799  -4.258  0.00  0.00     0.001 A 
ATOM     10  C   UNL d   1      13.294  15.334  -5.665  0.00  0.00     0.000 C 
ATOM     11  C   UNL d   1      13.255  14.144  -3.811  0.00  0.00     0.013 A 
ENDBRANCH   1   4
BRANCH   1  12
ATOM     12  N   UNL d   1      13.128  12.035  -3.164  0.00  0.00    -0.158 NA
BRANCH  12  13
ATOM     13  C   UNL d   1      13.496  12.036  -2.389  0.00  0.00     0.094 A 
ATOM     14  C   UNL d   1      14.271  12.280  -2.282  0.00  0.00     0.029 A 
ATOM     15  C   UNL d   1      14.617  12.281  -1.553  0.00  0.00     0.059 A 
ATOM     16  S   UNL d   1      15.390  12.503  -1.308  0.00  0.00    -0.018 SA
ATOM     17  C   UNL d   1      14.204  12.037  -0.898  0.00  0.00     0.110 A 
ATOM     18  C   UNL d   1      15.378  12.369  -0.490  0.00  0.00     0.332 A 
ATOM     19  O   UNL d   1      16.072  12.527  -0.015  0.00  0.00    -0.251 OA
ATOM     20  O   UNL d   1      14.699  12.099  -0.239  0.00  0.00    -0.268 OA
ATOM     21  C   UNL d   1      13.448  11.793  -0.966  0.00  0.00     0.027 A 
ATOM     22  C   UNL d   1      13.059  11.779  -1.706  0.00  0.00     0.022 A 
ENDBRANCH  12  13
ENDBRANCH   1  12
TORSDOF 3
ENDMDL
MODEL 2
REMARK VINA RESULT:      35.3      2.068      3.942
REMARK  3 active torsions:
REMARK  status: ('A' for Active; 'I' for Inactive)
REMARK    1  A    between atoms: C_4  and  S_1 
REMARK    2  A    between atoms: N_7  and  S_1 
REMARK    3  A    between atoms: C_14  and  N_7 
ROOT
ATOM      1  S   UNL d   1      14.981  13.529  -0.996  0.00  0.00     0.285 S 
ATOM      2  O   UNL d   1      14.763  13.734  -1.750  0.00  0.00    -0.198 OA
ATOM      3  O   UNL d   1      15.208  13.298  -0.206  0.00  0.00    -0.198 OA
ENDROOT
BRANCH   1   4
ATOM      4  C   UNL d   1      15.093  14.334  -0.794  0.00  0.00     0.105 A 
ATOM      5  C   UNL d   1      15.709  14.545  -0.318  0.00  0.00     0.012 A 
ATOM      6  C   UNL d   1      15.816  15.364  -0.118  0.00  0.00     0.001 A 
ATOM      7  C   UNL d   1      16.253  13.965  -0.014  0.00  0.00     0.001 C 
ATOM      8  C   UNL d   1      15.325  15.931  -0.386  0.00  0.00     0.000 A 
ATOM      9  C   UNL d   1      14.658  15.703  -0.901  0.00  0.00     0.001 A 
ATOM     10  C   UNL d   1      15.495  16.702  -0.148  0.00  0.00     0.000 C 
ATOM     11  C   UNL d   1      14.566  14.935  -1.082  0.00  0.00     0.013 A 
ENDBRANCH   1   4
BRANCH   1  12
ATOM     12  N   UNL d   1      14.879  12.735  -1.169  0.00  0.00    -0.158 NA
BRANCH  12  13
ATOM     13  C   UNL d   1      14.306  12.472  -1.751  0.00  0.00     0.094 A 
ATOM     14  C   UNL d   1      14.427  12.586  -2.553  0.00  0.00     0.029 A 
ATOM     15  C   UNL d   1      13.889  12.339  -3.101  0.00  0.00     0.059 A 
ATOM     16  S   UNL d   1      13.889  12.393  -3.940  0.00  0.00    -0.018 SA
ATOM     17  C   UNL d   1      13.205  11.966  -2.872  0.00  0.00     0.110 A 
ATOM     18  C   UNL d   1      13.174  12.032  -4.156  0.00  0.00     0.332 A 
ATOM     19  O   UNL d   1      12.952  11.968  -4.980  0.00  0.00    -0.251 OA
ATOM     20  O   UNL d   1      12.769  11.780  -3.548  0.00  0.00    -0.268 OA
ATOM     21  C   UNL d   1      13.056  11.838  -2.099  0.00  0.00     0.027 A 
ATOM     22  C   UNL d   1      13.592  12.081  -1.505  0.00  0.00     0.022 A 
ENDBRANCH  12  13
ENDBRANCH   1  12
TORSDOF 3
ENDMDL
