MODEL 1
REMARK VINA RESULT:      -6.3      0.000      0.000
REMARK  2 active torsions:
REMARK  status: ('A' for Active; 'I' for Inactive)
REMARK    1  A    between atoms: N_9  and  C_2 
REMARK    2  A    between atoms: C_11  and  N_9 
ROOT
ATOM      1  C   UNL d   1     -41.487-123.004 -51.855  0.00  0.00     0.154 A 
ATOM      2  C   UNL d   1     -41.409-122.642 -52.588  0.00  0.00     0.185 A 
ATOM      3  C   UNL d   1     -41.384-122.566 -51.164  0.00  0.00     0.186 A 
ATOM      4  N   UNL d   1     -41.663-123.781 -51.642  0.00  0.00    -0.218 NA
ATOM      5  N   UNL d   1     -41.496-123.073 -50.525  0.00  0.00    -0.203 NA
ATOM      6  N   UNL d   1     -41.226-121.839 -52.632  0.00  0.00    -0.203 NA
ATOM      7  N   UNL d   1     -41.202-121.766 -51.205  0.00  0.00    -0.203 NA
ATOM      8  C   UNL d   1     -41.667-123.817 -50.815  0.00  0.00     0.201 A 
ATOM      9  C   UNL d   1     -41.123-121.401 -51.941  0.00  0.00     0.202 A 
ENDROOT
BRANCH   2  10
ATOM     10  N   UNL d   1     -41.513-123.080 -53.279  0.00  0.00    -0.225 NA
BRANCH  10  11
ATOM     11  C   UNL d   1     -41.687-122.700 -53.986  0.00  0.00     0.083 A 
ATOM     12  C   UNL d   1     -41.123-122.662 -54.587  0.00  0.00     0.021 A 
ATOM     13  C   UNL d   1     -41.296-122.284 -55.291  0.00  0.00     0.031 A 
ATOM     14  C   UNL d   1     -42.044-121.936 -55.405  0.00  0.00     0.140 A 
ATOM     15  C   UNL d   1     -42.608-121.974 -54.804  0.00  0.00     0.031 A 
ATOM     16  F   UNL d   1     -42.226-121.551 -56.117  0.00  0.00    -0.204 F 
ATOM     17  C   UNL d   1     -42.430-122.356 -54.094  0.00  0.00     0.021 A 
ENDBRANCH  10  11
ENDBRANCH   2  10
TORSDOF 2
ENDMDL
MODEL 2
REMARK VINA RESULT:      -5.5      2.428      4.140
REMARK  2 active torsions:
REMARK  status: ('A' for Active; 'I' for Inactive)
REMARK    1  A    between atoms: N_9  and  C_2 
REMARK    2  A    between atoms: C_11  and  N_9 
ROOT
ATOM      1  C   UNL d   1     -41.428-123.060 -52.157  0.00  0.00     0.154 A 
ATOM      2  C   UNL d   1     -41.523-122.925 -51.353  0.00  0.00     0.185 A 
ATOM      3  C   UNL d   1     -41.228-122.438 -52.661  0.00  0.00     0.186 A 
ATOM      4  N   UNL d   1     -41.495-123.745 -52.611  0.00  0.00    -0.218 NA
ATOM      5  N   UNL d   1     -41.172-122.740 -53.425  0.00  0.00    -0.203 NA
ATOM      6  N   UNL d   1     -41.418-122.165 -51.048  0.00  0.00    -0.203 NA
ATOM      7  N   UNL d   1     -41.123-121.681 -52.360  0.00  0.00    -0.203 NA
ATOM      8  C   UNL d   1     -41.335-123.540 -53.396  0.00  0.00     0.201 A 
ATOM      9  C   UNL d   1     -41.218-121.543 -51.552  0.00  0.00     0.202 A 
ENDROOT
BRANCH   2  10
ATOM     10  N   UNL d   1     -41.723-123.547 -50.849  0.00  0.00    -0.225 NA
BRANCH  10  11
ATOM     11  C   UNL d   1     -41.946-123.395 -50.073  0.00  0.00     0.083 A 
ATOM     12  C   UNL d   1     -41.386-123.425 -49.468  0.00  0.00     0.021 A 
ATOM     13  C   UNL d   1     -41.606-123.274 -48.696  0.00  0.00     0.031 A 
ATOM     14  C   UNL d   1     -42.399-123.089 -48.516  0.00  0.00     0.140 A 
ATOM     15  C   UNL d   1     -42.958-123.059 -49.121  0.00  0.00     0.031 A 
ATOM     16  F   UNL d   1     -42.629-122.934 -47.734  0.00  0.00    -0.204 F 
ATOM     17  C   UNL d   1     -42.732-123.212 -49.900  0.00  0.00     0.021 A 
ENDBRANCH  10  11
ENDBRANCH   2  10
TORSDOF 2
ENDMDL
MODEL 3
REMARK VINA RESULT:      -5.4      1.925      3.710
REMARK  2 active torsions:
REMARK  status: ('A' for Active; 'I' for Inactive)
REMARK    1  A    between atoms: N_9  and  C_2 
REMARK    2  A    between atoms: C_11  and  N_9 
ROOT
ATOM      1  C   UNL d   1     -41.800-122.230 -53.979  0.00  0.00     0.154 A 
ATOM      2  C   UNL d   1     -41.520-122.462 -53.243  0.00  0.00     0.185 A 
ATOM      3  C   UNL d   1     -41.916-122.790 -54.573  0.00  0.00     0.186 A 
ATOM      4  N   UNL d   1     -42.008-121.490 -54.280  0.00  0.00    -0.218 NA
ATOM      5  N   UNL d   1     -42.196-122.395 -55.240  0.00  0.00    -0.203 NA
ATOM      6  N   UNL d   1     -41.356-123.257 -53.097  0.00  0.00    -0.203 NA
ATOM      7  N   UNL d   1     -41.753-123.582 -54.432  0.00  0.00    -0.203 NA
ATOM      8  C   UNL d   1     -42.252-121.600 -55.062  0.00  0.00     0.201 A 
ATOM      9  C   UNL d   1     -41.472-123.817 -53.692  0.00  0.00     0.202 A 
ENDROOT
BRANCH   2  10
ATOM     10  N   UNL d   1     -41.404-121.902 -52.649  0.00  0.00    -0.225 NA
BRANCH  10  11
ATOM     11  C   UNL d   1     -41.613-122.073 -51.873  0.00  0.00     0.083 A 
ATOM     12  C   UNL d   1     -41.123-122.545 -51.406  0.00  0.00     0.021 A 
ATOM     13  C   UNL d   1     -41.329-122.716 -50.634  0.00  0.00     0.031 A 
ATOM     14  C   UNL d   1     -42.037-122.414 -50.314  0.00  0.00     0.140 A 
ATOM     15  C   UNL d   1     -42.527-121.943 -50.781  0.00  0.00     0.031 A 
ATOM     16  F   UNL d   1     -42.253-122.584 -49.532  0.00  0.00    -0.204 F 
ATOM     17  C   UNL d   1     -42.315-121.772 -51.561  0.00  0.00     0.021 A 
ENDBRANCH  10  11
ENDBRANCH   2  10
TORSDOF 2
ENDMDL
MODEL 4
REMARK VINA RESULT:      -5.0      1.655      2.477
REMARK  2 active torsions:
REMARK  status: ('A' for Active; 'I' for Inactive)
REMARK    1  A    between atoms: N_9  and  C_2 
REMARK    2  A    between atoms: C_11  and  N_9 
ROOT
ATOM      1  C   UNL d   1     -41.908-123.007 -49.706  0.00  0.00     0.154 A 
ATOM      2  C   UNL d   1     -41.827-122.712 -50.468  0.00  0.00     0.185 A 
ATOM      3  C   UNL d   1     -42.612-122.894 -49.292  0.00  0.00     0.186 A 
ATOM      4  N   UNL d   1     -41.391-123.429 -49.222  0.00  0.00    -0.218 NA
ATOM      5  N   UNL d   1     -42.529-123.247 -48.553  0.00  0.00    -0.203 NA
ATOM      6  N   UNL d   1     -42.451-122.302 -50.820  0.00  0.00    -0.203 NA
ATOM      7  N   UNL d   1     -43.235-122.486 -49.639  0.00  0.00    -0.203 NA
ATOM      8  C   UNL d   1     -41.782-123.575 -48.508  0.00  0.00     0.201 A 
ATOM      9  C   UNL d   1     -43.155-122.189 -50.406  0.00  0.00     0.202 A 
ENDROOT
BRANCH   2  10
ATOM     10  N   UNL d   1     -41.123-122.825 -50.883  0.00  0.00    -0.225 NA
BRANCH  10  11
ATOM     11  C   UNL d   1     -41.135-122.930 -51.698  0.00  0.00     0.083 A 
ATOM     12  C   UNL d   1     -41.132-122.276 -52.200  0.00  0.00     0.021 A 
ATOM     13  C   UNL d   1     -41.144-122.380 -53.011  0.00  0.00     0.031 A 
ATOM     14  C   UNL d   1     -41.160-123.147 -53.334  0.00  0.00     0.140 A 
ATOM     15  C   UNL d   1     -41.164-123.801 -52.831  0.00  0.00     0.031 A 
ATOM     16  F   UNL d   1     -41.173-123.259 -54.156  0.00  0.00    -0.204 F 
ATOM     17  C   UNL d   1     -41.151-123.693 -52.013  0.00  0.00     0.021 A 
ENDBRANCH  10  11
ENDBRANCH   2  10
TORSDOF 2
ENDMDL
