MODEL 1
REMARK VINA RESULT:     192.6      0.000      0.000
REMARK  4 active torsions:
REMARK  status: ('A' for Active; 'I' for Inactive)
REMARK    1  A    between atoms: N_10  and  C_3 
REMARK    2  A    between atoms: C_12  and  C_5 
REMARK    3  A    between atoms: C_15  and  C_9 
REMARK    4  A    between atoms: C_19  and  N_11 
ROOT
ATOM      1  N   UNL d   1     -57.136-100.951 -43.628  0.00  0.00    -0.196 N 
ATOM      2  C   UNL d   1     -57.520-100.645 -44.296  0.00  0.00     0.167 A 
ATOM      3  C   UNL d   1     -56.360-101.191 -43.691  0.00  0.00     0.152 A 
ATOM      4  N   UNL d   1     -58.318-100.763 -42.863  0.00  0.00    -0.163 NA
ATOM      5  C   UNL d   1     -58.288-100.405 -44.243  0.00  0.00     0.055 A 
ATOM      6  N   UNL d   1     -57.114-100.592 -45.003  0.00  0.00    -0.227 NA
ATOM      7  C   UNL d   1     -55.949-101.132 -44.425  0.00  0.00     0.057 A 
ATOM      8  C   UNL d   1     -58.702-100.458 -43.531  0.00  0.00     0.104 A 
ATOM      9  C   UNL d   1     -56.342-100.833 -45.059  0.00  0.00     0.086 A 
ATOM     10  C   UNL d   1     -59.466-100.218 -43.480  0.00  0.00     0.023 C 
ENDROOT
BRANCH   3  11
ATOM     11  N   UNL d   1     -55.963-101.504 -43.008  0.00  0.00    -0.286 N 
ATOM     12  C   UNL d   1     -55.586-102.267 -42.986  0.00  0.00     0.101 A 
ATOM     13  C   UNL d   1     -55.205-102.530 -42.281  0.00  0.00     0.100 A 
ATOM     14  N   UNL d   1     -55.195-102.038 -41.588  0.00  0.00    -0.300 N 
ATOM     15  C   UNL d   1     -55.574-101.271 -41.611  0.00  0.00     0.100 A 
ATOM     16  C   UNL d   1     -55.955-101.006 -42.315  0.00  0.00     0.101 A 
BRANCH  14  17
ATOM     17  C   UNL d   1     -54.812-102.303 -40.880  0.00  0.00     0.080 C 
ATOM     18  C   UNL d   1     -55.268-102.508 -40.205  0.00  0.00     0.021 C 
ENDBRANCH  14  17
ENDBRANCH   3  11
BRANCH   9  19
ATOM     19  C   UNL d   1     -55.919-100.774 -45.805  0.00  0.00     0.018 C 
ATOM     20  C   UNL d   1     -56.042-100.082 -46.306  0.00  0.00     0.002 C 
ATOM     21  C   UNL d   1     -55.382-101.396 -46.047  0.00  0.00     0.002 C 
ENDBRANCH   9  19
BRANCH   5  22
ATOM     22  C   UNL d   1     -58.676-100.097 -44.917  0.00  0.00     0.004 A 
ATOM     23  C   UNL d   1     -59.258-100.534 -45.286  0.00  0.00     0.000 A 
ATOM     24  C   UNL d   1     -59.640-100.231 -45.951  0.00  0.00     0.000 A 
ATOM     25  C   UNL d   1     -59.432 -99.496 -46.233  0.00  0.00     0.000 A 
ATOM     26  C   UNL d   1     -58.843 -99.059 -45.858  0.00  0.00     0.000 A 
ATOM     27  C   UNL d   1     -58.472 -99.365 -45.204  0.00  0.00     0.000 A 
ENDBRANCH   5  22
TORSDOF 4
ENDMDL
