MODEL 1
REMARK VINA RESULT:      -3.3      0.000      0.000
REMARK  4 active torsions:
REMARK  status: ('A' for Active; 'I' for Inactive)
REMARK    1  A    between atoms: C_9  and  C_2 
REMARK    2  A    between atoms: S_8  and  C_4 
REMARK       I    between atoms: N_6  and  C_7 
REMARK    3  A    between atoms: C_7  and  C_10 
REMARK    4  A    between atoms: C_10  and  S_8 
ROOT
ATOM      1  N   UNL d   1      32.583  18.499 -22.836  0.00  0.00    -0.212 NA
ATOM      2  C   UNL d   1      32.519  18.288 -23.621  0.00  0.00     0.171 A 
ATOM      3  N   UNL d   1      32.925  18.846 -24.073  0.00  0.00    -0.188 NA
ATOM      4  C   UNL d   1      33.029  19.189 -22.784  0.00  0.00     0.160 A 
ATOM      5  S   UNL d   1      33.241  19.403 -23.555  0.00  0.00     0.041 SA
ENDROOT
BRANCH   4   6
ATOM      6  S   UNL d   1      33.231  19.597 -22.097  0.00  0.00    -0.054 SA
BRANCH   6   7
ATOM      7  C   UNL d   1      32.941  20.350 -21.968  0.00  0.00     0.098 C 
BRANCH   7   8
ATOM      8  C   UNL d   1      32.986  20.697 -21.218  0.00  0.00     0.272 C 
ATOM      9  N   UNL d   1      32.784  21.488 -21.099  0.00  0.00    -0.267 N 
ATOM     10  C   UNL d   1      32.836  21.812 -20.347  0.00  0.00     0.110 A 
ATOM     11  C   UNL d   1      32.532  21.943 -21.739  0.00  0.00     0.110 A 
ATOM     12  C   UNL d   1      32.632  22.609 -20.233  0.00  0.00     0.142 A 
ATOM     13  O   UNL d   1      32.379  23.071 -20.863  0.00  0.00    -0.300 OA
ATOM     14  C   UNL d   1      32.327  22.740 -21.625  0.00  0.00     0.142 A 
ATOM     15  O   UNL d   1      33.241  20.237 -20.573  0.00  0.00    -0.266 OA
ENDBRANCH   7   8
ENDBRANCH   6   7
ENDBRANCH   4   6
BRANCH   2  16
ATOM     16  C   UNL d   1      32.119  17.632 -23.922  0.00  0.00     0.036 A 
ATOM     17  C   UNL d   1      31.407  17.729 -24.302  0.00  0.00     0.003 A 
ATOM     18  C   UNL d   1      30.999  17.089 -24.605  0.00  0.00     0.000 A 
ATOM     19  C   UNL d   1      31.318  16.329 -24.524  0.00  0.00     0.000 A 
ATOM     20  C   UNL d   1      32.036  16.222 -24.142  0.00  0.00     0.000 A 
ATOM     21  C   UNL d   1      32.434  16.866 -23.844  0.00  0.00     0.003 A 
ENDBRANCH   2  16
TORSDOF 4
ENDMDL
MODEL 2
REMARK VINA RESULT:      -3.2      1.924      5.078
REMARK  4 active torsions:
REMARK  status: ('A' for Active; 'I' for Inactive)
REMARK    1  A    between atoms: C_9  and  C_2 
REMARK    2  A    between atoms: S_8  and  C_4 
REMARK       I    between atoms: N_6  and  C_7 
REMARK    3  A    between atoms: C_7  and  C_10 
REMARK    4  A    between atoms: C_10  and  S_8 
ROOT
ATOM      1  N   UNL d   1      32.943  19.743 -22.093  0.00  0.00    -0.212 NA
ATOM      2  C   UNL d   1      32.952  20.543 -22.251  0.00  0.00     0.171 A 
ATOM      3  N   UNL d   1      33.136  20.648 -23.047  0.00  0.00    -0.188 NA
ATOM      4  C   UNL d   1      33.120  19.337 -22.786  0.00  0.00     0.160 A 
ATOM      5  S   UNL d   1      33.240  19.901 -23.379  0.00  0.00     0.041 SA
ENDROOT
BRANCH   4   6
ATOM      6  S   UNL d   1      33.170  18.519 -22.881  0.00  0.00    -0.054 SA
BRANCH   6   7
ATOM      7  C   UNL d   1      32.571  18.113 -23.260  0.00  0.00     0.098 C 
BRANCH   7   8
ATOM      8  C   UNL d   1      32.582  17.287 -23.305  0.00  0.00     0.272 C 
ATOM      9  N   UNL d   1      31.987  16.870 -23.696  0.00  0.00    -0.267 N 
ATOM     10  C   UNL d   1      32.018  16.052 -23.728  0.00  0.00     0.110 A 
ATOM     11  C   UNL d   1      31.367  17.285 -24.049  0.00  0.00     0.110 A 
ATOM     12  C   UNL d   1      31.416  15.637 -24.123  0.00  0.00     0.142 A 
ATOM     13  O   UNL d   1      30.794  16.039 -24.479  0.00  0.00    -0.300 OA
ATOM     14  C   UNL d   1      30.765  16.870 -24.444  0.00  0.00     0.142 A 
ATOM     15  O   UNL d   1      33.208  16.870 -22.948  0.00  0.00    -0.266 OA
ENDBRANCH   7   8
ENDBRANCH   6   7
ENDBRANCH   4   6
BRANCH   2  16
ATOM     16  C   UNL d   1      32.805  21.152 -21.712  0.00  0.00     0.036 A 
ATOM     17  C   UNL d   1      33.063  21.906 -21.871  0.00  0.00     0.003 A 
ATOM     18  C   UNL d   1      32.924  22.518 -21.348  0.00  0.00     0.000 A 
ATOM     19  C   UNL d   1      32.514  22.366 -20.645  0.00  0.00     0.000 A 
ATOM     20  C   UNL d   1      32.251  21.608 -20.477  0.00  0.00     0.000 A 
ATOM     21  C   UNL d   1      32.394  21.006 -21.005  0.00  0.00     0.003 A 
ENDBRANCH   2  16
TORSDOF 4
ENDMDL
MODEL 3
REMARK VINA RESULT:      -3.0      2.315      5.124
REMARK  4 active torsions:
REMARK  status: ('A' for Active; 'I' for Inactive)
REMARK    1  A    between atoms: C_9  and  C_2 
REMARK    2  A    between atoms: S_8  and  C_4 
REMARK       I    between atoms: N_6  and  C_7 
REMARK    3  A    between atoms: C_7  and  C_10 
REMARK    4  A    between atoms: C_10  and  S_8 
ROOT
ATOM      1  N   UNL d   1      32.661  18.820 -22.762  0.00  0.00    -0.212 NA
ATOM      2  C   UNL d   1      32.976  19.561 -22.891  0.00  0.00     0.171 A 
ATOM      3  N   UNL d   1      33.241  19.598 -23.671  0.00  0.00    -0.188 NA
ATOM      4  C   UNL d   1      32.723  18.384 -23.458  0.00  0.00     0.160 A 
ATOM      5  S   UNL d   1      33.084  18.869 -24.022  0.00  0.00     0.041 SA
ENDROOT
BRANCH   4   6
ATOM      6  S   UNL d   1      32.475  17.607 -23.578  0.00  0.00    -0.054 SA
BRANCH   6   7
ATOM      7  C   UNL d   1      31.732  17.458 -23.884  0.00  0.00     0.098 C 
BRANCH   7   8
ATOM      8  C   UNL d   1      31.421  16.690 -23.883  0.00  0.00     0.272 C 
ATOM      9  N   UNL d   1      30.636  16.546 -24.094  0.00  0.00    -0.267 N 
ATOM     10  C   UNL d   1      30.349  15.778 -24.086  0.00  0.00     0.110 A 
ATOM     11  C   UNL d   1      30.152  17.177 -24.309  0.00  0.00     0.110 A 
ATOM     12  C   UNL d   1      29.558  15.638 -24.299  0.00  0.00     0.142 A 
ATOM     13  O   UNL d   1      29.066  16.258 -24.516  0.00  0.00    -0.300 OA
ATOM     14  C   UNL d   1      29.361  17.037 -24.522  0.00  0.00     0.142 A 
ATOM     15  O   UNL d   1      31.912  16.055 -23.665  0.00  0.00    -0.266 OA
ENDBRANCH   7   8
ENDBRANCH   6   7
ENDBRANCH   4   6
BRANCH   2  16
ATOM     16  C   UNL d   1      33.027  20.176 -22.342  0.00  0.00     0.036 A 
ATOM     17  C   UNL d   1      32.914  20.024 -21.551  0.00  0.00     0.003 A 
ATOM     18  C   UNL d   1      32.961  20.622 -20.996  0.00  0.00     0.000 A 
ATOM     19  C   UNL d   1      33.126  21.395 -21.244  0.00  0.00     0.000 A 
ATOM     20  C   UNL d   1      33.241  21.556 -22.040  0.00  0.00     0.000 A 
ATOM     21  C   UNL d   1      33.192  20.953 -22.584  0.00  0.00     0.003 A 
ENDBRANCH   2  16
TORSDOF 4
ENDMDL
MODEL 4
REMARK VINA RESULT:      -2.8      1.529      2.149
REMARK  4 active torsions:
REMARK  status: ('A' for Active; 'I' for Inactive)
REMARK    1  A    between atoms: C_9  and  C_2 
REMARK    2  A    between atoms: S_8  and  C_4 
REMARK       I    between atoms: N_6  and  C_7 
REMARK    3  A    between atoms: C_7  and  C_10 
REMARK    4  A    between atoms: C_10  and  S_8 
ROOT
ATOM      1  N   UNL d   1      31.640  17.694 -24.017  0.00  0.00    -0.212 NA
ATOM      2  C   UNL d   1      31.452  16.906 -23.924  0.00  0.00     0.171 A 
ATOM      3  N   UNL d   1      32.126  16.508 -23.664  0.00  0.00    -0.188 NA
ATOM      4  C   UNL d   1      32.431  17.801 -23.818  0.00  0.00     0.160 A 
ATOM      5  S   UNL d   1      32.732  17.062 -23.599  0.00  0.00     0.041 SA
ENDROOT
BRANCH   4   6
ATOM      6  S   UNL d   1      32.853  18.509 -23.831  0.00  0.00    -0.054 SA
BRANCH   6   7
ATOM      7  C   UNL d   1      32.865  18.991 -23.172  0.00  0.00     0.098 C 
BRANCH   7   8
ATOM      8  C   UNL d   1      33.051  19.795 -23.239  0.00  0.00     0.272 C 
ATOM      9  N   UNL d   1      33.053  20.291 -22.580  0.00  0.00    -0.267 N 
ATOM     10  C   UNL d   1      33.240  21.084 -22.669  0.00  0.00     0.110 A 
ATOM     11  C   UNL d   1      32.866  19.981 -21.839  0.00  0.00     0.110 A 
ATOM     12  C   UNL d   1      33.240  21.579 -22.002  0.00  0.00     0.142 A 
ATOM     13  O   UNL d   1      33.056  21.282 -21.259  0.00  0.00    -0.300 OA
ATOM     14  C   UNL d   1      32.866  20.476 -21.172  0.00  0.00     0.142 A 
ATOM     15  O   UNL d   1      33.240  20.106 -23.988  0.00  0.00    -0.266 OA
ENDBRANCH   7   8
ENDBRANCH   6   7
ENDBRANCH   4   6
BRANCH   2  16
ATOM     16  C   UNL d   1      30.716  16.556 -24.062  0.00  0.00     0.036 A 
ATOM     17  C   UNL d   1      30.274  16.782 -24.706  0.00  0.00     0.003 A 
ATOM     18  C   UNL d   1      29.545  16.445 -24.856  0.00  0.00     0.000 A 
ATOM     19  C   UNL d   1      29.253  15.864 -24.343  0.00  0.00     0.000 A 
ATOM     20  C   UNL d   1      29.693  15.631 -23.692  0.00  0.00     0.000 A 
ATOM     21  C   UNL d   1      30.418  15.973 -23.552  0.00  0.00     0.003 A 
ENDBRANCH   2  16
TORSDOF 4
ENDMDL
MODEL 5
REMARK VINA RESULT:      -1.1      1.764      5.438
REMARK  4 active torsions:
REMARK  status: ('A' for Active; 'I' for Inactive)
REMARK    1  A    between atoms: C_9  and  C_2 
REMARK    2  A    between atoms: S_8  and  C_4 
REMARK       I    between atoms: N_6  and  C_7 
REMARK    3  A    between atoms: C_7  and  C_10 
REMARK    4  A    between atoms: C_10  and  S_8 
ROOT
ATOM      1  N   UNL d   1      33.202  21.828 -21.169  0.00  0.00    -0.212 NA
ATOM      2  C   UNL d   1      32.640  22.067 -20.627  0.00  0.00     0.171 A 
ATOM      3  N   UNL d   1      31.901  21.815 -20.892  0.00  0.00    -0.188 NA
ATOM      4  C   UNL d   1      32.824  21.424 -21.778  0.00  0.00     0.160 A 
ATOM      5  S   UNL d   1      32.015  21.416 -21.605  0.00  0.00     0.041 SA
ENDROOT
BRANCH   4   6
ATOM      6  S   UNL d   1      33.179  21.086 -22.442  0.00  0.00    -0.054 SA
BRANCH   6   7
ATOM      7  C   UNL d   1      33.187  20.274 -22.532  0.00  0.00     0.098 C 
BRANCH   7   8
ATOM      8  C   UNL d   1      33.209  19.933 -23.287  0.00  0.00     0.272 C 
ATOM      9  N   UNL d   1      33.201  19.115 -23.388  0.00  0.00    -0.267 N 
ATOM     10  C   UNL d   1      33.223  18.799 -24.144  0.00  0.00     0.110 A 
ATOM     11  C   UNL d   1      33.169  18.625 -22.725  0.00  0.00     0.110 A 
ATOM     12  C   UNL d   1      33.215  17.973 -24.240  0.00  0.00     0.142 A 
ATOM     13  O   UNL d   1      33.183  17.476 -23.588  0.00  0.00    -0.300 OA
ATOM     14  C   UNL d   1      33.160  17.800 -22.821  0.00  0.00     0.142 A 
ATOM     15  O   UNL d   1      33.241  20.429 -23.955  0.00  0.00    -0.266 OA
ENDBRANCH   7   8
ENDBRANCH   6   7
ENDBRANCH   4   6
BRANCH   2  16
ATOM     16  C   UNL d   1      32.777  22.489 -19.931  0.00  0.00     0.036 A 
ATOM     17  C   UNL d   1      32.992  23.272 -19.967  0.00  0.00     0.003 A 
ATOM     18  C   UNL d   1      33.131  23.702 -19.286  0.00  0.00     0.000 A 
ATOM     19  C   UNL d   1      33.052  23.334 -18.549  0.00  0.00     0.000 A 
ATOM     20  C   UNL d   1      32.835  22.544 -18.505  0.00  0.00     0.000 A 
ATOM     21  C   UNL d   1      32.699  22.125 -19.188  0.00  0.00     0.003 A 
ENDBRANCH   2  16
TORSDOF 4
ENDMDL
