MODEL 1
REMARK VINA RESULT:      27.9      0.000      0.000
REMARK  12 active torsions:
REMARK  status: ('A' for Active; 'I' for Inactive)
REMARK    1  A    between atoms: C_7  and  C_1 
REMARK    2  A    between atoms: C_8  and  N_2 
REMARK    3  A    between atoms: C_6  and  C_5 
REMARK    4  A    between atoms: C_9  and  C_7 
REMARK    5  A    between atoms: C_24  and  C_8 
REMARK    6  A    between atoms: C_12  and  C_9 
REMARK    7  A    between atoms: C_11  and  C_12 
REMARK    8  A    between atoms: O_27  and  C_13 
REMARK    9  A    between atoms: N_14  and  C_24 
REMARK   10  A    between atoms: O_28  and  C_18 
REMARK   11  A    between atoms: C_33  and  O_28 
REMARK   12  A    between atoms: C_35  and  C_33 
ROOT
ATOM      1  C   UNL d   1     -42.416-122.474 -51.655  0.00  0.00     0.099 A 
ATOM      2  N   UNL d   1     -42.380-123.056 -50.453  0.00  0.00    -0.269 N 
ATOM      3  C   UNL d   1     -41.736-122.939 -51.609  0.00  0.00     0.256 A 
ATOM      4  C   UNL d   1     -41.710-123.298 -50.870  0.00  0.00     0.304 A 
ATOM      5  C   UNL d   1     -42.816-122.547 -50.937  0.00  0.00     0.073 A 
ATOM      6  O   UNL d   1     -41.124-123.808 -50.595  0.00  0.00    -0.263 OA
ATOM      7  O   UNL d   1     -41.175-123.027 -52.205  0.00  0.00    -0.281 OA
ENDROOT
BRANCH   5   8
ATOM      8  C   UNL d   1     -43.524-122.180 -50.734  0.00  0.00     0.018 A 
ATOM      9  C   UNL d   1     -44.208-122.619 -50.666  0.00  0.00     0.028 A 
ATOM     10  C   UNL d   1     -44.915-122.253 -50.463  0.00  0.00     0.117 A 
ATOM     11  C   UNL d   1     -44.931-121.431 -50.327  0.00  0.00     0.122 A 
ATOM     12  C   UNL d   1     -44.237-120.993 -50.397  0.00  0.00     0.027 A 
ATOM     13  C   UNL d   1     -43.527-121.366 -50.601  0.00  0.00     0.004 A 
BRANCH  10  14
ATOM     14  O   UNL d   1     -45.604-122.693 -50.395  0.00  0.00    -0.326 OA
ATOM     15  C   UNL d   1     -45.569-123.521 -50.413  0.00  0.00     0.181 C 
ENDBRANCH  10  14
BRANCH  11  16
ATOM     16  O   UNL d   1     -45.638-121.065 -50.124  0.00  0.00    -0.303 OA
BRANCH  16  17
ATOM     17  C   UNL d   1     -45.624-120.352 -49.702  0.00  0.00     0.123 C 
BRANCH  17  18
ATOM     18  C   UNL d   1     -46.325-120.042 -49.396  0.00  0.00     0.027 C 
ATOM     19  C   UNL d   1     -46.296-119.406 -48.878  0.00  0.00     0.002 C 
ENDBRANCH  17  18
ENDBRANCH  16  17
ENDBRANCH  11  16
ENDBRANCH   5   8
BRANCH   2  20
ATOM     20  C   UNL d   1     -42.580-123.282 -49.684  0.00  0.00     0.102 C 
BRANCH  20  21
ATOM     21  C   UNL d   1     -41.993-123.365 -49.110  0.00  0.00     0.100 C 
BRANCH  21  22
ATOM     22  N   UNL d   1     -42.200-123.444 -48.320  0.00  0.00    -0.298 N 
ATOM     23  C   UNL d   1     -41.665-123.233 -47.740  0.00  0.00     0.107 A 
ATOM     24  C   UNL d   1     -41.872-123.312 -46.943  0.00  0.00     0.142 A 
ATOM     25  O   UNL d   1     -42.617-123.603 -46.738  0.00  0.00    -0.300 OA
ATOM     26  C   UNL d   1     -43.154-123.815 -47.328  0.00  0.00     0.142 A 
ATOM     27  C   UNL d   1     -42.948-123.736 -48.116  0.00  0.00     0.107 A 
ENDBRANCH  21  22
ENDBRANCH  20  21
ENDBRANCH   2  20
BRANCH   1  28
ATOM     28  C   UNL d   1     -42.654-122.022 -52.295  0.00  0.00     0.200 C 
ATOM     29  O   UNL d   1     -42.941-121.256 -52.179  0.00  0.00    -0.286 OA
BRANCH  28  30
ATOM     30  C   UNL d   1     -42.606-122.333 -53.062  0.00  0.00     0.044 C 
BRANCH  30  31
ATOM     31  C   UNL d   1     -42.410-121.838 -53.697  0.00  0.00     0.028 C 
BRANCH  31  32
ATOM     32  C   UNL d   1     -42.194-122.164 -54.414  0.00  0.00     0.100 A 
ATOM     33  O   UNL d   1     -41.720-121.813 -54.984  0.00  0.00    -0.305 OA
ATOM     34  C   UNL d   1     -41.644-122.337 -55.621  0.00  0.00     0.123 A 
ATOM     35  C   UNL d   1     -42.072-123.014 -55.444  0.00  0.00     0.029 A 
ATOM     36  C   UNL d   1     -42.416-122.912 -54.696  0.00  0.00     0.027 A 
ENDBRANCH  31  32
ENDBRANCH  30  31
ENDBRANCH  28  30
ENDBRANCH   1  28
TORSDOF 12
ENDMDL
