MODEL 1
REMARK VINA RESULT:      49.1      0.000      0.000
REMARK  4 active torsions:
REMARK  status: ('A' for Active; 'I' for Inactive)
REMARK    1  A    between atoms: C_6  and  C_1 
REMARK    2  A    between atoms: C_3  and  C_15 
REMARK    3  A    between atoms: O_11  and  C_6 
REMARK    4  A    between atoms: C_15  and  O_11 
ROOT
ATOM      1  C   UNL d   1      46.375 -18.411  40.781  0.00  0.00     0.127 A 
ATOM      2  C   UNL d   1      46.503 -19.169  40.511  0.00  0.00     0.305 A 
ATOM      3  C   UNL d   1      46.331 -18.264  41.598  0.00  0.00     0.013 A 
ATOM      4  C   UNL d   1      46.424 -18.915  42.109  0.00  0.00     0.023 A 
ATOM      5  O   UNL d   1      46.595 -19.808  41.003  0.00  0.00    -0.273 OA
ATOM      6  C   UNL d   1      46.552 -19.669  41.842  0.00  0.00     0.103 A 
ATOM      7  C   UNL d   1      46.382 -18.780  42.944  0.00  0.00     0.002 A 
ATOM      8  O   UNL d   1      46.545 -19.299  39.655  0.00  0.00    -0.259 OA
ATOM      9  C   UNL d   1      46.646 -20.329  42.354  0.00  0.00     0.025 A 
ATOM     10  C   UNL d   1      46.475 -19.432  43.457  0.00  0.00     0.000 A 
ATOM     11  C   UNL d   1      46.604 -20.186  43.166  0.00  0.00     0.002 A 
ATOM     12  C   UNL d   1      46.255 -18.034  43.260  0.00  0.00     0.000 A 
ATOM     13  C   UNL d   1      46.440 -19.333  44.255  0.00  0.00     0.000 A 
ATOM     14  C   UNL d   1      46.218 -17.928  44.091  0.00  0.00     0.000 A 
ATOM     15  C   UNL d   1      46.309 -18.572  44.587  0.00  0.00     0.000 A 
ENDROOT
BRANCH   1  16
ATOM     16  C   UNL d   1      46.282 -17.750  40.205  0.00  0.00     0.305 C 
ATOM     17  O   UNL d   1      46.647 -17.036  40.396  0.00  0.00    -0.259 OA
BRANCH  16  18
ATOM     18  O   UNL d   1      45.854 -17.832  39.508  0.00  0.00    -0.271 OA
BRANCH  18  19
ATOM     19  C   UNL d   1      45.215 -17.324  39.368  0.00  0.00     0.127 C 
ATOM     20  C   UNL d   1      44.620 -17.257  39.948  0.00  0.00     0.029 C 
BRANCH  19  21
ATOM     21  C   UNL d   1      45.139 -16.879  38.680  0.00  0.00     0.134 A 
ATOM     22  N   UNL d   1      45.657 -16.341  38.362  0.00  0.00    -0.236 NA
ATOM     23  C   UNL d   1      45.289 -16.058  37.655  0.00  0.00     0.088 A 
ATOM     24  C   UNL d   1      45.537 -15.513  37.099  0.00  0.00     0.020 A 
ATOM     25  C   UNL d   1      44.617 -16.396  37.563  0.00  0.00     0.049 A 
ATOM     26  C   UNL d   1      45.079 -15.300  36.414  0.00  0.00     0.002 A 
ATOM     27  C   UNL d   1      44.384 -15.670  36.347  0.00  0.00     0.001 A 
ATOM     28  C   UNL d   1      44.132 -16.219  36.906  0.00  0.00     0.008 A 
ATOM     29  S   UNL d   1      44.476 -16.924  38.184  0.00  0.00    -0.065 SA
ENDBRANCH  19  21
ENDBRANCH  18  19
ENDBRANCH  16  18
ENDBRANCH   1  16
TORSDOF 4
ENDMDL
