MODEL 1
REMARK VINA RESULT:      23.1      0.000      0.000
REMARK  5 active torsions:
REMARK  status: ('A' for Active; 'I' for Inactive)
REMARK    1  A    between atoms: C_11  and  N_1 
REMARK    2  A    between atoms: S_10  and  C_2 
REMARK    3  A    between atoms: S_3  and  C_12 
REMARK    4  A    between atoms: C_13  and  C_11 
REMARK    5  A    between atoms: C_12  and  C_13 
ROOT
ATOM      1  N   UNL d   1     -51.159  24.881  33.307  0.00  0.00    -0.295 N 
ATOM      2  C   UNL d   1     -50.630  24.255  33.308  0.00  0.00     0.121 A 
ATOM      3  S   UNL d   1     -51.052  23.549  33.309  0.00  0.00    -0.062 SA
ATOM      4  C   UNL d   1     -51.921  24.565  33.308  0.00  0.00     0.071 A 
ATOM      5  C   UNL d   1     -51.854  23.733  33.309  0.00  0.00     0.047 A 
ATOM      6  C   UNL d   1     -52.666  24.920  33.308  0.00  0.00     0.018 A 
ATOM      7  C   UNL d   1     -52.533  23.271  33.310  0.00  0.00     0.008 A 
ATOM      8  C   UNL d   1     -53.347  24.447  33.309  0.00  0.00     0.002 A 
ATOM      9  C   UNL d   1     -53.282  23.634  33.310  0.00  0.00     0.001 A 
ENDROOT
BRANCH   1  10
ATOM     10  C   UNL d   1     -50.968  25.670  33.307  0.00  0.00     0.082 C 
BRANCH  10  11
ATOM     11  C   UNL d   1     -51.003  26.114  34.012  0.00  0.00     0.034 C 
BRANCH  11  12
ATOM     12  C   UNL d   1     -50.484  26.737  34.138  0.00  0.00     0.119 C 
BRANCH  12  13
ATOM     13  S   UNL d   1     -50.591  27.449  33.731  0.00  0.00     0.140 S 
ATOM     14  O   UNL d   1     -50.700  28.146  33.335  0.00  0.00    -0.591 OA
ATOM     15  O   UNL d   1     -49.891  27.317  33.317  0.00  0.00    -0.591 OA
ATOM     16  O   UNL d   1     -51.294  27.581  34.147  0.00  0.00    -0.591 OA
ENDBRANCH  12  13
ENDBRANCH  11  12
ENDBRANCH  10  11
ENDBRANCH   1  10
BRANCH   2  17
ATOM     17  S   UNL d   1     -49.811  24.321  33.307  0.00  0.00    -0.089 SA
ATOM     18  C   UNL d   1     -49.346  23.704  33.559  0.00  0.00     0.076 C 
ENDBRANCH   2  17
TORSDOF 5
ENDMDL
