MODEL 1
REMARK VINA RESULT:      -2.8      0.000      0.000
REMARK  6 active torsions:
REMARK  status: ('A' for Active; 'I' for Inactive)
REMARK    1  A    between atoms: S_4  and  C_1 
REMARK    2  A    between atoms: C_9  and  N_2 
REMARK    3  A    between atoms: C_11  and  S_4 
REMARK    4  A    between atoms: C_6  and  C_11 
REMARK       I    between atoms: N_8  and  C_6 
REMARK    5  A    between atoms: C_12  and  N_8 
REMARK    6  A    between atoms: O_18  and  C_13 
ROOT
ATOM      1  S   UNL d   1      32.007  17.515 -24.003  0.00  0.00    -0.044 SA
ENDROOT
BRANCH   1   2
ATOM      2  C   UNL d   1      32.056  16.789 -24.398  0.00  0.00     0.180 A 
ATOM      3  N   UNL d   1      31.422  16.323 -24.622  0.00  0.00    -0.284 N 
ATOM      4  C   UNL d   1      31.728  15.654 -24.998  0.00  0.00     0.103 A 
ATOM      5  C   UNL d   1      32.562  15.715 -25.001  0.00  0.00     0.120 A 
ATOM      6  N   UNL d   1      32.748  16.413 -24.631  0.00  0.00    -0.219 NA
BRANCH   3   7
ATOM      7  C   UNL d   1      30.615  16.459 -24.513  0.00  0.00     0.066 A 
ATOM      8  C   UNL d   1      30.244  16.207 -23.830  0.00  0.00     0.018 A 
ATOM      9  C   UNL d   1      29.437  16.343 -23.721  0.00  0.00     0.002 A 
ATOM     10  C   UNL d   1      29.003  16.731 -24.296  0.00  0.00     0.000 A 
ATOM     11  C   UNL d   1      29.375  16.987 -24.987  0.00  0.00     0.002 A 
ATOM     12  C   UNL d   1      30.181  16.851 -25.095  0.00  0.00     0.018 A 
ENDBRANCH   3   7
ENDBRANCH   1   2
BRANCH   1  13
ATOM     13  C   UNL d   1      32.665  17.819 -23.607  0.00  0.00     0.101 C 
BRANCH  13  14
ATOM     14  C   UNL d   1      32.653  18.572 -23.302  0.00  0.00     0.286 C 
ATOM     15  N   UNL d   1      33.142  18.766 -22.678  0.00  0.00    -0.208 NA
ATOM     16  O   UNL d   1      32.145  19.133 -23.626  0.00  0.00    -0.265 OA
BRANCH  15  17
ATOM     17  C   UNL d   1      33.134  19.523 -22.366  0.00  0.00     0.085 A 
ATOM     18  C   UNL d   1      33.020  19.636 -21.555  0.00  0.00     0.021 A 
ATOM     19  C   UNL d   1      33.010  20.398 -21.234  0.00  0.00     0.026 A 
ATOM     20  C   UNL d   1      33.116  21.046 -21.728  0.00  0.00     0.094 A 
ATOM     21  C   UNL d   1      33.231  20.921 -22.542  0.00  0.00     0.026 A 
ATOM     22  C   UNL d   1      33.239  20.172 -22.852  0.00  0.00     0.021 A 
BRANCH  20  23
ATOM     23  O   UNL d   1      33.106  21.811 -21.402  0.00  0.00    -0.328 OA
ATOM     24  C   UNL d   1      32.403  22.246 -21.420  0.00  0.00     0.181 C 
ENDBRANCH  20  23
ENDBRANCH  15  17
ENDBRANCH  13  14
ENDBRANCH   1  13
TORSDOF 6
ENDMDL
MODEL 2
REMARK VINA RESULT:      -1.7      1.767      5.608
REMARK  6 active torsions:
REMARK  status: ('A' for Active; 'I' for Inactive)
REMARK    1  A    between atoms: S_4  and  C_1 
REMARK    2  A    between atoms: C_9  and  N_2 
REMARK    3  A    between atoms: C_11  and  S_4 
REMARK    4  A    between atoms: C_6  and  C_11 
REMARK       I    between atoms: N_8  and  C_6 
REMARK    5  A    between atoms: C_12  and  N_8 
REMARK    6  A    between atoms: O_18  and  C_13 
ROOT
ATOM      1  S   UNL d   1      32.882  20.720 -22.022  0.00  0.00    -0.044 SA
ENDROOT
BRANCH   1   2
ATOM      2  C   UNL d   1      32.937  21.108 -21.293  0.00  0.00     0.180 A 
ATOM      3  N   UNL d   1      32.868  21.914 -21.173  0.00  0.00    -0.284 N 
ATOM      4  C   UNL d   1      32.958  22.052 -20.364  0.00  0.00     0.103 A 
ATOM      5  C   UNL d   1      33.084  21.316 -19.985  0.00  0.00     0.120 A 
ATOM      6  N   UNL d   1      33.069  20.748 -20.566  0.00  0.00    -0.219 NA
BRANCH   3   7
ATOM      7  C   UNL d   1      32.733  22.510 -21.728  0.00  0.00     0.066 A 
ATOM      8  C   UNL d   1      33.238  22.602 -22.364  0.00  0.00     0.018 A 
ATOM      9  C   UNL d   1      33.104  23.198 -22.919  0.00  0.00     0.002 A 
ATOM     10  C   UNL d   1      32.465  23.702 -22.836  0.00  0.00     0.000 A 
ATOM     11  C   UNL d   1      31.953  23.612 -22.194  0.00  0.00     0.002 A 
ATOM     12  C   UNL d   1      32.088  23.016 -21.640  0.00  0.00     0.018 A 
ENDBRANCH   3   7
ENDBRANCH   1   2
BRANCH   1  13
ATOM     13  C   UNL d   1      33.235  19.981 -22.129  0.00  0.00     0.101 C 
BRANCH  13  14
ATOM     14  C   UNL d   1      33.013  19.502 -22.746  0.00  0.00     0.286 C 
ATOM     15  N   UNL d   1      32.810  18.724 -22.604  0.00  0.00    -0.208 NA
ATOM     16  O   UNL d   1      32.994  19.807 -23.510  0.00  0.00    -0.265 OA
BRANCH  15  17
ATOM     17  C   UNL d   1      32.584  18.236 -23.223  0.00  0.00     0.085 A 
ATOM     18  C   UNL d   1      31.806  17.961 -23.271  0.00  0.00     0.021 A 
ATOM     19  C   UNL d   1      31.573  17.469 -23.893  0.00  0.00     0.026 A 
ATOM     20  C   UNL d   1      32.122  17.252 -24.465  0.00  0.00     0.094 A 
ATOM     21  C   UNL d   1      32.902  17.533 -24.406  0.00  0.00     0.026 A 
ATOM     22  C   UNL d   1      33.126  18.016 -23.794  0.00  0.00     0.021 A 
BRANCH  20  23
ATOM     23  O   UNL d   1      31.884  16.756 -25.089  0.00  0.00    -0.328 OA
ATOM     24  C   UNL d   1      31.456  16.071 -24.915  0.00  0.00     0.181 C 
ENDBRANCH  20  23
ENDBRANCH  15  17
ENDBRANCH  13  14
ENDBRANCH   1  13
TORSDOF 6
ENDMDL
MODEL 3
REMARK VINA RESULT:      -1.6      1.892      5.635
REMARK  6 active torsions:
REMARK  status: ('A' for Active; 'I' for Inactive)
REMARK    1  A    between atoms: S_4  and  C_1 
REMARK    2  A    between atoms: C_9  and  N_2 
REMARK    3  A    between atoms: C_11  and  S_4 
REMARK    4  A    between atoms: C_6  and  C_11 
REMARK       I    between atoms: N_8  and  C_6 
REMARK    5  A    between atoms: C_12  and  N_8 
REMARK    6  A    between atoms: O_18  and  C_13 
ROOT
ATOM      1  S   UNL d   1      32.992  21.141 -22.572  0.00  0.00    -0.044 SA
ENDROOT
BRANCH   1   2
ATOM      2  C   UNL d   1      33.032  21.944 -22.768  0.00  0.00     0.180 A 
ATOM      3  N   UNL d   1      32.911  22.569 -22.254  0.00  0.00    -0.284 N 
ATOM      4  C   UNL d   1      33.006  23.267 -22.686  0.00  0.00     0.103 A 
ATOM      5  C   UNL d   1      33.187  23.062 -23.476  0.00  0.00     0.120 A 
ATOM      6  N   UNL d   1      33.200  22.251 -23.512  0.00  0.00    -0.219 NA
BRANCH   3   7
ATOM      7  C   UNL d   1      32.728  22.549 -21.449  0.00  0.00     0.066 A 
ATOM      8  C   UNL d   1      33.205  22.139 -20.928  0.00  0.00     0.018 A 
ATOM      9  C   UNL d   1      33.022  22.119 -20.124  0.00  0.00     0.002 A 
ATOM     10  C   UNL d   1      32.361  22.510 -19.841  0.00  0.00     0.000 A 
ATOM     11  C   UNL d   1      31.877  22.926 -20.365  0.00  0.00     0.002 A 
ATOM     12  C   UNL d   1      32.060  22.945 -21.169  0.00  0.00     0.018 A 
ENDBRANCH   3   7
ENDBRANCH   1   2
BRANCH   1  13
ATOM     13  C   UNL d   1      33.239  20.567 -23.112  0.00  0.00     0.101 C 
BRANCH  13  14
ATOM     14  C   UNL d   1      32.989  19.798 -23.041  0.00  0.00     0.286 C 
ATOM     15  N   UNL d   1      32.935  19.325 -23.704  0.00  0.00    -0.208 NA
ATOM     16  O   UNL d   1      32.793  19.502 -22.298  0.00  0.00    -0.265 OA
BRANCH  15  17
ATOM     17  C   UNL d   1      32.683  18.548 -23.639  0.00  0.00     0.085 A 
ATOM     18  C   UNL d   1      33.237  17.936 -23.590  0.00  0.00     0.021 A 
ATOM     19  C   UNL d   1      32.990  17.150 -23.524  0.00  0.00     0.026 A 
ATOM     20  C   UNL d   1      32.185  16.979 -23.506  0.00  0.00     0.094 A 
ATOM     21  C   UNL d   1      31.637  17.603 -23.556  0.00  0.00     0.026 A 
ATOM     22  C   UNL d   1      31.885  18.372 -23.621  0.00  0.00     0.021 A 
BRANCH  20  23
ATOM     23  O   UNL d   1      31.940  16.188 -23.440  0.00  0.00    -0.328 OA
ATOM     24  C   UNL d   1      31.496  15.852 -24.051  0.00  0.00     0.181 C 
ENDBRANCH  20  23
ENDBRANCH  15  17
ENDBRANCH  13  14
ENDBRANCH   1  13
TORSDOF 6
ENDMDL
MODEL 4
REMARK VINA RESULT:      -0.6      1.730      2.665
REMARK  6 active torsions:
REMARK  status: ('A' for Active; 'I' for Inactive)
REMARK    1  A    between atoms: S_4  and  C_1 
REMARK    2  A    between atoms: C_9  and  N_2 
REMARK    3  A    between atoms: C_11  and  S_4 
REMARK    4  A    between atoms: C_6  and  C_11 
REMARK       I    between atoms: N_8  and  C_6 
REMARK    5  A    between atoms: C_12  and  N_8 
REMARK    6  A    between atoms: O_18  and  C_13 
ROOT
ATOM      1  S   UNL d   1      32.819  19.215 -22.963  0.00  0.00    -0.044 SA
ENDROOT
BRANCH   1   2
ATOM      2  C   UNL d   1      32.861  18.992 -23.759  0.00  0.00     0.180 A 
ATOM      3  N   UNL d   1      32.745  18.237 -24.051  0.00  0.00    -0.284 N 
ATOM      4  C   UNL d   1      32.839  18.272 -24.871  0.00  0.00     0.103 A 
ATOM      5  C   UNL d   1      33.016  19.062 -25.080  0.00  0.00     0.120 A 
ATOM      6  N   UNL d   1      33.025  19.491 -24.391  0.00  0.00    -0.219 NA
BRANCH   3   7
ATOM      7  C   UNL d   1      32.566  17.545 -23.639  0.00  0.00     0.066 A 
ATOM      8  C   UNL d   1      31.802  17.253 -23.635  0.00  0.00     0.018 A 
ATOM      9  C   UNL d   1      31.624  16.561 -23.223  0.00  0.00     0.002 A 
ATOM     10  C   UNL d   1      32.209  16.160 -22.815  0.00  0.00     0.000 A 
ATOM     11  C   UNL d   1      32.981  16.452 -22.817  0.00  0.00     0.002 A 
ATOM     12  C   UNL d   1      33.160  17.144 -23.229  0.00  0.00     0.018 A 
ENDBRANCH   3   7
ENDBRANCH   1   2
BRANCH   1  13
ATOM     13  C   UNL d   1      32.490  19.943 -22.750  0.00  0.00     0.101 C 
BRANCH  13  14
ATOM     14  C   UNL d   1      32.698  20.302 -22.053  0.00  0.00     0.286 C 
ATOM     15  N   UNL d   1      32.407  21.044 -21.875  0.00  0.00    -0.208 NA
ATOM     16  O   UNL d   1      33.203  19.914 -21.530  0.00  0.00    -0.265 OA
BRANCH  15  17
ATOM     17  C   UNL d   1      32.614  21.412 -21.172  0.00  0.00     0.085 A 
ATOM     18  C   UNL d   1      32.744  20.962 -20.491  0.00  0.00     0.021 A 
ATOM     19  C   UNL d   1      32.953  21.327 -19.780  0.00  0.00     0.026 A 
ATOM     20  C   UNL d   1      33.031  22.146 -19.753  0.00  0.00     0.094 A 
ATOM     21  C   UNL d   1      32.897  22.588 -20.444  0.00  0.00     0.026 A 
ATOM     22  C   UNL d   1      32.693  22.225 -21.139  0.00  0.00     0.021 A 
BRANCH  20  23
ATOM     23  O   UNL d   1      33.241  22.510 -19.036  0.00  0.00    -0.328 OA
ATOM     24  C   UNL d   1      32.945  23.263 -18.866  0.00  0.00     0.181 C 
ENDBRANCH  20  23
ENDBRANCH  15  17
ENDBRANCH  13  14
ENDBRANCH   1  13
TORSDOF 6
ENDMDL
MODEL 5
REMARK VINA RESULT:      -0.2      1.409      2.107
REMARK  6 active torsions:
REMARK  status: ('A' for Active; 'I' for Inactive)
REMARK    1  A    between atoms: S_4  and  C_1 
REMARK    2  A    between atoms: C_9  and  N_2 
REMARK    3  A    between atoms: C_11  and  S_4 
REMARK    4  A    between atoms: C_6  and  C_11 
REMARK       I    between atoms: N_8  and  C_6 
REMARK    5  A    between atoms: C_12  and  N_8 
REMARK    6  A    between atoms: O_18  and  C_13 
ROOT
ATOM      1  S   UNL d   1      33.000  18.400 -22.606  0.00  0.00    -0.044 SA
ENDROOT
BRANCH   1   2
ATOM      2  C   UNL d   1      32.917  17.578 -22.550  0.00  0.00     0.180 A 
ATOM      3  N   UNL d   1      32.500  17.103 -23.070  0.00  0.00    -0.284 N 
ATOM      4  C   UNL d   1      32.567  16.325 -22.800  0.00  0.00     0.103 A 
ATOM      5  C   UNL d   1      33.032  16.327 -22.105  0.00  0.00     0.120 A 
ATOM      6  N   UNL d   1      33.239  17.100 -21.964  0.00  0.00    -0.219 NA
BRANCH   3   7
ATOM      7  C   UNL d   1      32.079  17.320 -23.745  0.00  0.00     0.066 A 
ATOM      8  C   UNL d   1      32.453  17.719 -24.353  0.00  0.00     0.018 A 
ATOM      9  C   UNL d   1      32.033  17.936 -25.029  0.00  0.00     0.002 A 
ATOM     10  C   UNL d   1      31.238  17.754 -25.097  0.00  0.00     0.000 A 
ATOM     11  C   UNL d   1      30.857  17.351 -24.485  0.00  0.00     0.002 A 
ATOM     12  C   UNL d   1      31.278  17.134 -23.809  0.00  0.00     0.018 A 
ENDBRANCH   3   7
ENDBRANCH   1   2
BRANCH   1  13
ATOM     13  C   UNL d   1      33.235  18.840 -21.948  0.00  0.00     0.101 C 
BRANCH  13  14
ATOM     14  C   UNL d   1      33.084  19.637 -21.908  0.00  0.00     0.286 C 
ATOM     15  N   UNL d   1      33.013  20.002 -21.181  0.00  0.00    -0.208 NA
ATOM     16  O   UNL d   1      33.002  20.070 -22.603  0.00  0.00    -0.265 OA
BRANCH  15  17
ATOM     17  C   UNL d   1      32.859  20.805 -21.134  0.00  0.00     0.085 A 
ATOM     18  C   UNL d   1      32.317  21.092 -20.580  0.00  0.00     0.021 A 
ATOM     19  C   UNL d   1      32.158  21.902 -20.528  0.00  0.00     0.026 A 
ATOM     20  C   UNL d   1      32.545  22.423 -21.033  0.00  0.00     0.094 A 
ATOM     21  C   UNL d   1      33.088  22.123 -21.587  0.00  0.00     0.026 A 
ATOM     22  C   UNL d   1      33.240  21.328 -21.634  0.00  0.00     0.021 A 
BRANCH  20  23
ATOM     23  O   UNL d   1      32.383  23.237 -20.978  0.00  0.00    -0.328 OA
ATOM     24  C   UNL d   1      32.408  23.698 -21.664  0.00  0.00     0.181 C 
ENDBRANCH  20  23
ENDBRANCH  15  17
ENDBRANCH  13  14
ENDBRANCH   1  13
TORSDOF 6
ENDMDL
