MODEL 1
REMARK VINA RESULT:       5.7      0.000      0.000
REMARK  6 active torsions:
REMARK  status: ('A' for Active; 'I' for Inactive)
REMARK    1  A    between atoms: C_2  and  S_1 
REMARK    2  A    between atoms: N_6  and  S_1 
REMARK    3  A    between atoms: C_14  and  N_6 
REMARK    4  A    between atoms: C_8  and  C_13 
REMARK    5  A    between atoms: C_13  and  C_15 
REMARK    6  A    between atoms: C_15  and  C_14 
ROOT
ATOM      1  S   UNL d   1      46.453 -18.404  43.810  0.00  0.00     0.291 S 
ATOM      2  O   UNL d   1      46.259 -18.891  44.459  0.00  0.00    -0.198 OA
ATOM      3  O   UNL d   1      46.647 -17.916  43.167  0.00  0.00    -0.198 OA
ENDROOT
BRANCH   1   4
ATOM      4  C   UNL d   1      46.483 -19.070  43.312  0.00  0.00     0.135 A 
ATOM      5  S   UNL d   1      46.509 -19.855  43.544  0.00  0.00    -0.073 SA
ATOM      6  C   UNL d   1      46.534 -20.329  42.866  0.00  0.00     0.036 A 
ATOM      7  C   UNL d   1      46.525 -19.860  42.224  0.00  0.00     0.008 A 
ATOM      8  C   UNL d   1      46.493 -19.068  42.480  0.00  0.00     0.020 A 
ENDBRANCH   1   4
BRANCH   1   9
ATOM      9  N   UNL d   1      46.424 -17.730  44.310  0.00  0.00    -0.156 NA
BRANCH   9  10
ATOM     10  C   UNL d   1      45.865 -17.134  44.190  0.00  0.00     0.112 C 
BRANCH  10  11
ATOM     11  C   UNL d   1      45.914 -16.419  44.584  0.00  0.00     0.028 C 
BRANCH  11  12
ATOM     12  C   UNL d   1      45.257 -15.924  44.624  0.00  0.00     0.072 C 
BRANCH  12  13
ATOM     13  C   UNL d   1      45.338 -15.115  44.762  0.00  0.00     0.211 C 
ATOM     14  O   UNL d   1      44.683 -14.640  44.955  0.00  0.00    -0.644 OA
ATOM     15  O   UNL d   1      46.078 -14.756  44.712  0.00  0.00    -0.644 OA
ENDBRANCH  12  13
ENDBRANCH  11  12
ENDBRANCH  10  11
ENDBRANCH   9  10
ENDBRANCH   1   9
TORSDOF 6
ENDMDL
MODEL 2
REMARK VINA RESULT:       6.2      2.137      4.654
REMARK  6 active torsions:
REMARK  status: ('A' for Active; 'I' for Inactive)
REMARK    1  A    between atoms: C_2  and  S_1 
REMARK    2  A    between atoms: N_6  and  S_1 
REMARK    3  A    between atoms: C_14  and  N_6 
REMARK    4  A    between atoms: C_8  and  C_13 
REMARK    5  A    between atoms: C_13  and  C_15 
REMARK    6  A    between atoms: C_15  and  C_14 
ROOT
ATOM      1  S   UNL d   1      45.516 -14.822  44.740  0.00  0.00     0.291 S 
ATOM      2  O   UNL d   1      46.331 -14.764  44.908  0.00  0.00    -0.198 OA
ATOM      3  O   UNL d   1      44.705 -14.883  44.574  0.00  0.00    -0.198 OA
ENDROOT
BRANCH   1   4
ATOM      4  C   UNL d   1      45.494 -14.014  44.541  0.00  0.00     0.135 A 
ATOM      5  S   UNL d   1      45.858 -13.400  44.942  0.00  0.00    -0.073 SA
ATOM      6  C   UNL d   1      45.689 -12.692  44.548  0.00  0.00     0.036 A 
ATOM      7  C   UNL d   1      45.232 -12.851  43.917  0.00  0.00     0.008 A 
ATOM      8  C   UNL d   1      45.098 -13.673  43.893  0.00  0.00     0.020 A 
ENDBRANCH   1   4
BRANCH   1   9
ATOM      9  N   UNL d   1      45.535 -15.636  44.940  0.00  0.00    -0.156 NA
BRANCH   9  10
ATOM     10  C   UNL d   1      45.708 -16.212  44.374  0.00  0.00     0.112 C 
BRANCH  10  11
ATOM     11  C   UNL d   1      45.875 -16.983  44.588  0.00  0.00     0.028 C 
BRANCH  11  12
ATOM     12  C   UNL d   1      45.951 -17.564  44.009  0.00  0.00     0.072 C 
BRANCH  12  13
ATOM     13  C   UNL d   1      46.273 -18.303  44.185  0.00  0.00     0.211 C 
ATOM     14  O   UNL d   1      46.230 -18.624  44.951  0.00  0.00    -0.644 OA
ATOM     15  O   UNL d   1      46.647 -18.745  43.599  0.00  0.00    -0.644 OA
ENDBRANCH  12  13
ENDBRANCH  11  12
ENDBRANCH  10  11
ENDBRANCH   9  10
ENDBRANCH   1   9
TORSDOF 6
ENDMDL
