MODEL 1
REMARK VINA RESULT:      -7.1      0.000      0.000
REMARK  4 active torsions:
REMARK  status: ('A' for Active; 'I' for Inactive)
REMARK    1  A    between atoms: S_6  and  C_1 
REMARK    2  A    between atoms: C_14  and  N_2 
REMARK    3  A    between atoms: C_7  and  S_6 
REMARK    4  A    between atoms: O_18  and  C_16 
ROOT
ATOM      1  C   UNL d   1     -39.832  15.495  19.297  0.00  0.00     0.114 A 
ATOM      2  N   UNL d   1     -39.326  14.915  19.595  0.00  0.00    -0.239 NA
ATOM      3  C   UNL d   1     -39.417  14.680  20.375  0.00  0.00     0.084 A 
ATOM      4  C   UNL d   1     -39.990  15.007  20.843  0.00  0.00     0.018 A 
ATOM      5  C   UNL d   1     -40.494  15.583  20.549  0.00  0.00     0.004 A 
ATOM      6  C   UNL d   1     -38.910  14.097  20.678  0.00  0.00     0.043 A 
ATOM      7  C   UNL d   1     -40.405  15.822  19.765  0.00  0.00     0.026 A 
ATOM      8  C   UNL d   1     -40.078  14.765  21.631  0.00  0.00     0.004 A 
ATOM      9  C   UNL d   1     -39.001  13.861  21.458  0.00  0.00     0.096 A 
ATOM     10  C   UNL d   1     -39.574  14.189  21.926  0.00  0.00     0.024 A 
ATOM     11  C   UNL d   1     -41.074  15.915  21.023  0.00  0.00     0.000 C 
ENDROOT
BRANCH   1  12
ATOM     12  S   UNL d   1     -39.831  15.815  18.508  0.00  0.00    -0.028 SA
BRANCH  12  13
ATOM     13  C   UNL d   1     -40.152  15.067  18.182  0.00  0.00     0.220 A 
ATOM     14  N   UNL d   1     -39.904  14.665  17.478  0.00  0.00    -0.186 N 
ATOM     15  N   UNL d   1     -40.371  13.993  17.410  0.00  0.00    -0.038 NA
ATOM     16  N   UNL d   1     -40.915  13.964  18.066  0.00  0.00    -0.022 NA
ATOM     17  N   UNL d   1     -40.766  14.631  18.530  0.00  0.00    -0.101 NA
BRANCH  14  18
ATOM     18  C   UNL d   1     -39.298  14.909  16.955  0.00  0.00     0.087 A 
ATOM     19  C   UNL d   1     -39.399  15.640  16.542  0.00  0.00     0.019 A 
ATOM     20  C   UNL d   1     -38.789  15.920  15.993  0.00  0.00     0.002 A 
ATOM     21  C   UNL d   1     -38.105  15.450  15.886  0.00  0.00     0.000 A 
ATOM     22  C   UNL d   1     -37.994  14.700  16.305  0.00  0.00     0.002 A 
ATOM     23  C   UNL d   1     -38.619  14.465  16.833  0.00  0.00     0.019 A 
ENDBRANCH  14  18
ENDBRANCH  12  13
ENDBRANCH   1  12
BRANCH   9  24
ATOM     24  O   UNL d   1     -38.497  13.285  21.752  0.00  0.00    -0.328 OA
ATOM     25  C   UNL d   1     -38.325  13.259  22.545  0.00  0.00     0.181 C 
ENDBRANCH   9  24
TORSDOF 4
ENDMDL
MODEL 2
REMARK VINA RESULT:      -6.6      8.312     10.004
REMARK  4 active torsions:
REMARK  status: ('A' for Active; 'I' for Inactive)
REMARK    1  A    between atoms: S_6  and  C_1 
REMARK    2  A    between atoms: C_14  and  N_2 
REMARK    3  A    between atoms: C_7  and  S_6 
REMARK    4  A    between atoms: O_18  and  C_16 
ROOT
ATOM      1  C   UNL d   1     -48.221  12.840  23.409  0.00  0.00     0.114 A 
ATOM      2  N   UNL d   1     -47.626  13.297  23.066  0.00  0.00    -0.239 NA
ATOM      3  C   UNL d   1     -46.892  12.954  22.939  0.00  0.00     0.084 A 
ATOM      4  C   UNL d   1     -46.753  12.184  23.146  0.00  0.00     0.018 A 
ATOM      5  C   UNL d   1     -47.342  11.728  23.487  0.00  0.00     0.004 A 
ATOM      6  C   UNL d   1     -46.293  13.411  22.594  0.00  0.00     0.043 A 
ATOM      7  C   UNL d   1     -48.081  12.070  23.616  0.00  0.00     0.026 A 
ATOM      8  C   UNL d   1     -46.009  11.843  23.015  0.00  0.00     0.004 A 
ATOM      9  C   UNL d   1     -45.558  13.069  22.466  0.00  0.00     0.096 A 
ATOM     10  C   UNL d   1     -45.419  12.299  22.673  0.00  0.00     0.024 A 
ATOM     11  C   UNL d   1     -47.201  10.949  23.696  0.00  0.00     0.000 C 
ENDROOT
BRANCH   1  12
ATOM     12  S   UNL d   1     -49.015  13.087  23.587  0.00  0.00    -0.028 SA
BRANCH  12  13
ATOM     13  C   UNL d   1     -49.179  13.240  22.739  0.00  0.00     0.220 A 
ATOM     14  N   UNL d   1     -49.593  13.901  22.407  0.00  0.00    -0.186 N 
ATOM     15  N   UNL d   1     -49.601  13.792  21.593  0.00  0.00    -0.038 NA
ATOM     16  N   UNL d   1     -49.196  13.066  21.404  0.00  0.00    -0.022 NA
ATOM     17  N   UNL d   1     -48.943  12.741  22.120  0.00  0.00    -0.101 NA
BRANCH  14  18
ATOM     18  C   UNL d   1     -49.929  14.540  22.830  0.00  0.00     0.087 A 
ATOM     19  C   UNL d   1     -50.686  14.428  23.188  0.00  0.00     0.019 A 
ATOM     20  C   UNL d   1     -51.059  15.071  23.633  0.00  0.00     0.002 A 
ATOM     21  C   UNL d   1     -50.650  15.799  23.697  0.00  0.00     0.000 A 
ATOM     22  C   UNL d   1     -49.874  15.922  23.334  0.00  0.00     0.002 A 
ATOM     23  C   UNL d   1     -49.546  15.263  22.906  0.00  0.00     0.019 A 
ENDBRANCH  14  18
ENDBRANCH  12  13
ENDBRANCH   1  12
BRANCH   9  24
ATOM     24  O   UNL d   1     -44.969  13.525  22.125  0.00  0.00    -0.328 OA
ATOM     25  C   UNL d   1     -44.327  13.171  21.778  0.00  0.00     0.181 C 
ENDBRANCH   9  24
TORSDOF 4
ENDMDL
MODEL 3
REMARK VINA RESULT:      -5.8      7.718      9.386
REMARK  4 active torsions:
REMARK  status: ('A' for Active; 'I' for Inactive)
REMARK    1  A    between atoms: S_6  and  C_1 
REMARK    2  A    between atoms: C_14  and  N_2 
REMARK    3  A    between atoms: C_7  and  S_6 
REMARK    4  A    between atoms: O_18  and  C_16 
ROOT
ATOM      1  C   UNL d   1     -47.313  12.481  23.312  0.00  0.00     0.114 A 
ATOM      2  N   UNL d   1     -47.488  13.286  23.362  0.00  0.00    -0.239 NA
ATOM      3  C   UNL d   1     -48.137  13.571  22.950  0.00  0.00     0.084 A 
ATOM      4  C   UNL d   1     -48.596  13.076  22.505  0.00  0.00     0.018 A 
ATOM      5  C   UNL d   1     -48.424  12.276  22.454  0.00  0.00     0.004 A 
ATOM      6  C   UNL d   1     -48.315  14.380  22.998  0.00  0.00     0.043 A 
ATOM      7  C   UNL d   1     -47.772  11.986  22.867  0.00  0.00     0.026 A 
ATOM      8  C   UNL d   1     -49.251  13.370  22.090  0.00  0.00     0.004 A 
ATOM      9  C   UNL d   1     -48.964  14.666  22.586  0.00  0.00     0.096 A 
ATOM     10  C   UNL d   1     -49.424  14.171  22.140  0.00  0.00     0.024 A 
ATOM     11  C   UNL d   1     -48.889  11.775  22.003  0.00  0.00     0.000 C 
ENDROOT
BRANCH   1  12
ATOM     12  S   UNL d   1     -46.669  12.075  23.694  0.00  0.00    -0.028 SA
BRANCH  12  13
ATOM     13  C   UNL d   1     -46.098  12.386  23.106  0.00  0.00     0.220 A 
ATOM     14  N   UNL d   1     -45.366  12.033  22.862  0.00  0.00    -0.186 N 
ATOM     15  N   UNL d   1     -45.034  12.534  22.303  0.00  0.00    -0.038 NA
ATOM     16  N   UNL d   1     -45.548  13.204  22.188  0.00  0.00    -0.022 NA
ATOM     17  N   UNL d   1     -46.196  13.097  22.689  0.00  0.00    -0.101 NA
BRANCH  14  18
ATOM     18  C   UNL d   1     -45.048  11.310  23.141  0.00  0.00     0.087 A 
ATOM     19  C   UNL d   1     -44.207  11.242  23.198  0.00  0.00     0.019 A 
ATOM     20  C   UNL d   1     -43.847  10.506  23.483  0.00  0.00     0.002 A 
ATOM     21  C   UNL d   1     -44.353   9.874  23.698  0.00  0.00     0.000 A 
ATOM     22  C   UNL d   1     -45.215   9.937  23.642  0.00  0.00     0.002 A 
ATOM     23  C   UNL d   1     -45.523  10.677  23.357  0.00  0.00     0.019 A 
ENDBRANCH  14  18
ENDBRANCH  12  13
ENDBRANCH   1  12
BRANCH   9  24
ATOM     24  O   UNL d   1     -49.136  15.466  22.636  0.00  0.00    -0.328 OA
ATOM     25  C   UNL d   1     -49.828  15.714  22.981  0.00  0.00     0.181 C 
ENDBRANCH   9  24
TORSDOF 4
ENDMDL
MODEL 4
REMARK VINA RESULT:      -5.3      1.382      1.697
REMARK  4 active torsions:
REMARK  status: ('A' for Active; 'I' for Inactive)
REMARK    1  A    between atoms: S_6  and  C_1 
REMARK    2  A    between atoms: C_14  and  N_2 
REMARK    3  A    between atoms: C_7  and  S_6 
REMARK    4  A    between atoms: O_18  and  C_16 
ROOT
ATOM      1  C   UNL d   1     -40.018  14.532  18.674  0.00  0.00     0.114 A 
ATOM      2  N   UNL d   1     -39.510  14.940  19.179  0.00  0.00    -0.239 NA
ATOM      3  C   UNL d   1     -39.717  15.014  19.969  0.00  0.00     0.084 A 
ATOM      4  C   UNL d   1     -40.405  14.694  20.249  0.00  0.00     0.018 A 
ATOM      5  C   UNL d   1     -40.913  14.288  19.749  0.00  0.00     0.004 A 
ATOM      6  C   UNL d   1     -39.207  15.423  20.479  0.00  0.00     0.043 A 
ATOM      7  C   UNL d   1     -40.707  14.212  18.954  0.00  0.00     0.026 A 
ATOM      8  C   UNL d   1     -40.610  14.771  21.048  0.00  0.00     0.004 A 
ATOM      9  C   UNL d   1     -39.414  15.498  21.269  0.00  0.00     0.096 A 
ATOM     10  C   UNL d   1     -40.102  15.178  21.549  0.00  0.00     0.024 A 
ATOM     11  C   UNL d   1     -41.610  13.964  20.032  0.00  0.00     0.000 C 
ENDROOT
BRANCH   1  12
ATOM     12  S   UNL d   1     -39.908  14.393  17.842  0.00  0.00    -0.028 SA
BRANCH  12  13
ATOM     13  C   UNL d   1     -39.221  13.871  18.000  0.00  0.00     0.220 A 
ATOM     14  N   UNL d   1     -38.527  13.775  17.521  0.00  0.00    -0.186 N 
ATOM     15  N   UNL d   1     -38.049  13.228  17.902  0.00  0.00    -0.038 NA
ATOM     16  N   UNL d   1     -38.431  12.974  18.621  0.00  0.00    -0.022 NA
ATOM     17  N   UNL d   1     -39.150  13.379  18.664  0.00  0.00    -0.101 NA
BRANCH  14  18
ATOM     18  C   UNL d   1     -38.366  14.166  16.798  0.00  0.00     0.087 A 
ATOM     19  C   UNL d   1     -38.475  13.734  16.079  0.00  0.00     0.019 A 
ATOM     20  C   UNL d   1     -38.316  14.111  15.315  0.00  0.00     0.002 A 
ATOM     21  C   UNL d   1     -38.054  14.906  15.311  0.00  0.00     0.000 A 
ATOM     22  C   UNL d   1     -37.940  15.355  16.044  0.00  0.00     0.002 A 
ATOM     23  C   UNL d   1     -38.108  14.945  16.770  0.00  0.00     0.019 A 
ENDBRANCH  14  18
ENDBRANCH  12  13
ENDBRANCH   1  12
BRANCH   9  24
ATOM     24  O   UNL d   1     -38.906  15.904  21.769  0.00  0.00    -0.328 OA
ATOM     25  C   UNL d   1     -39.047  15.922  22.568  0.00  0.00     0.181 C 
ENDBRANCH   9  24
TORSDOF 4
ENDMDL
MODEL 5
REMARK VINA RESULT:      -4.7      8.251      9.756
REMARK  4 active torsions:
REMARK  status: ('A' for Active; 'I' for Inactive)
REMARK    1  A    between atoms: S_6  and  C_1 
REMARK    2  A    between atoms: C_14  and  N_2 
REMARK    3  A    between atoms: C_7  and  S_6 
REMARK    4  A    between atoms: O_18  and  C_16 
ROOT
ATOM      1  C   UNL d   1     -48.054  14.390  22.536  0.00  0.00     0.114 A 
ATOM      2  N   UNL d   1     -48.520  13.891  22.073  0.00  0.00    -0.239 NA
ATOM      3  C   UNL d   1     -49.326  14.037  22.030  0.00  0.00     0.084 A 
ATOM      4  C   UNL d   1     -49.657  14.655  22.432  0.00  0.00     0.018 A 
ATOM      5  C   UNL d   1     -49.196  15.152  22.893  0.00  0.00     0.004 A 
ATOM      6  C   UNL d   1     -49.797  13.537  21.565  0.00  0.00     0.043 A 
ATOM      7  C   UNL d   1     -48.385  15.008  22.938  0.00  0.00     0.026 A 
ATOM      8  C   UNL d   1     -50.473  14.798  22.385  0.00  0.00     0.004 A 
ATOM      9  C   UNL d   1     -50.603  13.682  21.521  0.00  0.00     0.096 A 
ATOM     10  C   UNL d   1     -50.935  14.301  21.923  0.00  0.00     0.024 A 
ATOM     11  C   UNL d   1     -49.532  15.778  23.300  0.00  0.00     0.000 C 
ENDROOT
BRANCH   1  12
ATOM     12  S   UNL d   1     -47.212  14.336  22.655  0.00  0.00    -0.028 SA
BRANCH  12  13
ATOM     13  C   UNL d   1     -47.293  13.535  23.002  0.00  0.00     0.220 A 
ATOM     14  N   UNL d   1     -46.755  12.883  22.923  0.00  0.00    -0.186 N 
ATOM     15  N   UNL d   1     -47.074  12.258  23.348  0.00  0.00    -0.038 NA
ATOM     16  N   UNL d   1     -47.811  12.504  23.698  0.00  0.00    -0.022 NA
ATOM     17  N   UNL d   1     -47.930  13.291  23.475  0.00  0.00    -0.101 NA
BRANCH  14  18
ATOM     18  C   UNL d   1     -46.037  12.883  22.493  0.00  0.00     0.087 A 
ATOM     19  C   UNL d   1     -45.312  12.896  22.928  0.00  0.00     0.019 A 
ATOM     20  C   UNL d   1     -44.552  12.896  22.510  0.00  0.00     0.002 A 
ATOM     21  C   UNL d   1     -44.559  12.883  21.673  0.00  0.00     0.000 A 
ATOM     22  C   UNL d   1     -45.297  12.870  21.221  0.00  0.00     0.002 A 
ATOM     23  C   UNL d   1     -46.019  12.871  21.672  0.00  0.00     0.019 A 
ENDBRANCH  14  18
ENDBRANCH  12  13
ENDBRANCH   1  12
BRANCH   9  24
ATOM     24  O   UNL d   1     -51.064  13.186  21.060  0.00  0.00    -0.328 OA
ATOM     25  C   UNL d   1     -51.026  12.381  21.162  0.00  0.00     0.181 C 
ENDBRANCH   9  24
TORSDOF 4
ENDMDL
MODEL 6
REMARK VINA RESULT:      -4.6      6.920      8.507
REMARK  4 active torsions:
REMARK  status: ('A' for Active; 'I' for Inactive)
REMARK    1  A    between atoms: S_6  and  C_1 
REMARK    2  A    between atoms: C_14  and  N_2 
REMARK    3  A    between atoms: C_7  and  S_6 
REMARK    4  A    between atoms: O_18  and  C_16 
ROOT
ATOM      1  C   UNL d   1     -46.076  11.845  22.970  0.00  0.00     0.114 A 
ATOM      2  N   UNL d   1     -45.639  12.308  22.445  0.00  0.00    -0.239 NA
ATOM      3  C   UNL d   1     -44.842  12.146  22.349  0.00  0.00     0.084 A 
ATOM      4  C   UNL d   1     -44.488  11.545  22.760  0.00  0.00     0.018 A 
ATOM      5  C   UNL d   1     -44.920  11.084  23.282  0.00  0.00     0.004 A 
ATOM      6  C   UNL d   1     -44.401  12.611  21.822  0.00  0.00     0.043 A 
ATOM      7  C   UNL d   1     -45.723  11.244  23.380  0.00  0.00     0.026 A 
ATOM      8  C   UNL d   1     -43.681  11.386  22.659  0.00  0.00     0.004 A 
ATOM      9  C   UNL d   1     -43.602  12.449  21.726  0.00  0.00     0.096 A 
ATOM     10  C   UNL d   1     -43.249  11.848  22.136  0.00  0.00     0.024 A 
ATOM     11  C   UNL d   1     -44.562  10.475  23.698  0.00  0.00     0.000 C 
ENDROOT
BRANCH   1  12
ATOM     12  S   UNL d   1     -46.905  11.921  23.149  0.00  0.00    -0.028 SA
BRANCH  12  13
ATOM     13  C   UNL d   1     -46.823  12.788  23.254  0.00  0.00     0.220 A 
ATOM     14  N   UNL d   1     -47.380  13.387  23.030  0.00  0.00    -0.186 N 
ATOM     15  N   UNL d   1     -47.052  14.108  23.244  0.00  0.00    -0.038 NA
ATOM     16  N   UNL d   1     -46.290  13.974  23.603  0.00  0.00    -0.022 NA
ATOM     17  N   UNL d   1     -46.166  13.157  23.600  0.00  0.00    -0.101 NA
BRANCH  14  18
ATOM     18  C   UNL d   1     -48.121  13.263  22.662  0.00  0.00     0.087 A 
ATOM     19  C   UNL d   1     -48.771  13.022  23.146  0.00  0.00     0.019 A 
ATOM     20  C   UNL d   1     -49.551  12.885  22.793  0.00  0.00     0.002 A 
ATOM     21  C   UNL d   1     -49.640  12.998  21.968  0.00  0.00     0.000 A 
ATOM     22  C   UNL d   1     -48.979  13.245  21.466  0.00  0.00     0.002 A 
ATOM     23  C   UNL d   1     -48.232  13.367  21.855  0.00  0.00     0.019 A 
ENDBRANCH  14  18
ENDBRANCH  12  13
ENDBRANCH   1  12
BRANCH   9  24
ATOM     24  O   UNL d   1     -43.171  12.911  21.204  0.00  0.00    -0.328 OA
ATOM     25  C   UNL d   1     -42.412  13.132  21.385  0.00  0.00     0.181 C 
ENDBRANCH   9  24
TORSDOF 4
ENDMDL
