MODEL 1
REMARK VINA RESULT:      60.5      0.000      0.000
REMARK  8 active torsions:
REMARK  status: ('A' for Active; 'I' for Inactive)
REMARK    1  A    between atoms: C_11  and  C_3 
REMARK    2  A    between atoms: C_10  and  C_4 
REMARK    3  A    between atoms: O_18  and  C_10 
REMARK    4  A    between atoms: N_17  and  C_11 
REMARK    5  A    between atoms: C_12  and  C_15 
REMARK    6  A    between atoms: C_15  and  C_23 
REMARK    7  A    between atoms: C_23  and  N_17 
REMARK    8  A    between atoms: C_24  and  O_18 
ROOT
ATOM      1  C   UNL d   1      58.458  49.403  51.030  0.00  0.00     0.035 A 
ATOM      2  C   UNL d   1      58.334  49.257  50.223  0.00  0.00     0.100 A 
ATOM      3  C   UNL d   1      57.814  49.548  51.528  0.00  0.00     0.060 A 
ATOM      4  C   UNL d   1      59.259  49.370  51.177  0.00  0.00     0.088 A 
ATOM      5  O   UNL d   1      59.048  49.139  49.892  0.00  0.00    -0.307 OA
ATOM      6  C   UNL d   1      59.617  49.205  50.457  0.00  0.00     0.105 A 
ATOM      7  C   UNL d   1      57.050  49.545  51.216  0.00  0.00     0.197 A 
ATOM      8  C   UNL d   1      57.581  49.258  49.937  0.00  0.00     0.026 A 
ATOM      9  C   UNL d   1      56.936  49.403  50.435  0.00  0.00     0.041 A 
ATOM     10  O   UNL d   1      56.392  49.693  51.724  0.00  0.00    -0.286 OA
ATOM     11  C   UNL d   1      60.427  49.123  50.352  0.00  0.00     0.027 C 
ATOM     12  C   UNL d   1      57.457  49.112  49.130  0.00  0.00     0.002 A 
ATOM     13  C   UNL d   1      56.173  49.401  50.122  0.00  0.00     0.003 A 
ATOM     14  C   UNL d   1      56.048  49.257  49.328  0.00  0.00     0.000 A 
ATOM     15  C   UNL d   1      56.692  49.112  48.830  0.00  0.00     0.000 A 
ENDROOT
BRANCH   3  16
ATOM     16  C   UNL d   1      57.937  49.699  52.363  0.00  0.00     0.102 C 
BRANCH  16  17
ATOM     17  N   UNL d   1      57.455  49.322  52.938  0.00  0.00    -0.242 NA
BRANCH  17  18
ATOM     18  C   UNL d   1      57.658  49.334  53.716  0.00  0.00     0.105 C 
BRANCH  18  19
ATOM     19  C   UNL d   1      57.175  49.705  54.273  0.00  0.00     0.091 C 
BRANCH  19  20
ATOM     20  C   UNL d   1      57.129  49.409  55.047  0.00  0.00     0.213 C 
ATOM     21  O   UNL d   1      57.728  49.576  55.591  0.00  0.00    -0.644 OA
ATOM     22  O   UNL d   1      56.484  48.949  55.267  0.00  0.00    -0.644 OA
ENDBRANCH  19  20
ENDBRANCH  18  19
ENDBRANCH  17  18
ENDBRANCH  16  17
ENDBRANCH   3  16
BRANCH   4  23
ATOM     23  C   UNL d   1      59.672  49.477  51.890  0.00  0.00     0.302 C 
ATOM     24  O   UNL d   1      59.252  49.633  52.598  0.00  0.00    -0.259 OA
BRANCH  23  25
ATOM     25  O   UNL d   1      60.485  49.431  51.913  0.00  0.00    -0.271 OA
BRANCH  25  26
ATOM     26  C   UNL d   1      60.844  48.736  52.124  0.00  0.00     0.126 C 
ATOM     27  C   UNL d   1      60.638  48.406  52.837  0.00  0.00     0.029 C 
ENDBRANCH  25  26
ENDBRANCH  23  25
ENDBRANCH   4  23
TORSDOF 8
ENDMDL
