MODEL 1
REMARK VINA RESULT:     105.6      0.000      0.000
REMARK  7 active torsions:
REMARK  status: ('A' for Active; 'I' for Inactive)
REMARK    1  A    between atoms: N_8  and  C_1 
REMARK    2  A    between atoms: C_14  and  C_2 
REMARK    3  A    between atoms: S_3  and  C_16 
REMARK    4  A    between atoms: N_7  and  S_3 
REMARK       I    between atoms: C_12  and  N_8 
REMARK       I    between atoms: C_13  and  N_11 
REMARK    5  A    between atoms: C_22  and  C_12 
REMARK    6  A    between atoms: O_33  and  C_13 
REMARK    7  A    between atoms: C_38  and  O_33 
ROOT
ATOM      1  C   UNL d   1      14.740  18.081  -4.277  0.00  0.00     0.104 A 
ATOM      2  C   UNL d   1      14.717  16.564  -3.651  0.00  0.00     0.056 A 
ATOM      3  C   UNL d   1      14.174  17.537  -4.537  0.00  0.00     0.013 A 
ATOM      4  C   UNL d   1      15.294  17.869  -3.705  0.00  0.00     0.013 A 
ATOM      5  C   UNL d   1      14.162  16.776  -4.224  0.00  0.00     0.005 A 
ATOM      6  C   UNL d   1      15.280  17.103  -3.391  0.00  0.00     0.005 A 
ENDROOT
BRANCH   2   7
ATOM      7  C   UNL d   1      14.708  15.801  -3.333  0.00  0.00     0.258 C 
ATOM      8  N   UNL d   1      14.530  15.686  -2.528  0.00  0.00    -0.316 N 
ATOM      9  H   UNL d   1      14.481  16.333  -2.560  0.00  0.00     0.169 HD
ATOM     10  O   UNL d   1      14.875  15.142  -3.806  0.00  0.00    -0.267 OA
BRANCH   8  11
ATOM     11  C   UNL d   1      14.521  14.923  -2.210  0.00  0.00     0.094 A 
ATOM     12  C   UNL d   1      14.754  14.718  -1.450  0.00  0.00     0.081 A 
ATOM     13  C   UNL d   1      14.658  13.901  -1.355  0.00  0.00     0.008 A 
ATOM     14  C   UNL d   1      14.801  13.400  -0.720  0.00  0.00    -0.004 A 
ATOM     15  C   UNL d   1      14.366  13.599  -2.060  0.00  0.00     0.028 A 
ATOM     16  C   UNL d   1      14.650  12.595  -0.792  0.00  0.00     0.099 A 
ATOM     17  C   UNL d   1      14.896  12.437  -0.014  0.00  0.00     0.029 C 
ATOM     18  C   UNL d   1      14.559  11.779  -0.686  0.00  0.00     0.029 C 
ATOM     19  N   UNL d   1      14.357  12.282  -1.492  0.00  0.00    -0.294 NA
ATOM     20  C   UNL d   1      14.214  12.791  -2.132  0.00  0.00     0.104 A 
ATOM     21  C   UNL d   1      13.967  12.946  -2.911  0.00  0.00     0.029 C 
ATOM     22  C   UNL d   1      14.048  11.976  -2.239  0.00  0.00     0.029 C 
ATOM     23  S   UNL d   1      14.277  14.229  -2.597  0.00  0.00    -0.072 SA
BRANCH  12  24
ATOM     24  C   UNL d   1      15.035  15.231  -0.873  0.00  0.00     0.299 C 
ATOM     25  O   UNL d   1      14.777  15.154  -0.105  0.00  0.00    -0.264 OA
ATOM     26  N   UNL d   1      15.567  15.808  -1.073  0.00  0.00    -0.102 N 
ENDBRANCH  12  24
ENDBRANCH   8  11
ENDBRANCH   2   7
BRANCH   1  27
ATOM     27  S   UNL d   1      14.750  18.853  -4.597  0.00  0.00     0.271 S 
ATOM     28  O   UNL d   1      15.433  18.634  -5.016  0.00  0.00    -0.200 OA
ATOM     29  O   UNL d   1      14.072  19.061  -4.177  0.00  0.00    -0.200 OA
BRANCH  27  30
ATOM     30  N   UNL d   1      14.760  19.609  -4.910  0.00  0.00    -0.226 N 
ATOM     31  C   UNL d   1      15.327  19.826  -5.465  0.00  0.00     0.111 A 
ATOM     32  C   UNL d   1      15.324  20.590  -5.771  0.00  0.00     0.105 A 
ATOM     33  N   UNL d   1      14.757  21.139  -5.526  0.00  0.00    -0.248 N 
ATOM     34  C   UNL d   1      14.192  20.917  -4.970  0.00  0.00     0.105 A 
ATOM     35  C   UNL d   1      14.759  21.896  -5.833  0.00  0.00     0.378 C 
ATOM     36  C   UNL d   1      14.196  20.156  -4.667  0.00  0.00     0.111 A 
ATOM     37  O   UNL d   1      15.326  22.113  -6.388  0.00  0.00    -0.237 OA
BRANCH  35  38
ATOM     38  O   UNL d   1      14.199  22.437  -5.589  0.00  0.00    -0.257 OA
BRANCH  38  39
ATOM     39  C   UNL d   1      14.404  23.018  -5.053  0.00  0.00     0.128 C 
ATOM     40  C   UNL d   1      13.837  23.568  -4.806  0.00  0.00     0.029 C 
ENDBRANCH  38  39
ENDBRANCH  35  38
ENDBRANCH  27  30
ENDBRANCH   1  27
TORSDOF 7
ENDMDL
