MODEL 1
REMARK VINA RESULT:      -2.7      0.000      0.000
REMARK  6 active torsions:
REMARK  status: ('A' for Active; 'I' for Inactive)
REMARK    1  A    between atoms: C_2  and  S_1 
REMARK    2  A    between atoms: N_6  and  S_1 
REMARK    3  A    between atoms: C_14  and  N_6 
REMARK    4  A    between atoms: C_8  and  C_13 
REMARK    5  A    between atoms: C_13  and  C_15 
REMARK    6  A    between atoms: C_15  and  C_14 
ROOT
ATOM      1  S   UNL d   1      33.039  18.927 -22.899  0.00  0.00     0.291 S 
ATOM      2  O   UNL d   1      33.240  18.538 -22.189  0.00  0.00    -0.198 OA
ATOM      3  O   UNL d   1      32.841  19.317 -23.604  0.00  0.00    -0.198 OA
ENDROOT
BRANCH   1   4
ATOM      4  C   UNL d   1      32.842  18.197 -23.248  0.00  0.00     0.135 A 
ATOM      5  S   UNL d   1      33.241  17.488 -23.160  0.00  0.00    -0.073 SA
ATOM      6  C   UNL d   1      32.851  16.910 -23.606  0.00  0.00     0.036 A 
ATOM      7  C   UNL d   1      32.225  17.242 -23.967  0.00  0.00     0.008 A 
ATOM      8  C   UNL d   1      32.200  18.048 -23.757  0.00  0.00     0.020 A 
ENDBRANCH   1   4
BRANCH   1   9
ATOM      9  N   UNL d   1      33.237  19.664 -22.550  0.00  0.00    -0.156 NA
BRANCH   9  10
ATOM     10  C   UNL d   1      32.812  19.959 -21.905  0.00  0.00     0.112 C 
BRANCH  10  11
ATOM     11  C   UNL d   1      32.891  20.736 -21.664  0.00  0.00     0.028 C 
BRANCH  11  12
ATOM     12  C   UNL d   1      32.524  20.992 -20.972  0.00  0.00     0.072 C 
BRANCH  12  13
ATOM     13  C   UNL d   1      32.454  21.795 -20.797  0.00  0.00     0.211 C 
ATOM     14  O   UNL d   1      31.777  22.228 -21.010  0.00  0.00    -0.644 OA
ATOM     15  O   UNL d   1      33.060  22.189 -20.402  0.00  0.00    -0.644 OA
ENDBRANCH  12  13
ENDBRANCH  11  12
ENDBRANCH  10  11
ENDBRANCH   9  10
ENDBRANCH   1   9
TORSDOF 6
ENDMDL
MODEL 2
REMARK VINA RESULT:      -2.7      1.840      4.484
REMARK  6 active torsions:
REMARK  status: ('A' for Active; 'I' for Inactive)
REMARK    1  A    between atoms: C_2  and  S_1 
REMARK    2  A    between atoms: N_6  and  S_1 
REMARK    3  A    between atoms: C_14  and  N_6 
REMARK    4  A    between atoms: C_8  and  C_13 
REMARK    5  A    between atoms: C_13  and  C_15 
REMARK    6  A    between atoms: C_15  and  C_14 
ROOT
ATOM      1  S   UNL d   1      32.467  21.560 -21.134  0.00  0.00     0.291 S 
ATOM      2  O   UNL d   1      31.754  21.435 -20.720  0.00  0.00    -0.198 OA
ATOM      3  O   UNL d   1      33.177  21.680 -21.547  0.00  0.00    -0.198 OA
ENDROOT
BRANCH   1   4
ATOM      4  C   UNL d   1      32.396  22.381 -21.018  0.00  0.00     0.135 A 
ATOM      5  S   UNL d   1      32.530  22.792 -20.323  0.00  0.00    -0.073 SA
ATOM      6  C   UNL d   1      32.394  23.596 -20.461  0.00  0.00     0.036 A 
ATOM      7  C   UNL d   1      32.180  23.693 -21.221  0.00  0.00     0.008 A 
ATOM      8  C   UNL d   1      32.174  22.946 -21.589  0.00  0.00     0.020 A 
ENDBRANCH   1   4
BRANCH   1   9
ATOM      9  N   UNL d   1      32.541  20.732 -21.253  0.00  0.00    -0.156 NA
BRANCH   9  10
ATOM     10  C   UNL d   1      32.855  20.427 -21.954  0.00  0.00     0.112 C 
BRANCH  10  11
ATOM     11  C   UNL d   1      32.871  19.622 -22.098  0.00  0.00     0.028 C 
BRANCH  11  12
ATOM     12  C   UNL d   1      33.123  19.340 -22.829  0.00  0.00     0.072 C 
BRANCH  12  13
ATOM     13  C   UNL d   1      33.047  18.544 -23.030  0.00  0.00     0.211 C 
ATOM     14  O   UNL d   1      33.241  17.941 -22.490  0.00  0.00    -0.644 OA
ATOM     15  O   UNL d   1      32.775  18.325 -23.775  0.00  0.00    -0.644 OA
ENDBRANCH  12  13
ENDBRANCH  11  12
ENDBRANCH  10  11
ENDBRANCH   9  10
ENDBRANCH   1   9
TORSDOF 6
ENDMDL
MODEL 3
REMARK VINA RESULT:      -2.1      3.143      4.734
REMARK  6 active torsions:
REMARK  status: ('A' for Active; 'I' for Inactive)
REMARK    1  A    between atoms: C_2  and  S_1 
REMARK    2  A    between atoms: N_6  and  S_1 
REMARK    3  A    between atoms: C_14  and  N_6 
REMARK    4  A    between atoms: C_8  and  C_13 
REMARK    5  A    between atoms: C_13  and  C_15 
REMARK    6  A    between atoms: C_15  and  C_14 
ROOT
ATOM      1  S   UNL d   1      31.645  17.298 -24.068  0.00  0.00     0.291 S 
ATOM      2  O   UNL d   1      31.847  16.972 -23.327  0.00  0.00    -0.198 OA
ATOM      3  O   UNL d   1      31.442  17.620 -24.805  0.00  0.00    -0.198 OA
ENDROOT
BRANCH   1   4
ATOM      4  C   UNL d   1      32.258  17.857 -23.994  0.00  0.00     0.135 A 
ATOM      5  S   UNL d   1      32.634  18.256 -24.602  0.00  0.00    -0.073 SA
ATOM      6  C   UNL d   1      33.207  18.756 -24.275  0.00  0.00     0.036 A 
ATOM      7  C   UNL d   1      33.195  18.677 -23.483  0.00  0.00     0.008 A 
ATOM      8  C   UNL d   1      32.608  18.120 -23.286  0.00  0.00     0.020 A 
ENDBRANCH   1   4
BRANCH   1   9
ATOM      9  N   UNL d   1      31.027  16.736 -24.145  0.00  0.00    -0.156 NA
BRANCH   9  10
ATOM     10  C   UNL d   1      30.235  16.971 -24.157  0.00  0.00     0.112 C 
BRANCH  10  11
ATOM     11  C   UNL d   1      29.629  16.432 -24.053  0.00  0.00     0.028 C 
BRANCH  11  12
ATOM     12  C   UNL d   1      28.845  16.677 -24.109  0.00  0.00     0.072 C 
BRANCH  12  13
ATOM     13  C   UNL d   1      28.235  16.241 -23.765  0.00  0.00     0.211 C 
ATOM     14  O   UNL d   1      27.722  16.581 -23.205  0.00  0.00    -0.644 OA
ATOM     15  O   UNL d   1      28.119  15.453 -23.970  0.00  0.00    -0.644 OA
ENDBRANCH  12  13
ENDBRANCH  11  12
ENDBRANCH  10  11
ENDBRANCH   9  10
ENDBRANCH   1   9
TORSDOF 6
ENDMDL
MODEL 4
REMARK VINA RESULT:      -2.1      3.088      4.122
REMARK  6 active torsions:
REMARK  status: ('A' for Active; 'I' for Inactive)
REMARK    1  A    between atoms: C_2  and  S_1 
REMARK    2  A    between atoms: N_6  and  S_1 
REMARK    3  A    between atoms: C_14  and  N_6 
REMARK    4  A    between atoms: C_8  and  C_13 
REMARK    5  A    between atoms: C_13  and  C_15 
REMARK    6  A    between atoms: C_15  and  C_14 
ROOT
ATOM      1  S   UNL d   1      30.013  16.819 -24.424  0.00  0.00     0.291 S 
ATOM      2  O   UNL d   1      30.511  16.154 -24.497  0.00  0.00    -0.198 OA
ATOM      3  O   UNL d   1      29.520  17.483 -24.353  0.00  0.00    -0.198 OA
ENDROOT
BRANCH   1   4
ATOM      4  C   UNL d   1      29.364  16.322 -24.266  0.00  0.00     0.135 A 
ATOM      5  S   UNL d   1      28.964  15.852 -24.804  0.00  0.00    -0.073 SA
ATOM      6  C   UNL d   1      28.358  15.453 -24.406  0.00  0.00     0.036 A 
ATOM      7  C   UNL d   1      28.373  15.663 -23.639  0.00  0.00     0.008 A 
ATOM      8  C   UNL d   1      28.994  16.206 -23.529  0.00  0.00     0.020 A 
ENDBRANCH   1   4
BRANCH   1   9
ATOM      9  N   UNL d   1      30.665  17.322 -24.583  0.00  0.00    -0.156 NA
BRANCH   9  10
ATOM     10  C   UNL d   1      31.271  17.423 -24.031  0.00  0.00     0.112 C 
BRANCH  10  11
ATOM     11  C   UNL d   1      31.812  18.033 -24.099  0.00  0.00     0.028 C 
BRANCH  11  12
ATOM     12  C   UNL d   1      32.453  18.074 -23.584  0.00  0.00     0.072 C 
BRANCH  12  13
ATOM     13  C   UNL d   1      32.852  18.785 -23.454  0.00  0.00     0.211 C 
ATOM     14  O   UNL d   1      33.241  19.183 -24.072  0.00  0.00    -0.644 OA
ATOM     15  O   UNL d   1      32.874  19.118 -22.701  0.00  0.00    -0.644 OA
ENDBRANCH  12  13
ENDBRANCH  11  12
ENDBRANCH  10  11
ENDBRANCH   9  10
ENDBRANCH   1   9
TORSDOF 6
ENDMDL
MODEL 5
REMARK VINA RESULT:      -1.8      1.630      4.176
REMARK  6 active torsions:
REMARK  status: ('A' for Active; 'I' for Inactive)
REMARK    1  A    between atoms: C_2  and  S_1 
REMARK    2  A    between atoms: N_6  and  S_1 
REMARK    3  A    between atoms: C_14  and  N_6 
REMARK    4  A    between atoms: C_8  and  C_13 
REMARK    5  A    between atoms: C_13  and  C_15 
REMARK    6  A    between atoms: C_15  and  C_14 
ROOT
ATOM      1  S   UNL d   1      33.171  19.357 -22.922  0.00  0.00     0.291 S 
ATOM      2  O   UNL d   1      33.100  19.086 -22.136  0.00  0.00    -0.198 OA
ATOM      3  O   UNL d   1      33.241  19.623 -23.705  0.00  0.00    -0.198 OA
ENDROOT
BRANCH   1   4
ATOM      4  C   UNL d   1      33.198  20.145 -22.653  0.00  0.00     0.135 A 
ATOM      5  S   UNL d   1      33.214  20.397 -21.874  0.00  0.00    -0.073 SA
ATOM      6  C   UNL d   1      33.240  21.224 -21.865  0.00  0.00     0.036 A 
ATOM      7  C   UNL d   1      33.240  21.489 -22.616  0.00  0.00     0.008 A 
ATOM      8  C   UNL d   1      33.215  20.830 -23.125  0.00  0.00     0.020 A 
ENDBRANCH   1   4
BRANCH   1   9
ATOM      9  N   UNL d   1      33.144  18.565 -23.196  0.00  0.00    -0.156 NA
BRANCH   9  10
ATOM     10  C   UNL d   1      32.428  18.156 -23.253  0.00  0.00     0.112 C 
BRANCH  10  11
ATOM     11  C   UNL d   1      32.375  17.443 -23.649  0.00  0.00     0.028 C 
BRANCH  11  12
ATOM     12  C   UNL d   1      31.757  16.925 -23.482  0.00  0.00     0.072 C 
BRANCH  12  13
ATOM     13  C   UNL d   1      31.557  16.316 -24.002  0.00  0.00     0.211 C 
ATOM     14  O   UNL d   1      32.081  15.688 -24.155  0.00  0.00    -0.644 OA
ATOM     15  O   UNL d   1      30.828  16.317 -24.385  0.00  0.00    -0.644 OA
ENDBRANCH  12  13
ENDBRANCH  11  12
ENDBRANCH  10  11
ENDBRANCH   9  10
ENDBRANCH   1   9
TORSDOF 6
ENDMDL
MODEL 6
REMARK VINA RESULT:      -1.7      3.625      5.976
REMARK  6 active torsions:
REMARK  status: ('A' for Active; 'I' for Inactive)
REMARK    1  A    between atoms: C_2  and  S_1 
REMARK    2  A    between atoms: N_6  and  S_1 
REMARK    3  A    between atoms: C_14  and  N_6 
REMARK    4  A    between atoms: C_8  and  C_13 
REMARK    5  A    between atoms: C_13  and  C_15 
REMARK    6  A    between atoms: C_15  and  C_14 
ROOT
ATOM      1  S   UNL d   1      32.914  22.974 -18.513  0.00  0.00     0.291 S 
ATOM      2  O   UNL d   1      33.240  22.242 -18.280  0.00  0.00    -0.198 OA
ATOM      3  O   UNL d   1      32.591  23.702 -18.747  0.00  0.00    -0.198 OA
ENDROOT
BRANCH   1   4
ATOM      4  C   UNL d   1      32.752  23.160 -17.717  0.00  0.00     0.135 A 
ATOM      5  S   UNL d   1      32.101  23.566 -17.431  0.00  0.00    -0.073 SA
ATOM      6  C   UNL d   1      32.167  23.624 -16.608  0.00  0.00     0.036 A 
ATOM      7  C   UNL d   1      32.840  23.266 -16.379  0.00  0.00     0.008 A 
ATOM      8  C   UNL d   1      33.222  22.968 -17.057  0.00  0.00     0.020 A 
ENDBRANCH   1   4
BRANCH   1   9
ATOM      9  N   UNL d   1      33.076  22.790 -19.315  0.00  0.00    -0.156 NA
BRANCH   9  10
ATOM     10  C   UNL d   1      32.739  22.129 -19.678  0.00  0.00     0.112 C 
BRANCH  10  11
ATOM     11  C   UNL d   1      32.916  21.932 -20.452  0.00  0.00     0.028 C 
BRANCH  11  12
ATOM     12  C   UNL d   1      32.429  21.413 -20.866  0.00  0.00     0.072 C 
BRANCH  12  13
ATOM     13  C   UNL d   1      32.683  21.054 -21.564  0.00  0.00     0.211 C 
ATOM     14  O   UNL d   1      32.626  20.231 -21.673  0.00  0.00    -0.644 OA
ATOM     15  O   UNL d   1      33.001  21.506 -22.174  0.00  0.00    -0.644 OA
ENDBRANCH  12  13
ENDBRANCH  11  12
ENDBRANCH  10  11
ENDBRANCH   9  10
ENDBRANCH   1   9
TORSDOF 6
ENDMDL
MODEL 7
REMARK VINA RESULT:      -1.4      4.022      5.243
REMARK  6 active torsions:
REMARK  status: ('A' for Active; 'I' for Inactive)
REMARK    1  A    between atoms: C_2  and  S_1 
REMARK    2  A    between atoms: N_6  and  S_1 
REMARK    3  A    between atoms: C_14  and  N_6 
REMARK    4  A    between atoms: C_8  and  C_13 
REMARK    5  A    between atoms: C_13  and  C_15 
REMARK    6  A    between atoms: C_15  and  C_14 
ROOT
ATOM      1  S   UNL d   1      32.552  22.882 -20.734  0.00  0.00     0.291 S 
ATOM      2  O   UNL d   1      32.611  23.701 -20.883  0.00  0.00    -0.198 OA
ATOM      3  O   UNL d   1      32.492  22.067 -20.590  0.00  0.00    -0.198 OA
ENDROOT
BRANCH   1   4
ATOM      4  C   UNL d   1      32.722  23.011 -19.929  0.00  0.00     0.135 A 
ATOM      5  S   UNL d   1      32.413  23.599 -19.451  0.00  0.00    -0.073 SA
ATOM      6  C   UNL d   1      32.735  23.519 -18.693  0.00  0.00     0.036 A 
ATOM      7  C   UNL d   1      33.234  22.898 -18.690  0.00  0.00     0.008 A 
ATOM      8  C   UNL d   1      33.240  22.565 -19.454  0.00  0.00     0.020 A 
ENDBRANCH   1   4
BRANCH   1   9
ATOM      9  N   UNL d   1      32.380  22.749 -21.545  0.00  0.00    -0.156 NA
BRANCH   9  10
ATOM     10  C   UNL d   1      32.854  23.071 -22.140  0.00  0.00     0.112 C 
BRANCH  10  11
ATOM     11  C   UNL d   1      32.590  23.122 -22.913  0.00  0.00     0.028 C 
BRANCH  11  12
ATOM     12  C   UNL d   1      33.102  23.376 -23.506  0.00  0.00     0.072 C 
BRANCH  12  13
ATOM     13  C   UNL d   1      33.007  23.128 -24.287  0.00  0.00     0.211 C 
ATOM     14  O   UNL d   1      33.223  22.362 -24.528  0.00  0.00    -0.644 OA
ATOM     15  O   UNL d   1      32.693  23.639 -24.852  0.00  0.00    -0.644 OA
ENDBRANCH  12  13
ENDBRANCH  11  12
ENDBRANCH  10  11
ENDBRANCH   9  10
ENDBRANCH   1   9
TORSDOF 6
ENDMDL
