MODEL 1
REMARK VINA RESULT:      -3.4      0.000      0.000
REMARK  3 active torsions:
REMARK  status: ('A' for Active; 'I' for Inactive)
REMARK       I    between atoms: C_6  and  N_9 
REMARK    1  A    between atoms: C_7  and  C_6 
REMARK    2  A    between atoms: N_9  and  C_17 
REMARK    3  A    between atoms: C_17  and  C_16 
ROOT
ATOM      1  N   UNL d   1      32.850  22.203 -21.523  0.00  0.00    -0.304 N 
ATOM      2  C   UNL d   1      32.628  22.085 -20.741  0.00  0.00     0.064 A 
ATOM      3  C   UNL d   1      32.957  21.468 -21.874  0.00  0.00     0.064 A 
ATOM      4  C   UNL d   1      32.800  20.895 -21.303  0.00  0.00     0.018 A 
ATOM      5  C   UNL d   1      32.598  21.275 -20.608  0.00  0.00     0.019 A 
ATOM      6  C   UNL d   1      33.177  21.249 -22.637  0.00  0.00     0.018 A 
ATOM      7  C   UNL d   1      32.864  20.087 -21.499  0.00  0.00     0.003 A 
ATOM      8  C   UNL d   1      33.084  19.867 -22.263  0.00  0.00     0.019 A 
ATOM      9  C   UNL d   1      33.241  20.451 -22.835  0.00  0.00     0.003 A 
ATOM     10  C   UNL d   1      32.949  22.932 -21.895  0.00  0.00     0.099 C 
ATOM     11  C   UNL d   1      32.465  22.672 -20.186  0.00  0.00     0.019 C 
ENDROOT
BRANCH   8  12
ATOM     12  C   UNL d   1      33.147  19.071 -22.459  0.00  0.00     0.102 C 
BRANCH  12  13
ATOM     13  N   UNL d   1      32.695  18.754 -23.059  0.00  0.00    -0.206 NA
ATOM     14  C   UNL d   1      32.720  17.954 -23.229  0.00  0.00     0.285 C 
ATOM     15  O   UNL d   1      33.211  17.460 -22.789  0.00  0.00    -0.265 OA
BRANCH  14  16
ATOM     16  C   UNL d   1      32.263  17.632 -23.837  0.00  0.00     0.087 A 
ATOM     17  S   UNL d   1      32.514  17.458 -24.603  0.00  0.00    -0.082 SA
ATOM     18  C   UNL d   1      31.874  17.148 -25.013  0.00  0.00     0.036 A 
ATOM     19  C   UNL d   1      31.217  17.125 -24.508  0.00  0.00     0.008 A 
ATOM     20  C   UNL d   1      31.463  17.427 -23.780  0.00  0.00     0.012 A 
ENDBRANCH  14  16
ENDBRANCH  12  13
ENDBRANCH   8  12
TORSDOF 3
ENDMDL
MODEL 2
REMARK VINA RESULT:      -2.8      1.681      4.921
REMARK  3 active torsions:
REMARK  status: ('A' for Active; 'I' for Inactive)
REMARK       I    between atoms: C_6  and  N_9 
REMARK    1  A    between atoms: C_7  and  C_6 
REMARK    2  A    between atoms: N_9  and  C_17 
REMARK    3  A    between atoms: C_17  and  C_16 
ROOT
ATOM      1  N   UNL d   1      31.292  16.434 -24.168  0.00  0.00    -0.304 N 
ATOM      2  C   UNL d   1      30.728  16.775 -24.658  0.00  0.00     0.064 A 
ATOM      3  C   UNL d   1      31.779  17.031 -23.880  0.00  0.00     0.064 A 
ATOM      4  C   UNL d   1      31.511  17.743 -24.197  0.00  0.00     0.018 A 
ATOM      5  C   UNL d   1      30.866  17.585 -24.674  0.00  0.00     0.019 A 
ATOM      6  C   UNL d   1      32.427  17.015 -23.374  0.00  0.00     0.018 A 
ATOM      7  C   UNL d   1      31.900  18.454 -24.003  0.00  0.00     0.003 A 
ATOM      8  C   UNL d   1      32.551  18.440 -23.496  0.00  0.00     0.019 A 
ATOM      9  C   UNL d   1      32.816  17.717 -23.180  0.00  0.00     0.003 A 
ATOM     10  C   UNL d   1      31.361  15.632 -23.991  0.00  0.00     0.099 C 
ATOM     11  C   UNL d   1      30.129  16.379 -25.062  0.00  0.00     0.019 C 
ENDROOT
BRANCH   8  12
ATOM     12  C   UNL d   1      32.937  19.140 -23.303  0.00  0.00     0.102 C 
BRANCH  12  13
ATOM     13  N   UNL d   1      32.840  19.479 -22.567  0.00  0.00    -0.206 NA
ATOM     14  C   UNL d   1      32.988  20.274 -22.446  0.00  0.00     0.285 C 
ATOM     15  O   UNL d   1      33.239  20.742 -23.076  0.00  0.00    -0.265 OA
BRANCH  14  16
ATOM     16  C   UNL d   1      32.889  20.617 -21.702  0.00  0.00     0.087 A 
ATOM     17  S   UNL d   1      32.511  21.331 -21.536  0.00  0.00    -0.082 SA
ATOM     18  C   UNL d   1      32.546  21.451 -20.724  0.00  0.00     0.036 A 
ATOM     19  C   UNL d   1      32.946  20.814 -20.375  0.00  0.00     0.008 A 
ATOM     20  C   UNL d   1      33.157  20.300 -20.985  0.00  0.00     0.012 A 
ENDBRANCH  14  16
ENDBRANCH  12  13
ENDBRANCH   8  12
TORSDOF 3
ENDMDL
MODEL 3
REMARK VINA RESULT:      -0.7      3.237      5.758
REMARK  3 active torsions:
REMARK  status: ('A' for Active; 'I' for Inactive)
REMARK       I    between atoms: C_6  and  N_9 
REMARK    1  A    between atoms: C_7  and  C_6 
REMARK    2  A    between atoms: N_9  and  C_17 
REMARK    3  A    between atoms: C_17  and  C_16 
ROOT
ATOM      1  N   UNL d   1      33.173  20.194 -21.952  0.00  0.00    -0.304 N 
ATOM      2  C   UNL d   1      33.120  20.583 -22.674  0.00  0.00     0.064 A 
ATOM      3  C   UNL d   1      33.170  20.758 -21.354  0.00  0.00     0.064 A 
ATOM      4  C   UNL d   1      33.116  21.498 -21.712  0.00  0.00     0.018 A 
ATOM      5  C   UNL d   1      33.085  21.389 -22.521  0.00  0.00     0.019 A 
ATOM      6  C   UNL d   1      33.211  20.690 -20.535  0.00  0.00     0.018 A 
ATOM      7  C   UNL d   1      33.101  22.185 -21.240  0.00  0.00     0.003 A 
ATOM      8  C   UNL d   1      33.142  22.119 -20.419  0.00  0.00     0.019 A 
ATOM      9  C   UNL d   1      33.197  21.368 -20.064  0.00  0.00     0.003 A 
ATOM     10  C   UNL d   1      33.220  19.378 -21.843  0.00  0.00     0.099 C 
ATOM     11  C   UNL d   1      33.104  20.231 -23.418  0.00  0.00     0.019 C 
ENDROOT
BRANCH   8  12
ATOM     12  C   UNL d   1      33.128  22.795 -19.951  0.00  0.00     0.102 C 
BRANCH  12  13
ATOM     13  N   UNL d   1      33.241  22.745 -19.144  0.00  0.00    -0.206 NA
ATOM     14  C   UNL d   1      32.774  23.171 -18.626  0.00  0.00     0.285 C 
ATOM     15  O   UNL d   1      32.180  23.660 -18.921  0.00  0.00    -0.265 OA
BRANCH  14  16
ATOM     16  C   UNL d   1      32.888  23.120 -17.810  0.00  0.00     0.087 A 
ATOM     17  S   UNL d   1      33.207  23.702 -17.320  0.00  0.00    -0.082 SA
ATOM     18  C   UNL d   1      33.214  23.410 -16.553  0.00  0.00     0.036 A 
ATOM     19  C   UNL d   1      32.899  22.643 -16.555  0.00  0.00     0.008 A 
ATOM     20  C   UNL d   1      32.698  22.468 -17.336  0.00  0.00     0.012 A 
ENDBRANCH  14  16
ENDBRANCH  12  13
ENDBRANCH   8  12
TORSDOF 3
ENDMDL
