MODEL 1
REMARK VINA RESULT:      -8.2      0.000      0.000
REMARK  3 active torsions:
REMARK  status: ('A' for Active; 'I' for Inactive)
REMARK    1  A    between atoms: C_7  and  N_1 
REMARK    2  A    between atoms: C_8  and  C_2 
REMARK    3  A    between atoms: N_4  and  C_9 
ROOT
ATOM      1  N   UNL d   1     -48.957  12.309  23.211  0.00  0.00    -0.211 N 
ATOM      2  C   UNL d   1     -48.146  12.147  23.216  0.00  0.00     0.105 A 
ATOM      3  N   UNL d   1     -49.356  11.625  23.463  0.00  0.00    -0.060 NA
ATOM      4  N   UNL d   1     -48.791  11.043  23.623  0.00  0.00    -0.127 NA
ATOM      5  C   UNL d   1     -48.046  11.370  23.469  0.00  0.00     0.143 A 
ENDROOT
BRANCH   1   6
ATOM      6  C   UNL d   1     -49.308  13.022  22.994  0.00  0.00     0.085 A 
ATOM      7  C   UNL d   1     -49.460  13.596  23.566  0.00  0.00     0.021 A 
ATOM      8  C   UNL d   1     -49.812  14.311  23.354  0.00  0.00     0.025 A 
ATOM      9  C   UNL d   1     -50.013  14.450  22.564  0.00  0.00     0.127 A 
ATOM     10  C   UNL d   1     -49.863  13.878  21.991  0.00  0.00     0.025 A 
ATOM     11  C   UNL d   1     -49.511  13.164  22.205  0.00  0.00     0.021 A 
BRANCH   9  12
ATOM     12  N   UNL d   1     -50.367  15.167  22.352  0.00  0.00    -0.114 N 
ATOM     13  O   UNL d   1     -50.010  15.878  22.573  0.00  0.00    -0.532 OA
ATOM     14  O   UNL d   1     -51.064  15.172  21.927  0.00  0.00    -0.532 OA
ENDBRANCH   9  12
ENDBRANCH   1   6
BRANCH   2  15
ATOM     15  C   UNL d   1     -47.545  12.672  23.005  0.00  0.00     0.019 A 
ATOM     16  C   UNL d   1     -47.179  13.133  23.583  0.00  0.00     0.002 A 
ATOM     17  C   UNL d   1     -46.581  13.656  23.376  0.00  0.00     0.011 A 
ATOM     18  C   UNL d   1     -46.340  13.723  22.582  0.00  0.00     0.058 A 
ATOM     19  C   UNL d   1     -46.710  13.257  22.000  0.00  0.00     0.011 A 
ATOM     20 CL   UNL d   1     -45.743  14.246  22.376  0.00  0.00    -0.082 Cl
ATOM     21  C   UNL d   1     -47.308  12.735  22.210  0.00  0.00     0.002 A 
ENDBRANCH   2  15
TORSDOF 3
ENDMDL
MODEL 2
REMARK VINA RESULT:      -8.2      2.680      3.851
REMARK  3 active torsions:
REMARK  status: ('A' for Active; 'I' for Inactive)
REMARK    1  A    between atoms: C_7  and  N_1 
REMARK    2  A    between atoms: C_8  and  C_2 
REMARK    3  A    between atoms: N_4  and  C_9 
ROOT
ATOM      1  N   UNL d   1     -48.227  14.534  22.450  0.00  0.00    -0.211 N 
ATOM      2  C   UNL d   1     -49.032  14.352  22.508  0.00  0.00     0.105 A 
ATOM      3  N   UNL d   1     -48.160  15.334  22.236  0.00  0.00    -0.060 NA
ATOM      4  N   UNL d   1     -48.923  15.645  22.162  0.00  0.00    -0.127 NA
ATOM      5  C   UNL d   1     -49.457  15.035  22.331  0.00  0.00     0.143 A 
ENDROOT
BRANCH   1   6
ATOM      6  C   UNL d   1     -47.601  14.015  22.581  0.00  0.00     0.085 A 
ATOM      7  C   UNL d   1     -47.250  13.972  23.326  0.00  0.00     0.021 A 
ATOM      8  C   UNL d   1     -46.624  13.454  23.461  0.00  0.00     0.025 A 
ATOM      9  C   UNL d   1     -46.347  12.976  22.845  0.00  0.00     0.127 A 
ATOM     10  C   UNL d   1     -46.695  13.016  22.101  0.00  0.00     0.025 A 
ATOM     11  C   UNL d   1     -47.322  13.535  21.967  0.00  0.00     0.021 A 
BRANCH   9  12
ATOM     12  N   UNL d   1     -45.718  12.456  22.982  0.00  0.00    -0.114 N 
ATOM     13  O   UNL d   1     -45.810  11.838  23.522  0.00  0.00    -0.532 OA
ATOM     14  O   UNL d   1     -45.010  12.554  22.587  0.00  0.00    -0.532 OA
ENDBRANCH   9  12
ENDBRANCH   1   6
BRANCH   2  15
ATOM     15  C   UNL d   1     -49.350  13.618  22.707  0.00  0.00     0.019 A 
ATOM     16  C   UNL d   1     -49.506  13.437  23.497  0.00  0.00     0.002 A 
ATOM     17  C   UNL d   1     -49.823  12.707  23.698  0.00  0.00     0.011 A 
ATOM     18  C   UNL d   1     -49.989  12.145  23.106  0.00  0.00     0.058 A 
ATOM     19  C   UNL d   1     -49.832  12.330  22.310  0.00  0.00     0.011 A 
ATOM     20 CL   UNL d   1     -50.306  11.416  23.308  0.00  0.00    -0.082 Cl
ATOM     21  C   UNL d   1     -49.515  13.061  22.112  0.00  0.00     0.002 A 
ENDBRANCH   2  15
TORSDOF 3
ENDMDL
MODEL 3
REMARK VINA RESULT:      -7.4      1.814      2.431
REMARK  3 active torsions:
REMARK  status: ('A' for Active; 'I' for Inactive)
REMARK    1  A    between atoms: C_7  and  N_1 
REMARK    2  A    between atoms: C_8  and  C_2 
REMARK    3  A    between atoms: N_4  and  C_9 
ROOT
ATOM      1  N   UNL d   1     -47.488  14.259  22.782  0.00  0.00    -0.211 N 
ATOM      2  C   UNL d   1     -47.274  13.462  22.838  0.00  0.00     0.105 A 
ATOM      3  N   UNL d   1     -46.791  14.709  22.735  0.00  0.00    -0.060 NA
ATOM      4  N   UNL d   1     -46.148  14.190  22.763  0.00  0.00    -0.127 NA
ATOM      5  C   UNL d   1     -46.452  13.422  22.826  0.00  0.00     0.143 A 
ENDROOT
BRANCH   1   6
ATOM      6  C   UNL d   1     -48.256  14.556  22.773  0.00  0.00     0.085 A 
ATOM      7  C   UNL d   1     -48.637  14.694  22.054  0.00  0.00     0.021 A 
ATOM      8  C   UNL d   1     -49.405  14.992  22.040  0.00  0.00     0.025 A 
ATOM      9  C   UNL d   1     -49.795  15.152  22.753  0.00  0.00     0.127 A 
ATOM     10  C   UNL d   1     -49.418  15.015  23.471  0.00  0.00     0.025 A 
ATOM     11  C   UNL d   1     -48.649  14.718  23.483  0.00  0.00     0.021 A 
BRANCH   9  12
ATOM     12  N   UNL d   1     -50.566  15.450  22.738  0.00  0.00    -0.114 N 
ATOM     13  O   UNL d   1     -51.061  15.269  22.102  0.00  0.00    -0.532 OA
ATOM     14  O   UNL d   1     -50.836  15.921  23.348  0.00  0.00    -0.532 OA
ENDBRANCH   9  12
ENDBRANCH   1   6
BRANCH   2  15
ATOM     15  C   UNL d   1     -47.792  12.824  22.895  0.00  0.00     0.019 A 
ATOM     16  C   UNL d   1     -48.017  12.541  23.637  0.00  0.00     0.002 A 
ATOM     17  C   UNL d   1     -48.533  11.905  23.697  0.00  0.00     0.011 A 
ATOM     18  C   UNL d   1     -48.832  11.542  23.010  0.00  0.00     0.058 A 
ATOM     19  C   UNL d   1     -48.604  11.829  22.263  0.00  0.00     0.011 A 
ATOM     20 CL   UNL d   1     -49.348  10.908  23.071  0.00  0.00    -0.082 Cl
ATOM     21  C   UNL d   1     -48.088  12.465  22.206  0.00  0.00     0.002 A 
ENDBRANCH   2  15
TORSDOF 3
ENDMDL
MODEL 4
REMARK VINA RESULT:      -6.1      1.711      2.641
REMARK  3 active torsions:
REMARK  status: ('A' for Active; 'I' for Inactive)
REMARK    1  A    between atoms: C_7  and  N_1 
REMARK    2  A    between atoms: C_8  and  C_2 
REMARK    3  A    between atoms: N_4  and  C_9 
ROOT
ATOM      1  N   UNL d   1     -48.696  14.545  22.514  0.00  0.00    -0.211 N 
ATOM      2  C   UNL d   1     -47.876  14.637  22.452  0.00  0.00     0.105 A 
ATOM      3  N   UNL d   1     -49.048  15.278  22.344  0.00  0.00    -0.060 NA
ATOM      4  N   UNL d   1     -48.447  15.820  22.176  0.00  0.00    -0.127 NA
ATOM      5  C   UNL d   1     -47.726  15.419  22.244  0.00  0.00     0.143 A 
ENDROOT
BRANCH   1   6
ATOM      6  C   UNL d   1     -49.094  13.852  22.711  0.00  0.00     0.085 A 
ATOM      7  C   UNL d   1     -49.343  13.337  22.117  0.00  0.00     0.021 A 
ATOM      8  C   UNL d   1     -49.741  12.642  22.309  0.00  0.00     0.025 A 
ATOM      9  C   UNL d   1     -49.891  12.462  23.103  0.00  0.00     0.127 A 
ATOM     10  C   UNL d   1     -49.644  12.973  23.698  0.00  0.00     0.025 A 
ATOM     11  C   UNL d   1     -49.245  13.668  23.504  0.00  0.00     0.021 A 
BRANCH   9  12
ATOM     12  N   UNL d   1     -50.292  11.763  23.295  0.00  0.00    -0.114 N 
ATOM     13  O   UNL d   1     -49.905  11.038  23.219  0.00  0.00    -0.532 OA
ATOM     14  O   UNL d   1     -51.064  11.792  23.557  0.00  0.00    -0.532 OA
ENDBRANCH   9  12
ENDBRANCH   1   6
BRANCH   2  15
ATOM     15  C   UNL d   1     -47.312  14.048  22.575  0.00  0.00     0.019 A 
ATOM     16  C   UNL d   1     -46.964  13.960  23.318  0.00  0.00     0.002 A 
ATOM     17  C   UNL d   1     -46.402  13.375  23.444  0.00  0.00     0.011 A 
ATOM     18  C   UNL d   1     -46.180  12.868  22.823  0.00  0.00     0.058 A 
ATOM     19  C   UNL d   1     -46.531  12.958  22.074  0.00  0.00     0.011 A 
ATOM     20 CL   UNL d   1     -45.618  12.284  22.949  0.00  0.00    -0.082 Cl
ATOM     21  C   UNL d   1     -47.093  13.544  21.951  0.00  0.00     0.002 A 
ENDBRANCH   2  15
TORSDOF 3
ENDMDL
