MODEL 1
REMARK VINA RESULT:      -9.2      0.000      0.000
REMARK  3 active torsions:
REMARK  status: ('A' for Active; 'I' for Inactive)
REMARK    1  A    between atoms: N_3  and  S_1 
REMARK    2  A    between atoms: C_5  and  S_1 
REMARK       I    between atoms: C_2  and  N_4 
REMARK       I    between atoms: N_6  and  C_2 
REMARK    3  A    between atoms: C_13  and  N_6 
ROOT
ATOM      1  C   UNL d   1      48.711  35.006  51.918  0.00  0.00     0.339 C 
ATOM      2  N   UNL d   1      50.911  34.213  52.766  0.00  0.00    -0.226 N 
ATOM      3  N   UNL d   1      49.440  34.743  52.199  0.00  0.00    -0.254 N 
ATOM      4  N   UNL d   1      48.194  35.413  52.415  0.00  0.00    -0.257 N 
ATOM      5  C   UNL d   1      50.396  34.623  53.274  0.00  0.00     0.111 A 
ATOM      6  C   UNL d   1      50.691  34.072  51.983  0.00  0.00     0.111 A 
ATOM      7  O   UNL d   1      48.504  34.855  51.128  0.00  0.00    -0.245 OA
ATOM      8  C   UNL d   1      49.663  34.887  52.991  0.00  0.00     0.104 A 
ATOM      9  C   UNL d   1      49.961  34.334  51.702  0.00  0.00     0.104 A 
ATOM     10  C   UNL d   1      48.403  35.558  53.195  0.00  0.00     0.104 C 
ENDROOT
BRANCH   2  11
ATOM     11  S   UNL d   1      51.637  33.952  53.047  0.00  0.00     0.271 S 
ATOM     12  O   UNL d   1      51.245  33.413  53.533  0.00  0.00    -0.200 OA
ATOM     13  O   UNL d   1      52.013  34.497  52.554  0.00  0.00    -0.200 OA
BRANCH  11  14
ATOM     14  C   UNL d   1      52.366  33.690  53.328  0.00  0.00     0.104 A 
ATOM     15  C   UNL d   1      52.607  32.922  53.175  0.00  0.00     0.013 A 
ATOM     16  C   UNL d   1      53.325  32.663  53.452  0.00  0.00     0.001 A 
ATOM     17  C   UNL d   1      53.572  31.892  53.301  0.00  0.00     0.000 C 
ATOM     18  C   UNL d   1      53.806  33.160  53.879  0.00  0.00     0.000 A 
ATOM     19  C   UNL d   1      53.558  33.930  54.029  0.00  0.00     0.001 A 
ATOM     20  C   UNL d   1      54.535  32.897  54.160  0.00  0.00     0.000 C 
ATOM     21  C   UNL d   1      52.840  34.189  53.752  0.00  0.00     0.013 A 
ENDBRANCH  11  14
ENDBRANCH   2  11
BRANCH   4  22
ATOM     22  C   UNL d   1      47.459  35.673  52.120  0.00  0.00     0.068 A 
ATOM     23  C   UNL d   1      46.989  35.174  51.658  0.00  0.00     0.018 A 
ATOM     24  C   UNL d   1      46.264  35.446  51.373  0.00  0.00     0.002 A 
ATOM     25  C   UNL d   1      46.009  36.210  51.547  0.00  0.00     0.000 A 
ATOM     26  C   UNL d   1      46.488  36.709  52.013  0.00  0.00     0.002 A 
ATOM     27  C   UNL d   1      45.283  36.479  51.260  0.00  0.00     0.000 C 
ATOM     28  C   UNL d   1      47.212  36.433  52.296  0.00  0.00     0.018 A 
ENDBRANCH   4  22
TORSDOF 3
ENDMDL
MODEL 2
REMARK VINA RESULT:      -8.1      0.971      5.984
REMARK  3 active torsions:
REMARK  status: ('A' for Active; 'I' for Inactive)
REMARK    1  A    between atoms: N_3  and  S_1 
REMARK    2  A    between atoms: C_5  and  S_1 
REMARK       I    between atoms: C_2  and  N_4 
REMARK       I    between atoms: N_6  and  C_2 
REMARK    3  A    between atoms: C_13  and  N_6 
ROOT
ATOM      1  C   UNL d   1      51.393  33.902  52.561  0.00  0.00     0.339 C 
ATOM      2  N   UNL d   1      49.155  34.963  52.329  0.00  0.00    -0.226 N 
ATOM      3  N   UNL d   1      50.651  34.254  52.484  0.00  0.00    -0.254 N 
ATOM      4  N   UNL d   1      51.745  33.828  53.304  0.00  0.00    -0.257 N 
ATOM      5  C   UNL d   1      49.503  34.893  53.080  0.00  0.00     0.111 A 
ATOM      6  C   UNL d   1      49.554  34.681  51.663  0.00  0.00     0.111 A 
ATOM      7  O   UNL d   1      51.781  33.623  51.882  0.00  0.00    -0.245 OA
ATOM      8  C   UNL d   1      50.249  34.539  53.158  0.00  0.00     0.104 A 
ATOM      9  C   UNL d   1      50.296  34.329  51.740  0.00  0.00     0.104 A 
ATOM     10  C   UNL d   1      51.357  34.106  53.971  0.00  0.00     0.104 C 
ENDROOT
BRANCH   2  11
ATOM     11  S   UNL d   1      48.417  35.314  52.252  0.00  0.00     0.271 S 
ATOM     12  O   UNL d   1      48.379  35.042  51.474  0.00  0.00    -0.200 OA
ATOM     13  O   UNL d   1      48.471  35.578  53.032  0.00  0.00    -0.200 OA
BRANCH  11  14
ATOM     14  C   UNL d   1      47.675  35.665  52.175  0.00  0.00     0.104 A 
ATOM     15  C   UNL d   1      47.162  35.404  51.593  0.00  0.00     0.013 A 
ATOM     16  C   UNL d   1      46.431  35.750  51.517  0.00  0.00     0.001 A 
ATOM     17  C   UNL d   1      45.910  35.492  50.934  0.00  0.00     0.000 C 
ATOM     18  C   UNL d   1      46.207  36.354  52.014  0.00  0.00     0.000 A 
ATOM     19  C   UNL d   1      46.728  36.612  52.596  0.00  0.00     0.001 A 
ATOM     20  C   UNL d   1      45.465  36.706  51.936  0.00  0.00     0.000 C 
ATOM     21  C   UNL d   1      47.458  36.265  52.672  0.00  0.00     0.013 A 
ENDBRANCH  11  14
ENDBRANCH   2  11
BRANCH   4  22
ATOM     22  C   UNL d   1      52.495  33.471  53.370  0.00  0.00     0.068 A 
ATOM     23  C   UNL d   1      52.587  32.658  53.251  0.00  0.00     0.018 A 
ATOM     24  C   UNL d   1      53.336  32.318  53.320  0.00  0.00     0.002 A 
ATOM     25  C   UNL d   1      53.989  32.785  53.506  0.00  0.00     0.000 A 
ATOM     26  C   UNL d   1      53.890  33.604  53.625  0.00  0.00     0.002 A 
ATOM     27  C   UNL d   1      54.736  32.442  53.574  0.00  0.00     0.000 C 
ATOM     28  C   UNL d   1      53.139  33.940  53.555  0.00  0.00     0.018 A 
ENDBRANCH   4  22
TORSDOF 3
ENDMDL
MODEL 3
REMARK VINA RESULT:      -6.3     10.502     11.324
REMARK  3 active torsions:
REMARK  status: ('A' for Active; 'I' for Inactive)
REMARK    1  A    between atoms: N_3  and  S_1 
REMARK    2  A    between atoms: C_5  and  S_1 
REMARK       I    between atoms: C_2  and  N_4 
REMARK       I    between atoms: N_6  and  C_2 
REMARK    3  A    between atoms: C_13  and  N_6 
ROOT
ATOM      1  C   UNL d   1      44.842  26.845  57.075  0.00  0.00     0.339 C 
ATOM      2  N   UNL d   1      44.753  28.558  58.878  0.00  0.00    -0.226 N 
ATOM      3  N   UNL d   1      44.812  27.413  57.673  0.00  0.00    -0.254 N 
ATOM      4  N   UNL d   1      44.607  26.069  57.225  0.00  0.00    -0.257 N 
ATOM      5  C   UNL d   1      44.515  27.778  59.037  0.00  0.00     0.111 A 
ATOM      6  C   UNL d   1      45.018  28.761  58.122  0.00  0.00     0.111 A 
ATOM      7  O   UNL d   1      45.111  27.066  56.321  0.00  0.00    -0.245 OA
ATOM      8  C   UNL d   1      44.545  27.207  58.436  0.00  0.00     0.104 A 
ATOM      9  C   UNL d   1      45.047  28.193  57.525  0.00  0.00     0.104 A 
ATOM     10  C   UNL d   1      44.343  25.857  57.972  0.00  0.00     0.104 C 
ENDROOT
BRANCH   2  11
ATOM     11  S   UNL d   1      44.724  29.123  59.473  0.00  0.00     0.271 S 
ATOM     12  O   UNL d   1      44.314  28.587  59.949  0.00  0.00    -0.200 OA
ATOM     13  O   UNL d   1      45.133  29.646  58.984  0.00  0.00    -0.200 OA
BRANCH  11  14
ATOM     14  C   UNL d   1      44.694  29.690  60.070  0.00  0.00     0.104 A 
ATOM     15  C   UNL d   1      44.714  29.453  60.854  0.00  0.00     0.013 A 
ATOM     16  C   UNL d   1      44.685  30.012  61.443  0.00  0.00     0.001 A 
ATOM     17  C   UNL d   1      44.704  29.781  62.233  0.00  0.00     0.000 C 
ATOM     18  C   UNL d   1      44.636  30.803  61.260  0.00  0.00     0.000 A 
ATOM     19  C   UNL d   1      44.617  31.033  60.470  0.00  0.00     0.001 A 
ATOM     20  C   UNL d   1      44.607  31.370  61.857  0.00  0.00     0.000 C 
ATOM     21  C   UNL d   1      44.646  30.474  59.881  0.00  0.00     0.013 A 
ENDBRANCH  11  14
ENDBRANCH   2  11
BRANCH   4  22
ATOM     22  C   UNL d   1      44.641  25.504  56.614  0.00  0.00     0.068 A 
ATOM     23  C   UNL d   1      44.326  25.670  55.868  0.00  0.00     0.018 A 
ATOM     24  C   UNL d   1      44.367  25.100  55.272  0.00  0.00     0.002 A 
ATOM     25  C   UNL d   1      44.720  24.370  55.418  0.00  0.00     0.000 A 
ATOM     26  C   UNL d   1      45.035  24.208  56.173  0.00  0.00     0.002 A 
ATOM     27  C   UNL d   1      44.759  23.803  54.820  0.00  0.00     0.000 C 
ATOM     28  C   UNL d   1      44.992  24.780  56.766  0.00  0.00     0.018 A 
ENDBRANCH   4  22
TORSDOF 3
ENDMDL
MODEL 4
REMARK VINA RESULT:      -6.2     10.579     11.228
REMARK  3 active torsions:
REMARK  status: ('A' for Active; 'I' for Inactive)
REMARK    1  A    between atoms: N_3  and  S_1 
REMARK    2  A    between atoms: C_5  and  S_1 
REMARK       I    between atoms: C_2  and  N_4 
REMARK       I    between atoms: N_6  and  C_2 
REMARK    3  A    between atoms: C_13  and  N_6 
ROOT
ATOM      1  C   UNL d   1      44.814  27.923  58.738  0.00  0.00     0.339 C 
ATOM      2  N   UNL d   1      44.749  26.180  56.963  0.00  0.00    -0.226 N 
ATOM      3  N   UNL d   1      44.792  27.345  58.150  0.00  0.00    -0.254 N 
ATOM      4  N   UNL d   1      44.675  28.714  58.551  0.00  0.00    -0.257 N 
ATOM      5  C   UNL d   1      44.608  26.975  56.767  0.00  0.00     0.111 A 
ATOM      6  C   UNL d   1      44.910  25.972  57.746  0.00  0.00     0.111 A 
ATOM      7  O   UNL d   1      44.976  27.697  59.520  0.00  0.00    -0.245 OA
ATOM      8  C   UNL d   1      44.630  27.556  57.358  0.00  0.00     0.104 A 
ATOM      9  C   UNL d   1      44.931  26.550  58.335  0.00  0.00     0.104 A 
ATOM     10  C   UNL d   1      44.515  28.931  57.776  0.00  0.00     0.104 C 
ENDROOT
BRANCH   2  11
ATOM     11  S   UNL d   1      44.728  25.605  56.378  0.00  0.00     0.271 S 
ATOM     12  O   UNL d   1      44.498  25.050  56.943  0.00  0.00    -0.200 OA
ATOM     13  O   UNL d   1      44.958  26.173  55.825  0.00  0.00    -0.200 OA
BRANCH  11  14
ATOM     14  C   UNL d   1      44.706  25.028  55.790  0.00  0.00     0.104 A 
ATOM     15  C   UNL d   1      45.057  24.300  55.924  0.00  0.00     0.013 A 
ATOM     16  C   UNL d   1      45.036  23.732  55.345  0.00  0.00     0.001 A 
ATOM     17  C   UNL d   1      45.388  22.998  55.474  0.00  0.00     0.000 C 
ATOM     18  C   UNL d   1      44.670  23.879  54.634  0.00  0.00     0.000 A 
ATOM     19  C   UNL d   1      44.319  24.613  54.506  0.00  0.00     0.001 A 
ATOM     20  C   UNL d   1      44.649  23.302  54.046  0.00  0.00     0.000 C 
ATOM     21  C   UNL d   1      44.340  25.181  55.085  0.00  0.00     0.013 A 
ENDBRANCH  11  14
ENDBRANCH   2  11
BRANCH   4  22
ATOM     22  C   UNL d   1      44.699  29.289  59.153  0.00  0.00     0.068 A 
ATOM     23  C   UNL d   1      45.104  30.002  59.041  0.00  0.00     0.018 A 
ATOM     24  C   UNL d   1      45.119  30.561  59.647  0.00  0.00     0.002 A 
ATOM     25  C   UNL d   1      44.734  30.414  60.360  0.00  0.00     0.000 A 
ATOM     26  C   UNL d   1      44.328  29.693  60.468  0.00  0.00     0.002 A 
ATOM     27  C   UNL d   1      44.751  30.976  60.964  0.00  0.00     0.000 C 
ATOM     28  C   UNL d   1      44.315  29.136  59.860  0.00  0.00     0.018 A 
ENDBRANCH   4  22
TORSDOF 3
ENDMDL
