MODEL 1
REMARK VINA RESULT:      -2.6      0.000      0.000
REMARK  6 active torsions:
REMARK  status: ('A' for Active; 'I' for Inactive)
REMARK    1  A    between atoms: C_2  and  S_1 
REMARK    2  A    between atoms: N_8  and  S_1 
REMARK    3  A    between atoms: C_13  and  N_8 
REMARK    4  A    between atoms: N_9  and  C_14 
REMARK    5  A    between atoms: O_15  and  C_10 
REMARK    6  A    between atoms: C_14  and  C_13 
ROOT
ATOM      1  C   UNL d   1      31.904  17.745 -23.960  0.00  0.00     0.105 A 
ATOM      2  C   UNL d   1      32.121  17.054 -24.337  0.00  0.00     0.014 A 
ATOM      3  C   UNL d   1      31.551  16.580 -24.699  0.00  0.00     0.023 A 
ATOM      4  C   UNL d   1      31.107  17.972 -23.940  0.00  0.00     0.015 A 
ATOM      5  C   UNL d   1      30.764  16.798 -24.683  0.00  0.00     0.094 A 
ATOM      6  C   UNL d   1      30.537  17.498 -24.302  0.00  0.00     0.025 A 
ATOM      7  C   UNL d   1      32.915  16.830 -24.355  0.00  0.00     0.001 A 
ATOM      8  C   UNL d   1      31.775  15.884 -25.079  0.00  0.00     0.002 A 
ATOM      9  C   UNL d   1      33.139  16.133 -24.735  0.00  0.00     0.000 A 
ATOM     10  C   UNL d   1      32.569  15.659 -25.097  0.00  0.00     0.000 A 
ENDROOT
BRANCH   1  11
ATOM     11  S   UNL d   1      32.475  18.218 -23.597  0.00  0.00     0.285 S 
ATOM     12  O   UNL d   1      32.424  17.753 -22.909  0.00  0.00    -0.198 OA
ATOM     13  O   UNL d   1      32.524  18.674 -24.271  0.00  0.00    -0.198 OA
BRANCH  11  14
ATOM     14  N   UNL d   1      33.045  18.692 -23.235  0.00  0.00    -0.155 NA
BRANCH  14  15
ATOM     15  C   UNL d   1      32.842  19.422 -22.930  0.00  0.00     0.131 C 
BRANCH  15  16
ATOM     16  C   UNL d   1      33.228  19.717 -22.262  0.00  0.00     0.102 C 
BRANCH  16  17
ATOM     17  N   UNL d   1      33.030  20.460 -21.967  0.00  0.00    -0.298 N 
ATOM     18  C   UNL d   1      32.620  20.526 -21.253  0.00  0.00     0.107 A 
ATOM     19  C   UNL d   1      32.420  21.272 -20.954  0.00  0.00     0.142 A 
ATOM     20  O   UNL d   1      32.631  21.951 -21.372  0.00  0.00    -0.300 OA
ATOM     21  C   UNL d   1      33.043  21.884 -22.089  0.00  0.00     0.142 A 
ATOM     22  C   UNL d   1      33.241  21.140 -22.384  0.00  0.00     0.107 A 
ENDBRANCH  16  17
ENDBRANCH  15  16
ENDBRANCH  14  15
ENDBRANCH  11  14
ENDBRANCH   1  11
BRANCH   5  23
ATOM     23  O   UNL d   1      30.188  16.329 -25.044  0.00  0.00    -0.328 OA
ATOM     24  C   UNL d   1      29.443  16.247 -24.705  0.00  0.00     0.181 C 
ENDBRANCH   5  23
TORSDOF 6
ENDMDL
MODEL 2
REMARK VINA RESULT:      -1.5      1.531      5.731
REMARK  6 active torsions:
REMARK  status: ('A' for Active; 'I' for Inactive)
REMARK    1  A    between atoms: C_2  and  S_1 
REMARK    2  A    between atoms: N_8  and  S_1 
REMARK    3  A    between atoms: C_13  and  N_8 
REMARK    4  A    between atoms: N_9  and  C_14 
REMARK    5  A    between atoms: O_15  and  C_10 
REMARK    6  A    between atoms: C_14  and  C_13 
ROOT
ATOM      1  C   UNL d   1      32.636  21.307 -21.406  0.00  0.00     0.105 A 
ATOM      2  C   UNL d   1      32.443  22.100 -21.439  0.00  0.00     0.014 A 
ATOM      3  C   UNL d   1      32.504  22.571 -20.765  0.00  0.00     0.023 A 
ATOM      4  C   UNL d   1      32.893  20.974 -20.692  0.00  0.00     0.015 A 
ATOM      5  C   UNL d   1      32.757  22.250 -20.059  0.00  0.00     0.094 A 
ATOM      6  C   UNL d   1      32.954  21.446 -20.018  0.00  0.00     0.025 A 
ATOM      7  C   UNL d   1      32.187  22.428 -22.151  0.00  0.00     0.001 A 
ATOM      8  C   UNL d   1      32.308  23.371 -20.803  0.00  0.00     0.002 A 
ATOM      9  C   UNL d   1      31.991  23.229 -22.189  0.00  0.00     0.000 A 
ATOM     10  C   UNL d   1      32.052  23.701 -21.515  0.00  0.00     0.000 A 
ENDROOT
BRANCH   1  11
ATOM     11  S   UNL d   1      32.575  20.835 -22.080  0.00  0.00     0.285 S 
ATOM     12  O   UNL d   1      33.239  21.215 -22.406  0.00  0.00    -0.198 OA
ATOM     13  O   UNL d   1      31.924  20.462 -21.760  0.00  0.00    -0.198 OA
BRANCH  11  14
ATOM     14  N   UNL d   1      32.514  20.363 -22.754  0.00  0.00    -0.155 NA
BRANCH  14  15
ATOM     15  C   UNL d   1      32.755  19.583 -22.735  0.00  0.00     0.131 C 
BRANCH  15  16
ATOM     16  C   UNL d   1      32.848  19.157 -23.436  0.00  0.00     0.102 C 
BRANCH  16  17
ATOM     17  N   UNL d   1      32.670  18.353 -23.456  0.00  0.00    -0.298 N 
ATOM     18  C   UNL d   1      33.230  17.799 -23.209  0.00  0.00     0.107 A 
ATOM     19  C   UNL d   1      33.054  16.990 -23.229  0.00  0.00     0.142 A 
ATOM     20  O   UNL d   1      32.315  16.737 -23.496  0.00  0.00    -0.300 OA
ATOM     21  C   UNL d   1      31.753  17.295 -23.744  0.00  0.00     0.142 A 
ATOM     22  C   UNL d   1      31.932  18.100 -23.723  0.00  0.00     0.107 A 
ENDBRANCH  16  17
ENDBRANCH  15  16
ENDBRANCH  14  15
ENDBRANCH  11  14
ENDBRANCH   1  11
BRANCH   5  23
ATOM     23  O   UNL d   1      32.820  22.717 -19.380  0.00  0.00    -0.328 OA
ATOM     24  C   UNL d   1      33.161  22.415 -18.695  0.00  0.00     0.181 C 
ENDBRANCH   5  23
TORSDOF 6
ENDMDL
MODEL 3
REMARK VINA RESULT:      -0.9      1.363      5.288
REMARK  6 active torsions:
REMARK  status: ('A' for Active; 'I' for Inactive)
REMARK    1  A    between atoms: C_2  and  S_1 
REMARK    2  A    between atoms: N_8  and  S_1 
REMARK    3  A    between atoms: C_13  and  N_8 
REMARK    4  A    between atoms: N_9  and  C_14 
REMARK    5  A    between atoms: O_15  and  C_10 
REMARK    6  A    between atoms: C_14  and  C_13 
ROOT
ATOM      1  C   UNL d   1      32.836  20.856 -21.884  0.00  0.00     0.105 A 
ATOM      2  C   UNL d   1      32.902  21.609 -22.194  0.00  0.00     0.014 A 
ATOM      3  C   UNL d   1      32.699  22.265 -21.738  0.00  0.00     0.023 A 
ATOM      4  C   UNL d   1      32.564  20.751 -21.109  0.00  0.00     0.015 A 
ATOM      5  C   UNL d   1      32.431  22.169 -20.973  0.00  0.00     0.094 A 
ATOM      6  C   UNL d   1      32.362  21.408 -20.652  0.00  0.00     0.025 A 
ATOM      7  C   UNL d   1      33.172  21.711 -22.966  0.00  0.00     0.001 A 
ATOM      8  C   UNL d   1      32.767  23.024 -22.054  0.00  0.00     0.002 A 
ATOM      9  C   UNL d   1      33.240  22.469 -23.283  0.00  0.00     0.000 A 
ATOM     10  C   UNL d   1      33.038  23.126 -22.827  0.00  0.00     0.000 A 
ENDROOT
BRANCH   1  11
ATOM     11  S   UNL d   1      33.038  20.199 -22.341  0.00  0.00     0.285 S 
ATOM     12  O   UNL d   1      33.193  19.765 -21.648  0.00  0.00    -0.198 OA
ATOM     13  O   UNL d   1      32.887  20.624 -23.020  0.00  0.00    -0.198 OA
BRANCH  11  14
ATOM     14  N   UNL d   1      33.241  19.542 -22.797  0.00  0.00    -0.155 NA
BRANCH  14  15
ATOM     15  C   UNL d   1      32.693  18.952 -22.937  0.00  0.00     0.131 C 
BRANCH  15  16
ATOM     16  C   UNL d   1      32.896  18.295 -23.393  0.00  0.00     0.102 C 
BRANCH  16  17
ATOM     17  N   UNL d   1      32.320  17.740 -23.594  0.00  0.00    -0.298 N 
ATOM     18  C   UNL d   1      32.282  17.021 -23.192  0.00  0.00     0.107 A 
ATOM     19  C   UNL d   1      31.704  16.461 -23.392  0.00  0.00     0.142 A 
ATOM     20  O   UNL d   1      31.167  16.624 -23.996  0.00  0.00    -0.300 OA
ATOM     21  C   UNL d   1      31.206  17.347 -24.400  0.00  0.00     0.142 A 
ATOM     22  C   UNL d   1      31.783  17.903 -24.198  0.00  0.00     0.107 A 
ENDBRANCH  16  17
ENDBRANCH  15  16
ENDBRANCH  14  15
ENDBRANCH  11  14
ENDBRANCH   1  11
BRANCH   5  23
ATOM     23  O   UNL d   1      32.227  22.822 -20.511  0.00  0.00    -0.328 OA
ATOM     24  C   UNL d   1      32.124  22.744 -19.698  0.00  0.00     0.181 C 
ENDBRANCH   5  23
TORSDOF 6
ENDMDL
MODEL 4
REMARK VINA RESULT:      -0.4      1.398      1.687
REMARK  6 active torsions:
REMARK  status: ('A' for Active; 'I' for Inactive)
REMARK    1  A    between atoms: C_2  and  S_1 
REMARK    2  A    between atoms: N_8  and  S_1 
REMARK    3  A    between atoms: C_13  and  N_8 
REMARK    4  A    between atoms: N_9  and  C_14 
REMARK    5  A    between atoms: O_15  and  C_10 
REMARK    6  A    between atoms: C_14  and  C_13 
ROOT
ATOM      1  C   UNL d   1      32.233  18.336 -23.815  0.00  0.00     0.105 A 
ATOM      2  C   UNL d   1      32.399  17.619 -23.460  0.00  0.00     0.014 A 
ATOM      3  C   UNL d   1      31.899  16.973 -23.574  0.00  0.00     0.023 A 
ATOM      4  C   UNL d   1      31.560  18.414 -24.292  0.00  0.00     0.015 A 
ATOM      5  C   UNL d   1      31.235  17.043 -24.043  0.00  0.00     0.094 A 
ATOM      6  C   UNL d   1      31.060  17.767 -24.406  0.00  0.00     0.025 A 
ATOM      7  C   UNL d   1      33.069  17.544 -22.985  0.00  0.00     0.001 A 
ATOM      8  C   UNL d   1      32.070  16.251 -23.213  0.00  0.00     0.002 A 
ATOM      9  C   UNL d   1      33.241  16.822 -22.624  0.00  0.00     0.000 A 
ATOM     10  C   UNL d   1      32.741  16.175 -22.738  0.00  0.00     0.000 A 
ENDROOT
BRANCH   1  11
ATOM     11  S   UNL d   1      32.733  18.982 -23.701  0.00  0.00     0.285 S 
ATOM     12  O   UNL d   1      32.348  19.153 -22.983  0.00  0.00    -0.198 OA
ATOM     13  O   UNL d   1      33.109  18.815 -24.404  0.00  0.00    -0.198 OA
BRANCH  11  14
ATOM     14  N   UNL d   1      33.232  19.629 -23.587  0.00  0.00    -0.155 NA
BRANCH  14  15
ATOM     15  C   UNL d   1      32.953  20.390 -23.691  0.00  0.00     0.131 C 
BRANCH  15  16
ATOM     16  C   UNL d   1      33.154  20.984 -23.155  0.00  0.00     0.102 C 
BRANCH  16  17
ATOM     17  N   UNL d   1      33.130  21.774 -23.389  0.00  0.00    -0.298 N 
ATOM     18  C   UNL d   1      33.030  22.369 -22.826  0.00  0.00     0.107 A 
ATOM     19  C   UNL d   1      33.006  23.164 -23.059  0.00  0.00     0.142 A 
ATOM     20  O   UNL d   1      33.083  23.361 -23.856  0.00  0.00    -0.300 OA
ATOM     21  C   UNL d   1      33.184  22.762 -24.421  0.00  0.00     0.142 A 
ATOM     22  C   UNL d   1      33.207  21.971 -24.187  0.00  0.00     0.107 A 
ENDBRANCH  16  17
ENDBRANCH  15  16
ENDBRANCH  14  15
ENDBRANCH  11  14
ENDBRANCH   1  11
BRANCH   5  23
ATOM     23  O   UNL d   1      30.730  16.400 -24.161  0.00  0.00    -0.328 OA
ATOM     24  C   UNL d   1      30.383  16.270 -24.895  0.00  0.00     0.181 C 
ENDBRANCH   5  23
TORSDOF 6
ENDMDL
