MODEL 1
REMARK VINA RESULT:      21.2      0.000      0.000
REMARK  6 active torsions:
REMARK  status: ('A' for Active; 'I' for Inactive)
REMARK    1  A    between atoms: C_10  and  N_2 
REMARK    2  A    between atoms: C_11  and  N_5 
REMARK    3  A    between atoms: C_21  and  C_10 
REMARK    4  A    between atoms: C_12  and  C_11 
REMARK       I    between atoms: N_16  and  C_12 
REMARK    5  A    between atoms: C_15  and  C_17 
REMARK    6  A    between atoms: C_17  and  N_16 
ROOT
ATOM      1  C   UNL d   1     -43.562-122.708 -50.117  0.00  0.00     0.102 A 
ATOM      2  N   UNL d   1     -42.409-123.321 -49.559  0.00  0.00    -0.225 N 
ATOM      3  C   UNL d   1     -41.933-122.955 -50.125  0.00  0.00     0.342 A 
ATOM      4  C   UNL d   1     -43.081-122.338 -50.689  0.00  0.00     0.080 A 
ATOM      5  N   UNL d   1     -42.274-122.463 -50.690  0.00  0.00    -0.253 N 
ATOM      6  C   UNL d   1     -43.230-123.199 -49.552  0.00  0.00     0.276 A 
ATOM      7  S   UNL d   1     -44.348-122.473 -50.263  0.00  0.00    -0.081 SA
ATOM      8  C   UNL d   1     -43.574-121.882 -51.178  0.00  0.00     0.023 A 
ATOM      9  C   UNL d   1     -44.356-121.966 -50.913  0.00  0.00     0.031 A 
ATOM     10  O   UNL d   1     -41.123-123.081 -50.125  0.00  0.00    -0.245 OA
ATOM     11  O   UNL d   1     -43.693-123.565 -48.989  0.00  0.00    -0.266 OA
ATOM     12  C   UNL d   1     -43.406-121.404 -51.825  0.00  0.00     0.002 A 
ATOM     13  C   UNL d   1     -44.963-121.573 -51.296  0.00  0.00     0.006 A 
ATOM     14  C   UNL d   1     -44.017-121.007 -52.214  0.00  0.00     0.000 A 
ATOM     15  C   UNL d   1     -44.798-121.091 -51.949  0.00  0.00     0.001 A 
ENDROOT
BRANCH   5  16
ATOM     16  C   UNL d   1     -41.800-122.096 -51.256  0.00  0.00     0.147 C 
BRANCH  16  17
ATOM     17  C   UNL d   1     -41.510-122.533 -51.899  0.00  0.00     0.297 C 
ATOM     18  N   UNL d   1     -41.427-122.172 -52.629  0.00  0.00    -0.205 NA
ATOM     19  O   UNL d   1     -41.308-123.323 -51.801  0.00  0.00    -0.264 OA
BRANCH  18  20
ATOM     20  C   UNL d   1     -41.136-122.613 -53.271  0.00  0.00     0.103 C 
BRANCH  20  21
ATOM     21  C   UNL d   1     -41.448-122.478 -54.033  0.00  0.00     0.030 A 
ATOM     22  C   UNL d   1     -41.870-123.071 -54.422  0.00  0.00     0.059 A 
ATOM     23 CL   UNL d   1     -41.986-123.806 -54.056  0.00  0.00    -0.082 Cl
ATOM     24  C   UNL d   1     -42.172-122.925 -55.176  0.00  0.00     0.011 A 
ATOM     25  C   UNL d   1     -42.055-122.192 -55.539  0.00  0.00     0.001 A 
ATOM     26  C   UNL d   1     -41.632-121.605 -55.143  0.00  0.00     0.000 A 
ATOM     27  C   UNL d   1     -41.326-121.740 -54.392  0.00  0.00     0.002 A 
ENDBRANCH  20  21
ENDBRANCH  18  20
ENDBRANCH  16  17
ENDBRANCH   5  16
BRANCH   2  28
ATOM     28  C   UNL d   1     -42.066-123.818 -48.990  0.00  0.00     0.087 C 
BRANCH  28  29
ATOM     29  C   UNL d   1     -41.956-123.544 -48.219  0.00  0.00     0.018 A 
ATOM     30  C   UNL d   1     -42.559-123.656 -47.668  0.00  0.00     0.002 A 
ATOM     31  C   UNL d   1     -42.449-123.380 -46.890  0.00  0.00     0.000 A 
ATOM     32  C   UNL d   1     -41.742-122.999 -46.682  0.00  0.00     0.000 A 
ATOM     33  C   UNL d   1     -41.156-122.898 -47.244  0.00  0.00     0.000 A 
ATOM     34  C   UNL d   1     -41.262-123.170 -48.015  0.00  0.00     0.002 A 
ENDBRANCH  28  29
ENDBRANCH   2  28
TORSDOF 6
ENDMDL
