MODEL 1
REMARK VINA RESULT:      25.1      0.000      0.000
REMARK  3 active torsions:
REMARK  status: ('A' for Active; 'I' for Inactive)
REMARK    1  A    between atoms: C_6  and  N_1 
REMARK    2  A    between atoms: C_11  and  C_6 
REMARK    3  A    between atoms: C_9  and  C_11 
ROOT
ATOM      1  N   UNL d   1     -51.398  25.209  33.313  0.00  0.00    -0.240 N 
ATOM      2  C   UNL d   1     -51.847  25.896  33.316  0.00  0.00     0.267 A 
ATOM      3  C   UNL d   1     -50.605  25.431  33.320  0.00  0.00     0.267 A 
ATOM      4  C   UNL d   1     -51.336  26.540  33.324  0.00  0.00     0.061 A 
ATOM      5  C   UNL d   1     -50.564  26.250  33.326  0.00  0.00     0.061 A 
ATOM      6  O   UNL d   1     -52.698  25.909  33.312  0.00  0.00    -0.267 OA
ATOM      7  O   UNL d   1     -49.973  24.887  33.319  0.00  0.00    -0.267 OA
ATOM      8  C   UNL d   1     -49.949  26.763  33.333  0.00  0.00     0.005 A 
ATOM      9  C   UNL d   1     -51.482  27.338  33.329  0.00  0.00     0.005 A 
ATOM     10  C   UNL d   1     -50.838  27.870  33.337  0.00  0.00     0.000 A 
ATOM     11  C   UNL d   1     -50.066  27.580  33.339  0.00  0.00     0.000 A 
ENDROOT
BRANCH   1  12
ATOM     12  C   UNL d   1     -51.688  24.437  33.306  0.00  0.00     0.086 C 
BRANCH  12  13
ATOM     13  C   UNL d   1     -51.944  24.076  34.008  0.00  0.00     0.019 C 
BRANCH  13  14
ATOM     14  C   UNL d   1     -52.714  23.783  34.051  0.00  0.00     0.002 A 
ATOM     15  C   UNL d   1     -53.149  23.666  33.380  0.00  0.00     0.000 A 
ATOM     16  C   UNL d   1     -53.930  23.369  33.426  0.00  0.00     0.000 A 
ATOM     17  C   UNL d   1     -54.262  23.192  34.167  0.00  0.00     0.000 A 
ATOM     18  C   UNL d   1     -53.823  23.311  34.834  0.00  0.00     0.000 A 
ATOM     19  C   UNL d   1     -53.043  23.607  34.793  0.00  0.00     0.000 A 
ENDBRANCH  13  14
ENDBRANCH  12  13
ENDBRANCH   1  12
TORSDOF 3
ENDMDL
