MODEL 1
REMARK VINA RESULT:      -3.5      0.000      0.000
REMARK  5 active torsions:
REMARK  status: ('A' for Active; 'I' for Inactive)
REMARK    1  A    between atoms: C_2  and  C_1 
REMARK       I    between atoms: N_5  and  C_1 
REMARK    2  A    between atoms: C_3  and  C_14 
REMARK    3  A    between atoms: C_12  and  N_5 
REMARK    4  A    between atoms: O_13  and  C_9 
REMARK    5  A    between atoms: C_14  and  C_12 
ROOT
ATOM      1  C   UNL d   1      32.962  20.122 -21.700  0.00  0.00     0.279 C 
ATOM      2  O   UNL d   1      33.241  19.671 -21.080  0.00  0.00    -0.265 OA
ATOM      3  N   UNL d   1      32.818  19.796 -22.440  0.00  0.00    -0.206 NA
ENDROOT
BRANCH   1   4
ATOM      4  C   UNL d   1      32.821  20.927 -21.582  0.00  0.00     0.058 A 
ATOM      5  C   UNL d   1      32.325  21.165 -20.990  0.00  0.00     0.007 A 
ATOM      6  C   UNL d   1      32.190  21.984 -20.881  0.00  0.00     0.024 A 
ATOM      7  C   UNL d   1      32.541  22.519 -21.348  0.00  0.00     0.094 A 
ATOM      8  C   UNL d   1      33.050  22.278 -21.955  0.00  0.00     0.024 A 
ATOM      9  C   UNL d   1      33.193  21.475 -22.076  0.00  0.00     0.007 A 
BRANCH   7  10
ATOM     10  O   UNL d   1      32.405  23.307 -21.236  0.00  0.00    -0.328 OA
ATOM     11  C   UNL d   1      32.279  23.601 -20.470  0.00  0.00     0.181 C 
ENDBRANCH   7  10
ENDBRANCH   1   4
BRANCH   3  12
ATOM     12  C   UNL d   1      32.963  18.988 -22.545  0.00  0.00     0.102 C 
BRANCH  12  13
ATOM     13  C   UNL d   1      32.941  18.658 -23.274  0.00  0.00     0.021 C 
BRANCH  13  14
ATOM     14  C   UNL d   1      32.699  17.883 -23.378  0.00  0.00     0.002 A 
ATOM     15  C   UNL d   1      33.176  17.262 -23.139  0.00  0.00     0.000 A 
ATOM     16  C   UNL d   1      32.931  16.480 -23.243  0.00  0.00     0.000 A 
ATOM     17  C   UNL d   1      32.205  16.303 -23.589  0.00  0.00     0.000 A 
ATOM     18  C   UNL d   1      31.722  16.937 -23.831  0.00  0.00     0.000 A 
ATOM     19  C   UNL d   1      31.977  17.724 -23.721  0.00  0.00     0.000 A 
ENDBRANCH  13  14
ENDBRANCH  12  13
ENDBRANCH   3  12
TORSDOF 5
ENDMDL
MODEL 2
REMARK VINA RESULT:      -2.6      1.269      5.001
REMARK  5 active torsions:
REMARK  status: ('A' for Active; 'I' for Inactive)
REMARK    1  A    between atoms: C_2  and  C_1 
REMARK       I    between atoms: N_5  and  C_1 
REMARK    2  A    between atoms: C_3  and  C_14 
REMARK    3  A    between atoms: C_12  and  N_5 
REMARK    4  A    between atoms: O_13  and  C_9 
REMARK    5  A    between atoms: C_14  and  C_12 
ROOT
ATOM      1  C   UNL d   1      33.019  19.728 -22.171  0.00  0.00     0.279 C 
ATOM      2  O   UNL d   1      33.241  19.382 -21.466  0.00  0.00    -0.265 OA
ATOM      3  N   UNL d   1      32.814  20.521 -22.216  0.00  0.00    -0.206 NA
ENDROOT
BRANCH   1   4
ATOM      4  C   UNL d   1      33.001  19.269 -22.857  0.00  0.00     0.058 A 
ATOM      5  C   UNL d   1      32.750  18.501 -22.820  0.00  0.00     0.007 A 
ATOM      6  C   UNL d   1      32.736  18.047 -23.523  0.00  0.00     0.024 A 
ATOM      7  C   UNL d   1      32.963  18.360 -24.214  0.00  0.00     0.094 A 
ATOM      8  C   UNL d   1      33.221  19.146 -24.255  0.00  0.00     0.024 A 
ATOM      9  C   UNL d   1      33.241  19.607 -23.572  0.00  0.00     0.007 A 
BRANCH   7  10
ATOM     10  O   UNL d   1      32.946  17.914 -24.887  0.00  0.00    -0.328 OA
ATOM     11  C   UNL d   1      33.155  17.111 -24.858  0.00  0.00     0.181 C 
ENDBRANCH   7  10
ENDBRANCH   1   4
BRANCH   3  12
ATOM     12  C   UNL d   1      32.836  20.971 -21.521  0.00  0.00     0.102 C 
BRANCH  12  13
ATOM     13  C   UNL d   1      32.234  21.463 -21.330  0.00  0.00     0.021 C 
BRANCH  13  14
ATOM     14  C   UNL d   1      32.369  22.142 -20.895  0.00  0.00     0.002 A 
ATOM     15  C   UNL d   1      32.104  22.869 -21.164  0.00  0.00     0.000 A 
ATOM     16  C   UNL d   1      32.240  23.555 -20.725  0.00  0.00     0.000 A 
ATOM     17  C   UNL d   1      32.644  23.529 -20.008  0.00  0.00     0.000 A 
ATOM     18  C   UNL d   1      32.913  22.789 -19.737  0.00  0.00     0.000 A 
ATOM     19  C   UNL d   1      32.771  22.100 -20.187  0.00  0.00     0.000 A 
ENDBRANCH  13  14
ENDBRANCH  12  13
ENDBRANCH   3  12
TORSDOF 5
ENDMDL
MODEL 3
REMARK VINA RESULT:      -2.3      1.366      5.088
REMARK  5 active torsions:
REMARK  status: ('A' for Active; 'I' for Inactive)
REMARK    1  A    between atoms: C_2  and  C_1 
REMARK       I    between atoms: N_5  and  C_1 
REMARK    2  A    between atoms: C_3  and  C_14 
REMARK    3  A    between atoms: C_12  and  N_5 
REMARK    4  A    between atoms: O_13  and  C_9 
REMARK    5  A    between atoms: C_14  and  C_12 
ROOT
ATOM      1  C   UNL d   1      32.870  18.865 -23.285  0.00  0.00     0.279 C 
ATOM      2  O   UNL d   1      33.087  19.333 -23.916  0.00  0.00    -0.265 OA
ATOM      3  N   UNL d   1      32.820  19.165 -22.522  0.00  0.00    -0.206 NA
ENDROOT
BRANCH   1   4
ATOM      4  C   UNL d   1      32.695  18.068 -23.415  0.00  0.00     0.058 A 
ATOM      5  C   UNL d   1      32.005  17.864 -23.784  0.00  0.00     0.007 A 
ATOM      6  C   UNL d   1      31.840  17.053 -23.910  0.00  0.00     0.024 A 
ATOM      7  C   UNL d   1      32.347  16.493 -23.672  0.00  0.00     0.094 A 
ATOM      8  C   UNL d   1      33.054  16.700 -23.293  0.00  0.00     0.024 A 
ATOM      9  C   UNL d   1      33.232  17.494 -23.162  0.00  0.00     0.007 A 
BRANCH   7  10
ATOM     10  O   UNL d   1      32.179  15.714 -23.797  0.00  0.00    -0.328 OA
ATOM     11  C   UNL d   1      31.408  15.482 -23.999  0.00  0.00     0.181 C 
ENDBRANCH   7  10
ENDBRANCH   1   4
BRANCH   3  12
ATOM     12  C   UNL d   1      32.998  19.965 -22.405  0.00  0.00     0.102 C 
BRANCH  12  13
ATOM     13  C   UNL d   1      33.104  20.259 -21.668  0.00  0.00     0.021 C 
BRANCH  13  14
ATOM     14  C   UNL d   1      32.884  21.025 -21.486  0.00  0.00     0.002 A 
ATOM     15  C   UNL d   1      32.306  21.171 -20.924  0.00  0.00     0.000 A 
ATOM     16  C   UNL d   1      32.085  21.945 -20.740  0.00  0.00     0.000 A 
ATOM     17  C   UNL d   1      32.436  22.589 -21.114  0.00  0.00     0.000 A 
ATOM     18  C   UNL d   1      33.023  22.439 -21.685  0.00  0.00     0.000 A 
ATOM     19  C   UNL d   1      33.241  21.653 -21.865  0.00  0.00     0.000 A 
ENDBRANCH  13  14
ENDBRANCH  12  13
ENDBRANCH   3  12
TORSDOF 5
ENDMDL
MODEL 4
REMARK VINA RESULT:      -1.8      3.105      5.658
REMARK  5 active torsions:
REMARK  status: ('A' for Active; 'I' for Inactive)
REMARK    1  A    between atoms: C_2  and  C_1 
REMARK       I    between atoms: N_5  and  C_1 
REMARK    2  A    between atoms: C_3  and  C_14 
REMARK    3  A    between atoms: C_12  and  N_5 
REMARK    4  A    between atoms: O_13  and  C_9 
REMARK    5  A    between atoms: C_14  and  C_12 
ROOT
ATOM      1  C   UNL d   1      30.185  17.284 -24.403  0.00  0.00     0.279 C 
ATOM      2  O   UNL d   1      30.090  17.775 -25.047  0.00  0.00    -0.265 OA
ATOM      3  N   UNL d   1      30.897  17.237 -23.997  0.00  0.00    -0.206 NA
ENDROOT
BRANCH   1   4
ATOM      4  C   UNL d   1      29.549  16.821 -24.150  0.00  0.00     0.058 A 
ATOM      5  C   UNL d   1      29.644  16.023 -24.062  0.00  0.00     0.007 A 
ATOM      6  C   UNL d   1      28.992  15.564 -23.806  0.00  0.00     0.024 A 
ATOM      7  C   UNL d   1      28.293  15.903 -23.652  0.00  0.00     0.094 A 
ATOM      8  C   UNL d   1      28.193  16.720 -23.741  0.00  0.00     0.024 A 
ATOM      9  C   UNL d   1      28.825  17.186 -23.993  0.00  0.00     0.007 A 
BRANCH   7  10
ATOM     10  O   UNL d   1      27.670  15.454 -23.405  0.00  0.00    -0.328 OA
ATOM     11  C   UNL d   1      26.895  15.674 -23.605  0.00  0.00     0.181 C 
ENDBRANCH   7  10
ENDBRANCH   1   4
BRANCH   3  12
ATOM     12  C   UNL d   1      31.527  17.706 -24.260  0.00  0.00     0.102 C 
BRANCH  12  13
ATOM     13  C   UNL d   1      32.205  17.757 -23.837  0.00  0.00     0.021 C 
BRANCH  13  14
ATOM     14  C   UNL d   1      32.546  18.483 -23.676  0.00  0.00     0.002 A 
ATOM     15  C   UNL d   1      32.892  18.923 -24.273  0.00  0.00     0.000 A 
ATOM     16  C   UNL d   1      33.236  19.656 -24.110  0.00  0.00     0.000 A 
ATOM     17  C   UNL d   1      33.241  19.964 -23.346  0.00  0.00     0.000 A 
ATOM     18  C   UNL d   1      32.888  19.515 -22.741  0.00  0.00     0.000 A 
ATOM     19  C   UNL d   1      32.543  18.775 -22.914  0.00  0.00     0.000 A 
ENDBRANCH  13  14
ENDBRANCH  12  13
ENDBRANCH   3  12
TORSDOF 5
ENDMDL
MODEL 5
REMARK VINA RESULT:      -1.2      2.341      3.803
REMARK  5 active torsions:
REMARK  status: ('A' for Active; 'I' for Inactive)
REMARK    1  A    between atoms: C_2  and  C_1 
REMARK       I    between atoms: N_5  and  C_1 
REMARK    2  A    between atoms: C_3  and  C_14 
REMARK    3  A    between atoms: C_12  and  N_5 
REMARK    4  A    between atoms: O_13  and  C_9 
REMARK    5  A    between atoms: C_14  and  C_12 
ROOT
ATOM      1  C   UNL d   1      31.873  17.393 -23.690  0.00  0.00     0.279 C 
ATOM      2  O   UNL d   1      32.267  16.745 -23.391  0.00  0.00    -0.265 OA
ATOM      3  N   UNL d   1      31.141  17.323 -24.054  0.00  0.00    -0.206 NA
ENDROOT
BRANCH   1   4
ATOM      4  C   UNL d   1      32.219  18.141 -23.627  0.00  0.00     0.058 A 
ATOM      5  C   UNL d   1      32.249  18.625 -24.274  0.00  0.00     0.007 A 
ATOM      6  C   UNL d   1      32.602  19.380 -24.197  0.00  0.00     0.024 A 
ATOM      7  C   UNL d   1      32.902  19.619 -23.504  0.00  0.00     0.094 A 
ATOM      8  C   UNL d   1      32.873  19.125 -22.840  0.00  0.00     0.024 A 
ATOM      9  C   UNL d   1      32.529  18.379 -22.899  0.00  0.00     0.007 A 
BRANCH   7  10
ATOM     10  O   UNL d   1      33.241  20.349 -23.439  0.00  0.00    -0.328 OA
ATOM     11  C   UNL d   1      32.921  20.910 -22.917  0.00  0.00     0.181 C 
ENDBRANCH   7  10
ENDBRANCH   1   4
BRANCH   3  12
ATOM     12  C   UNL d   1      30.804  16.568 -24.111  0.00  0.00     0.102 C 
BRANCH  12  13
ATOM     13  C   UNL d   1      30.105  16.457 -24.485  0.00  0.00     0.021 C 
BRANCH  13  14
ATOM     14  C   UNL d   1      29.424  16.297 -24.062  0.00  0.00     0.002 A 
ATOM     15  C   UNL d   1      28.782  16.806 -24.096  0.00  0.00     0.000 A 
ATOM     16  C   UNL d   1      28.094  16.645 -23.668  0.00  0.00     0.000 A 
ATOM     17  C   UNL d   1      28.033  15.971 -23.198  0.00  0.00     0.000 A 
ATOM     18  C   UNL d   1      28.686  15.456 -23.165  0.00  0.00     0.000 A 
ATOM     19  C   UNL d   1      29.378  15.627 -23.600  0.00  0.00     0.000 A 
ENDBRANCH  13  14
ENDBRANCH  12  13
ENDBRANCH   3  12
TORSDOF 5
ENDMDL
