MODEL 1
REMARK VINA RESULT:      -8.1      0.000      0.000
REMARK  3 active torsions:
REMARK  status: ('A' for Active; 'I' for Inactive)
REMARK    1  A    between atoms: C_3  and  C_1 
REMARK    2  A    between atoms: C_5  and  C_3 
REMARK    3  A    between atoms: C_10  and  C_5 
ROOT
ATOM      1  C   UNL d   1     -48.342  12.681  23.142  0.00  0.00     0.109 C 
ATOM      2  C   UNL d   1     -48.357  11.861  23.059  0.00  0.00     0.105 C 
ATOM      3  N   UNL d   1     -48.378  11.044  22.973  0.00  0.00    -0.191 NA
ENDROOT
BRANCH   1   4
ATOM      4  C   UNL d   1     -48.976  13.133  22.866  0.00  0.00     0.192 A 
ATOM      5  N   UNL d   1     -49.372  13.730  23.292  0.00  0.00    -0.220 NA
ATOM      6  C   UNL d   1     -49.964  14.033  22.809  0.00  0.00     0.106 A 
ATOM      7  C   UNL d   1     -50.527  14.630  22.935  0.00  0.00     0.021 A 
ATOM      8  C   UNL d   1     -49.941  13.632  22.088  0.00  0.00     0.119 A 
ATOM      9  C   UNL d   1     -51.064  14.820  22.335  0.00  0.00     0.002 A 
ATOM     10  C   UNL d   1     -51.044  14.422  21.612  0.00  0.00     0.002 A 
ATOM     11  C   UNL d   1     -50.487  13.829  21.483  0.00  0.00     0.026 A 
ATOM     12  O   UNL d   1     -49.330  13.078  22.125  0.00  0.00    -0.287 OA
ENDBRANCH   1   4
BRANCH   1  13
ATOM     13  C   UNL d   1     -47.700  13.047  23.497  0.00  0.00     0.014 C 
BRANCH  13  14
ATOM     14  C   UNL d   1     -46.956  13.004  23.144  0.00  0.00     0.004 A 
ATOM     15  C   UNL d   1     -46.424  12.422  23.380  0.00  0.00     0.042 A 
ATOM     16  C   UNL d   1     -45.681  12.383  23.024  0.00  0.00     0.196 A 
ATOM     17  O   UNL d   1     -45.141  11.799  23.257  0.00  0.00    -0.287 OA
ATOM     18  C   UNL d   1     -45.468  12.918  22.437  0.00  0.00     0.042 A 
ATOM     19  C   UNL d   1     -46.012  13.505  22.203  0.00  0.00     0.003 A 
ATOM     20  C   UNL d   1     -46.756  13.548  22.557  0.00  0.00     0.000 A 
ENDBRANCH  13  14
ENDBRANCH   1  13
TORSDOF 3
ENDMDL
MODEL 2
REMARK VINA RESULT:      -7.5      1.233      4.054
REMARK  3 active torsions:
REMARK  status: ('A' for Active; 'I' for Inactive)
REMARK    1  A    between atoms: C_3  and  C_1 
REMARK    2  A    between atoms: C_5  and  C_3 
REMARK    3  A    between atoms: C_10  and  C_5 
ROOT
ATOM      1  C   UNL d   1     -49.257  12.707  22.641  0.00  0.00     0.109 C 
ATOM      2  C   UNL d   1     -49.521  12.639  21.863  0.00  0.00     0.105 C 
ATOM      3  N   UNL d   1     -49.779  12.569  21.085  0.00  0.00    -0.191 NA
ENDROOT
BRANCH   1   4
ATOM      4  C   UNL d   1     -48.509  12.422  22.846  0.00  0.00     0.192 A 
ATOM      5  N   UNL d   1     -48.352  11.711  23.254  0.00  0.00    -0.220 NA
ATOM      6  C   UNL d   1     -47.537  11.646  23.339  0.00  0.00     0.106 A 
ATOM      7  C   UNL d   1     -47.065  11.062  23.695  0.00  0.00     0.021 A 
ATOM      8  C   UNL d   1     -47.185  12.306  22.991  0.00  0.00     0.119 A 
ATOM      9  C   UNL d   1     -46.241  11.147  23.698  0.00  0.00     0.002 A 
ATOM     10  C   UNL d   1     -45.886  11.805  23.350  0.00  0.00     0.002 A 
ATOM     11  C   UNL d   1     -46.351  12.386  22.996  0.00  0.00     0.026 A 
ATOM     12  O   UNL d   1     -47.787  12.783  22.687  0.00  0.00    -0.287 OA
ENDBRANCH   1   4
BRANCH   1  13
ATOM     13  C   UNL d   1     -49.733  13.055  23.209  0.00  0.00     0.014 C 
BRANCH  13  14
ATOM     14  C   UNL d   1     -50.018  13.821  23.092  0.00  0.00     0.004 A 
ATOM     15  C   UNL d   1     -49.542  14.466  23.273  0.00  0.00     0.042 A 
ATOM     16  C   UNL d   1     -49.830  15.230  23.155  0.00  0.00     0.196 A 
ATOM     17  O   UNL d   1     -49.356  15.884  23.335  0.00  0.00    -0.287 OA
ATOM     18  C   UNL d   1     -50.588  15.351  22.857  0.00  0.00     0.042 A 
ATOM     19  C   UNL d   1     -51.064  14.692  22.676  0.00  0.00     0.003 A 
ATOM     20  C   UNL d   1     -50.780  13.927  22.793  0.00  0.00     0.000 A 
ENDBRANCH  13  14
ENDBRANCH   1  13
TORSDOF 3
ENDMDL
MODEL 3
REMARK VINA RESULT:      -7.3      1.653      3.878
REMARK  3 active torsions:
REMARK  status: ('A' for Active; 'I' for Inactive)
REMARK    1  A    between atoms: C_3  and  C_1 
REMARK    2  A    between atoms: C_5  and  C_3 
REMARK    3  A    between atoms: C_10  and  C_5 
ROOT
ATOM      1  C   UNL d   1     -48.832  14.148  22.952  0.00  0.00     0.109 C 
ATOM      2  C   UNL d   1     -49.232  14.705  22.494  0.00  0.00     0.105 C 
ATOM      3  N   UNL d   1     -49.626  15.261  22.034  0.00  0.00    -0.191 NA
ENDROOT
BRANCH   1   4
ATOM      4  C   UNL d   1     -48.054  13.945  22.763  0.00  0.00     0.192 A 
ATOM      5  N   UNL d   1     -47.372  14.183  23.179  0.00  0.00    -0.220 NA
ATOM      6  C   UNL d   1     -46.720  13.855  22.800  0.00  0.00     0.106 A 
ATOM      7  C   UNL d   1     -45.906  13.901  22.964  0.00  0.00     0.021 A 
ATOM      8  C   UNL d   1     -46.987  13.418  22.154  0.00  0.00     0.119 A 
ATOM      9  C   UNL d   1     -45.367  13.506  22.476  0.00  0.00     0.002 A 
ATOM     10  C   UNL d   1     -45.631  13.067  21.829  0.00  0.00     0.002 A 
ATOM     11  C   UNL d   1     -46.436  13.019  21.663  0.00  0.00     0.026 A 
ATOM     12  O   UNL d   1     -47.810  13.474  22.132  0.00  0.00    -0.287 OA
ENDBRANCH   1   4
BRANCH   1  13
ATOM     13  C   UNL d   1     -49.204  13.797  23.592  0.00  0.00     0.014 C 
BRANCH  13  14
ATOM     14  C   UNL d   1     -49.763  13.204  23.467  0.00  0.00     0.004 A 
ATOM     15  C   UNL d   1     -49.577  12.423  23.646  0.00  0.00     0.042 A 
ATOM     16  C   UNL d   1     -50.138  11.832  23.520  0.00  0.00     0.196 A 
ATOM     17  O   UNL d   1     -49.957  11.044  23.698  0.00  0.00    -0.287 OA
ATOM     18  C   UNL d   1     -50.881  12.016  23.217  0.00  0.00     0.042 A 
ATOM     19  C   UNL d   1     -51.062  12.810  23.038  0.00  0.00     0.003 A 
ATOM     20  C   UNL d   1     -50.503  13.404  23.163  0.00  0.00     0.000 A 
ENDBRANCH  13  14
ENDBRANCH   1  13
TORSDOF 3
ENDMDL
MODEL 4
REMARK VINA RESULT:      -6.7      8.282     10.057
REMARK  3 active torsions:
REMARK  status: ('A' for Active; 'I' for Inactive)
REMARK    1  A    between atoms: C_3  and  C_1 
REMARK    2  A    between atoms: C_5  and  C_3 
REMARK    3  A    between atoms: C_10  and  C_5 
ROOT
ATOM      1  C   UNL d   1     -40.000  15.207  17.702  0.00  0.00     0.109 C 
ATOM      2  C   UNL d   1     -40.599  15.175  17.137  0.00  0.00     0.105 C 
ATOM      3  N   UNL d   1     -41.201  15.142  16.578  0.00  0.00    -0.191 NA
ENDROOT
BRANCH   1   4
ATOM      4  C   UNL d   1     -40.192  15.189  18.505  0.00  0.00     0.192 A 
ATOM      5  N   UNL d   1     -40.058  15.803  19.053  0.00  0.00    -0.220 NA
ATOM      6  C   UNL d   1     -40.334  15.549  19.785  0.00  0.00     0.106 A 
ATOM      7  C   UNL d   1     -40.347  15.922  20.528  0.00  0.00     0.021 A 
ATOM      8  C   UNL d   1     -40.637  14.787  19.699  0.00  0.00     0.119 A 
ATOM      9  C   UNL d   1     -40.665  15.523  21.180  0.00  0.00     0.002 A 
ATOM     10  C   UNL d   1     -40.969  14.760  21.098  0.00  0.00     0.002 A 
ATOM     11  C   UNL d   1     -40.958  14.388  20.363  0.00  0.00     0.026 A 
ATOM     12  O   UNL d   1     -40.548  14.566  18.909  0.00  0.00    -0.287 OA
ENDBRANCH   1   4
BRANCH   1  13
ATOM     13  C   UNL d   1     -39.216  15.257  17.468  0.00  0.00     0.014 C 
BRANCH  13  14
ATOM     14  C   UNL d   1     -38.876  14.641  17.038  0.00  0.00     0.004 A 
ATOM     15  C   UNL d   1     -38.680  13.937  17.417  0.00  0.00     0.042 A 
ATOM     16  C   UNL d   1     -38.340  13.323  16.983  0.00  0.00     0.196 A 
ATOM     17  O   UNL d   1     -38.141  12.613  17.358  0.00  0.00    -0.287 OA
ATOM     18  C   UNL d   1     -38.196  13.408  16.177  0.00  0.00     0.042 A 
ATOM     19  C   UNL d   1     -38.397  14.124  15.801  0.00  0.00     0.003 A 
ATOM     20  C   UNL d   1     -38.737  14.741  16.231  0.00  0.00     0.000 A 
ENDBRANCH  13  14
ENDBRANCH   1  13
TORSDOF 3
ENDMDL
MODEL 5
REMARK VINA RESULT:      -6.4      1.548      4.613
REMARK  3 active torsions:
REMARK  status: ('A' for Active; 'I' for Inactive)
REMARK    1  A    between atoms: C_3  and  C_1 
REMARK    2  A    between atoms: C_5  and  C_3 
REMARK    3  A    between atoms: C_10  and  C_5 
ROOT
ATOM      1  C   UNL d   1     -46.993  11.921  23.455  0.00  0.00     0.109 C 
ATOM      2  C   UNL d   1     -47.661  11.440  23.501  0.00  0.00     0.105 C 
ATOM      3  N   UNL d   1     -48.323  10.956  23.547  0.00  0.00    -0.191 NA
ENDROOT
BRANCH   1   4
ATOM      4  C   UNL d   1     -46.242  11.578  23.421  0.00  0.00     0.192 A 
ATOM      5  N   UNL d   1     -46.042  10.814  23.688  0.00  0.00    -0.220 NA
ATOM      6  C   UNL d   1     -45.240  10.701  23.547  0.00  0.00     0.106 A 
ATOM      7  C   UNL d   1     -44.740  10.054  23.696  0.00  0.00     0.021 A 
ATOM      8  C   UNL d   1     -44.939  11.384  23.197  0.00  0.00     0.119 A 
ATOM      9  C   UNL d   1     -43.940  10.099  23.491  0.00  0.00     0.002 A 
ATOM     10  C   UNL d   1     -43.634  10.781  23.141  0.00  0.00     0.002 A 
ATOM     11  C   UNL d   1     -44.127  11.425  22.991  0.00  0.00     0.026 A 
ATOM     12  O   UNL d   1     -45.559  11.924  23.120  0.00  0.00    -0.287 OA
ENDBRANCH   1   4
BRANCH   1  13
ATOM     13  C   UNL d   1     -47.072  12.737  23.442  0.00  0.00     0.014 C 
BRANCH  13  14
ATOM     14  C   UNL d   1     -47.666  13.084  22.986  0.00  0.00     0.004 A 
ATOM     15  C   UNL d   1     -48.219  13.578  23.343  0.00  0.00     0.042 A 
ATOM     16  C   UNL d   1     -48.810  13.924  22.883  0.00  0.00     0.196 A 
ATOM     17  O   UNL d   1     -49.370  14.422  23.236  0.00  0.00    -0.287 OA
ATOM     18  C   UNL d   1     -48.852  13.779  22.074  0.00  0.00     0.042 A 
ATOM     19  C   UNL d   1     -48.288  13.277  21.721  0.00  0.00     0.003 A 
ATOM     20  C   UNL d   1     -47.695  12.930  22.177  0.00  0.00     0.000 A 
ENDBRANCH  13  14
ENDBRANCH   1  13
TORSDOF 3
ENDMDL
MODEL 6
REMARK VINA RESULT:      -6.1      7.921      9.145
REMARK  3 active torsions:
REMARK  status: ('A' for Active; 'I' for Inactive)
REMARK    1  A    between atoms: C_3  and  C_1 
REMARK    2  A    between atoms: C_5  and  C_3 
REMARK    3  A    between atoms: C_10  and  C_5 
ROOT
ATOM      1  C   UNL d   1     -40.416  14.598  20.437  0.00  0.00     0.109 C 
ATOM      2  C   UNL d   1     -41.030  14.159  20.769  0.00  0.00     0.105 C 
ATOM      3  N   UNL d   1     -41.645  13.720  21.093  0.00  0.00    -0.191 NA
ENDROOT
BRANCH   1   4
ATOM      4  C   UNL d   1     -40.413  14.751  19.625  0.00  0.00     0.192 A 
ATOM      5  N   UNL d   1     -40.566  15.488  19.266  0.00  0.00    -0.220 NA
ATOM      6  C   UNL d   1     -40.505  15.388  18.452  0.00  0.00     0.106 A 
ATOM      7  C   UNL d   1     -40.599  15.922  17.823  0.00  0.00     0.021 A 
ATOM      8  C   UNL d   1     -40.317  14.599  18.301  0.00  0.00     0.119 A 
ATOM      9  C   UNL d   1     -40.502  15.658  17.044  0.00  0.00     0.002 A 
ATOM     10  C   UNL d   1     -40.314  14.870  16.888  0.00  0.00     0.002 A 
ATOM     11  C   UNL d   1     -40.220  14.337  17.510  0.00  0.00     0.026 A 
ATOM     12  O   UNL d   1     -40.261  14.207  19.025  0.00  0.00    -0.287 OA
ENDBRANCH   1   4
BRANCH   1  13
ATOM     13  C   UNL d   1     -39.811  14.882  20.911  0.00  0.00     0.014 C 
BRANCH  13  14
ATOM     14  C   UNL d   1     -39.313  14.353  21.302  0.00  0.00     0.004 A 
ATOM     15  C   UNL d   1     -39.433  14.193  22.099  0.00  0.00     0.042 A 
ATOM     16  C   UNL d   1     -38.933  13.664  22.487  0.00  0.00     0.196 A 
ATOM     17  O   UNL d   1     -39.048  13.498  23.290  0.00  0.00    -0.287 OA
ATOM     18  C   UNL d   1     -38.317  13.295  22.084  0.00  0.00     0.042 A 
ATOM     19  C   UNL d   1     -38.202  13.463  21.275  0.00  0.00     0.003 A 
ATOM     20  C   UNL d   1     -38.700  13.992  20.884  0.00  0.00     0.000 A 
ENDBRANCH  13  14
ENDBRANCH   1  13
TORSDOF 3
ENDMDL
MODEL 7
REMARK VINA RESULT:      -6.1      8.336      9.669
REMARK  3 active torsions:
REMARK  status: ('A' for Active; 'I' for Inactive)
REMARK    1  A    between atoms: C_3  and  C_1 
REMARK    2  A    between atoms: C_5  and  C_3 
REMARK    3  A    between atoms: C_10  and  C_5 
ROOT
ATOM      1  C   UNL d   1     -40.138  15.470  20.440  0.00  0.00     0.109 C 
ATOM      2  C   UNL d   1     -40.920  15.693  20.577  0.00  0.00     0.105 C 
ATOM      3  N   UNL d   1     -41.699  15.913  20.721  0.00  0.00    -0.191 NA
ENDROOT
BRANCH   1   4
ATOM      4  C   UNL d   1     -39.726  15.044  21.015  0.00  0.00     0.192 A 
ATOM      5  N   UNL d   1     -39.108  15.338  21.492  0.00  0.00    -0.220 NA
ATOM      6  C   UNL d   1     -38.860  14.729  21.985  0.00  0.00     0.106 A 
ATOM      7  C   UNL d   1     -38.270  14.699  22.569  0.00  0.00     0.021 A 
ATOM      8  C   UNL d   1     -39.314  14.060  21.821  0.00  0.00     0.119 A 
ATOM      9  C   UNL d   1     -38.141  13.995  22.985  0.00  0.00     0.002 A 
ATOM     10  C   UNL d   1     -38.593  13.324  22.824  0.00  0.00     0.002 A 
ATOM     11  C   UNL d   1     -39.179  13.350  22.246  0.00  0.00     0.026 A 
ATOM     12  O   UNL d   1     -39.848  14.256  21.223  0.00  0.00    -0.287 OA
ENDBRANCH   1   4
BRANCH   1  13
ATOM     13  C   UNL d   1     -39.771  15.669  19.734  0.00  0.00     0.014 C 
BRANCH  13  14
ATOM     14  C   UNL d   1     -40.089  15.409  19.019  0.00  0.00     0.004 A 
ATOM     15  C   UNL d   1     -39.927  14.648  18.752  0.00  0.00     0.042 A 
ATOM     16  C   UNL d   1     -40.247  14.392  18.036  0.00  0.00     0.196 A 
ATOM     17  O   UNL d   1     -40.088  13.628  17.761  0.00  0.00    -0.287 OA
ATOM     18  C   UNL d   1     -40.725  14.890  17.588  0.00  0.00     0.042 A 
ATOM     19  C   UNL d   1     -40.884  15.660  17.865  0.00  0.00     0.003 A 
ATOM     20  C   UNL d   1     -40.566  15.920  18.581  0.00  0.00     0.000 A 
ENDBRANCH  13  14
ENDBRANCH   1  13
TORSDOF 3
ENDMDL
MODEL 8
REMARK VINA RESULT:      -5.9      8.509     10.133
REMARK  3 active torsions:
REMARK  status: ('A' for Active; 'I' for Inactive)
REMARK    1  A    between atoms: C_3  and  C_1 
REMARK    2  A    between atoms: C_5  and  C_3 
REMARK    3  A    between atoms: C_10  and  C_5 
ROOT
ATOM      1  C   UNL d   1     -40.438  15.003  18.872  0.00  0.00     0.109 C 
ATOM      2  C   UNL d   1     -40.988  14.445  19.129  0.00  0.00     0.105 C 
ATOM      3  N   UNL d   1     -41.534  13.885  19.381  0.00  0.00    -0.191 NA
ENDROOT
BRANCH   1   4
ATOM      4  C   UNL d   1     -39.921  14.816  18.256  0.00  0.00     0.192 A 
ATOM      5  N   UNL d   1     -39.782  15.279  17.576  0.00  0.00    -0.220 NA
ATOM      6  C   UNL d   1     -39.231  14.884  17.112  0.00  0.00     0.106 A 
ATOM      7  C   UNL d   1     -38.886  15.078  16.381  0.00  0.00     0.021 A 
ATOM      8  C   UNL d   1     -39.025  14.182  17.493  0.00  0.00     0.119 A 
ATOM      9  C   UNL d   1     -38.335  14.563  16.039  0.00  0.00     0.002 A 
ATOM     10  C   UNL d   1     -38.127  13.860  16.417  0.00  0.00     0.002 A 
ATOM     11  C   UNL d   1     -38.467  13.664  17.141  0.00  0.00     0.026 A 
ATOM     12  O   UNL d   1     -39.452  14.141  18.198  0.00  0.00    -0.287 OA
ENDBRANCH   1   4
BRANCH   1  13
ATOM     13  C   UNL d   1     -40.404  15.741  19.227  0.00  0.00     0.014 C 
BRANCH  13  14
ATOM     14  C   UNL d   1     -40.250  15.802  20.035  0.00  0.00     0.004 A 
ATOM     15  C   UNL d   1     -39.472  15.829  20.302  0.00  0.00     0.042 A 
ATOM     16  C   UNL d   1     -39.322  15.889  21.111  0.00  0.00     0.196 A 
ATOM     17  O   UNL d   1     -38.541  15.917  21.386  0.00  0.00    -0.287 OA
ATOM     18  C   UNL d   1     -39.941  15.922  21.651  0.00  0.00     0.042 A 
ATOM     19  C   UNL d   1     -40.727  15.894  21.373  0.00  0.00     0.003 A 
ATOM     20  C   UNL d   1     -40.881  15.834  20.565  0.00  0.00     0.000 A 
ENDBRANCH  13  14
ENDBRANCH   1  13
TORSDOF 3
ENDMDL
