MODEL 1
REMARK VINA RESULT:      74.7      0.000      0.000
REMARK  8 active torsions:
REMARK  status: ('A' for Active; 'I' for Inactive)
REMARK    1  A    between atoms: C_5  and  C_1 
REMARK    2  A    between atoms: C_9  and  N_2 
REMARK    3  A    between atoms: C_8  and  C_5 
REMARK    4  A    between atoms: C_7  and  C_9 
REMARK       I    between atoms: N_12  and  C_7 
REMARK       I    between atoms: N_10  and  C_8 
REMARK    5  A    between atoms: C_20  and  N_10 
REMARK    6  A    between atoms: C_11  and  C_20 
REMARK    7  A    between atoms: C_23  and  N_12 
REMARK    8  A    between atoms: C_24  and  N_12 
ROOT
ATOM      1  C   UNL d   1      57.412  49.193  51.651  0.00  0.00     0.063 A 
ATOM      2  N   UNL d   1      58.507  49.297  50.886  0.00  0.00    -0.300 N 
ATOM      3  C   UNL d   1      58.248  49.167  51.658  0.00  0.00     0.084 A 
ATOM      4  C   UNL d   1      57.167  49.339  50.877  0.00  0.00     0.021 A 
ATOM      5  C   UNL d   1      57.852  49.404  50.402  0.00  0.00     0.064 A 
ATOM      6  C   UNL d   1      56.427  49.422  50.540  0.00  0.00     0.002 A 
ATOM      7  C   UNL d   1      57.771  49.551  49.594  0.00  0.00     0.018 A 
ATOM      8  C   UNL d   1      56.346  49.570  49.729  0.00  0.00     0.000 A 
ATOM      9  C   UNL d   1      57.023  49.633  49.260  0.00  0.00     0.002 A 
ENDROOT
BRANCH   1  10
ATOM     10  C   UNL d   1      56.925  49.091  52.306  0.00  0.00     0.254 C 
ATOM     11  O   UNL d   1      56.423  49.706  52.540  0.00  0.00    -0.281 OA
BRANCH  10  12
ATOM     12  C   UNL d   1      56.933  48.383  52.728  0.00  0.00     0.318 C 
ATOM     13  N   UNL d   1      56.780  48.388  53.539  0.00  0.00    -0.202 NA
ATOM     14  O   UNL d   1      57.093  47.679  52.334  0.00  0.00    -0.262 OA
BRANCH  13  15
ATOM     15  C   UNL d   1      56.622  49.092  53.919  0.00  0.00     0.127 C 
BRANCH  15  16
ATOM     16  C   UNL d   1      56.481  49.099  54.725  0.00  0.00     0.119 A 
ATOM     17  O   UNL d   1      56.728  49.677  55.264  0.00  0.00    -0.304 OA
ATOM     18  C   UNL d   1      56.467  49.468  56.021  0.00  0.00     0.123 A 
ATOM     19  C   UNL d   1      56.051  48.747  55.956  0.00  0.00     0.029 A 
ATOM     20  C   UNL d   1      56.061  48.525  55.168  0.00  0.00     0.028 A 
ENDBRANCH  15  16
ENDBRANCH  13  15
ENDBRANCH  10  12
ENDBRANCH   1  10
BRANCH   2  21
ATOM     21  C   UNL d   1      59.294  49.317  50.640  0.00  0.00     0.142 C 
BRANCH  21  22
ATOM     22  C   UNL d   1      59.894  49.426  51.188  0.00  0.00     0.282 C 
ATOM     23  N   UNL d   1      60.663  49.589  50.935  0.00  0.00    -0.271 N 
ATOM     24  O   UNL d   1      59.728  49.373  51.996  0.00  0.00    -0.265 OA
BRANCH  23  25
ATOM     25  C   UNL d   1      61.265  49.698  51.491  0.00  0.00     0.083 C 
ATOM     26  C   UNL d   1      61.370  49.147  52.096  0.00  0.00     0.021 C 
ENDBRANCH  23  25
BRANCH  23  27
ATOM     27  C   UNL d   1      60.829  49.641  50.130  0.00  0.00     0.083 C 
ATOM     28  C   UNL d   1      60.740  48.983  49.648  0.00  0.00     0.021 C 
ENDBRANCH  23  27
ENDBRANCH  21  22
ENDBRANCH   2  21
TORSDOF 8
ENDMDL
