MODEL 1
REMARK VINA RESULT:      -8.8      0.000      0.000
REMARK  6 active torsions:
REMARK  status: ('A' for Active; 'I' for Inactive)
REMARK    1  A    between atoms: C_6  and  C_1 
REMARK    2  A    between atoms: C_9  and  N_3 
REMARK       I    between atoms: N_7  and  C_6 
REMARK    3  A    between atoms: C_8  and  N_7 
REMARK    4  A    between atoms: C_10  and  C_9 
REMARK    5  A    between atoms: O_25  and  C_15 
REMARK    6  A    between atoms: O_26  and  C_20 
ROOT
ATOM      1  C   UNL d   1      50.402  34.095  52.713  0.00  0.00     0.199 A 
ATOM      2  C   UNL d   1      51.150  34.082  52.376  0.00  0.00     0.211 A 
ATOM      3  N   UNL d   1      51.634  33.616  52.851  0.00  0.00    -0.190 N 
ATOM      4  N   UNL d   1      50.417  33.638  53.400  0.00  0.00    -0.122 NA
ATOM      5  N   UNL d   1      51.188  33.336  53.489  0.00  0.00    -0.058 NA
ATOM      6  N   UNL d   1      51.377  34.465  51.685  0.00  0.00    -0.125 N 
ENDROOT
BRANCH   1   7
ATOM      7  C   UNL d   1      49.745  34.494  52.421  0.00  0.00     0.302 C 
ATOM      8  N   UNL d   1      49.250  34.907  52.936  0.00  0.00    -0.204 NA
ATOM      9  O   UNL d   1      49.580  34.481  51.609  0.00  0.00    -0.263 OA
BRANCH   8  10
ATOM     10  C   UNL d   1      48.589  35.308  52.638  0.00  0.00     0.109 A 
ATOM     11  C   UNL d   1      48.213  35.038  51.955  0.00  0.00     0.045 A 
ATOM     12  C   UNL d   1      47.561  35.434  51.661  0.00  0.00     0.096 A 
ATOM     13  C   UNL d   1      47.272  36.106  52.042  0.00  0.00     0.026 A 
ATOM     14  C   UNL d   1      47.650  36.380  52.731  0.00  0.00     0.028 A 
ATOM     15  C   UNL d   1      48.309  35.976  53.024  0.00  0.00     0.112 A 
BRANCH  12  16
ATOM     16  O   UNL d   1      47.184  35.164  50.977  0.00  0.00    -0.328 OA
ATOM     17  C   UNL d   1      46.379  35.263  50.882  0.00  0.00     0.181 C 
ENDBRANCH  12  16
BRANCH  15  18
ATOM     18  O   UNL d   1      48.685  36.240  53.701  0.00  0.00    -0.327 OA
ATOM     19  C   UNL d   1      48.283  36.709  54.248  0.00  0.00     0.181 C 
ENDBRANCH  15  18
ENDBRANCH   8  10
ENDBRANCH   1   7
BRANCH   3  20
ATOM     20  C   UNL d   1      52.427  33.452  52.721  0.00  0.00     0.106 C 
BRANCH  20  21
ATOM     21  C   UNL d   1      52.957  33.403  53.354  0.00  0.00     0.047 A 
ATOM     22  C   UNL d   1      53.439  32.747  53.437  0.00  0.00     0.142 A 
ATOM     23  C   UNL d   1      53.967  32.701  54.070  0.00  0.00     0.036 A 
ATOM     24  F   UNL d   1      53.401  32.131  52.894  0.00  0.00    -0.204 F 
ATOM     25  C   UNL d   1      54.013  33.315  54.622  0.00  0.00     0.037 A 
ATOM     26  C   UNL d   1      53.519  33.981  54.532  0.00  0.00     0.007 A 
ATOM     27 BR   UNL d   1      54.538  33.276  55.257  0.00  0.00    -0.049 Br
ATOM     28  C   UNL d   1      52.995  34.019  53.897  0.00  0.00     0.004 A 
ENDBRANCH  20  21
ENDBRANCH   3  20
TORSDOF 6
ENDMDL
MODEL 2
REMARK VINA RESULT:      -8.8      2.634      5.759
REMARK  6 active torsions:
REMARK  status: ('A' for Active; 'I' for Inactive)
REMARK    1  A    between atoms: C_6  and  C_1 
REMARK    2  A    between atoms: C_9  and  N_3 
REMARK       I    between atoms: N_7  and  C_6 
REMARK    3  A    between atoms: C_8  and  N_7 
REMARK    4  A    between atoms: C_10  and  C_9 
REMARK    5  A    between atoms: O_25  and  C_15 
REMARK    6  A    between atoms: O_26  and  C_20 
ROOT
ATOM      1  C   UNL d   1      51.096  34.072  52.945  0.00  0.00     0.199 A 
ATOM      2  C   UNL d   1      50.854  34.316  52.199  0.00  0.00     0.211 A 
ATOM      3  N   UNL d   1      50.039  34.425  52.220  0.00  0.00    -0.190 N 
ATOM      4  N   UNL d   1      50.432  34.029  53.433  0.00  0.00    -0.122 NA
ATOM      5  N   UNL d   1      49.768  34.249  52.981  0.00  0.00    -0.058 NA
ATOM      6  N   UNL d   1      51.340  34.431  51.545  0.00  0.00    -0.125 N 
ENDROOT
BRANCH   1   7
ATOM      7  C   UNL d   1      51.867  33.900  53.173  0.00  0.00     0.302 C 
ATOM      8  N   UNL d   1      52.052  33.154  53.471  0.00  0.00    -0.204 NA
ATOM      9  O   UNL d   1      52.458  34.477  53.103  0.00  0.00    -0.263 OA
BRANCH   8  10
ATOM     10  C   UNL d   1      52.830  32.984  53.699  0.00  0.00     0.109 A 
ATOM     11  C   UNL d   1      53.249  33.515  54.172  0.00  0.00     0.045 A 
ATOM     12  C   UNL d   1      54.018  33.346  54.398  0.00  0.00     0.096 A 
ATOM     13  C   UNL d   1      54.381  32.647  54.155  0.00  0.00     0.026 A 
ATOM     14  C   UNL d   1      53.961  32.111  53.677  0.00  0.00     0.028 A 
ATOM     15  C   UNL d   1      53.184  32.285  53.452  0.00  0.00     0.112 A 
BRANCH  12  16
ATOM     16  O   UNL d   1      54.437  33.877  54.871  0.00  0.00    -0.328 OA
ATOM     17  C   UNL d   1      55.170  33.675  55.169  0.00  0.00     0.181 C 
ENDBRANCH  12  16
BRANCH  15  18
ATOM     18  O   UNL d   1      52.765  31.762  52.983  0.00  0.00    -0.327 OA
ATOM     19  C   UNL d   1      52.938  30.956  52.997  0.00  0.00     0.181 C 
ENDBRANCH  15  18
ENDBRANCH   8  10
ENDBRANCH   1   7
BRANCH   3  20
ATOM     20  C   UNL d   1      49.567  34.666  51.594  0.00  0.00     0.106 C 
BRANCH  20  21
ATOM     21  C   UNL d   1      48.843  35.043  51.733  0.00  0.00     0.047 A 
ATOM     22  C   UNL d   1      48.191  34.862  51.274  0.00  0.00     0.142 A 
ATOM     23  C   UNL d   1      47.470  35.241  51.415  0.00  0.00     0.036 A 
ATOM     24  F   UNL d   1      48.246  34.305  50.672  0.00  0.00    -0.204 F 
ATOM     25  C   UNL d   1      47.404  35.802  52.018  0.00  0.00     0.037 A 
ATOM     26  C   UNL d   1      48.073  35.982  52.482  0.00  0.00     0.007 A 
ATOM     27 BR   UNL d   1      46.687  36.184  52.164  0.00  0.00    -0.049 Br
ATOM     28  C   UNL d   1      48.788  35.600  52.334  0.00  0.00     0.004 A 
ENDBRANCH  20  21
ENDBRANCH   3  20
TORSDOF 6
ENDMDL
MODEL 3
REMARK VINA RESULT:      -8.5      1.231      2.045
REMARK  6 active torsions:
REMARK  status: ('A' for Active; 'I' for Inactive)
REMARK    1  A    between atoms: C_6  and  C_1 
REMARK    2  A    between atoms: C_9  and  N_3 
REMARK       I    between atoms: N_7  and  C_6 
REMARK    3  A    between atoms: C_8  and  N_7 
REMARK    4  A    between atoms: C_10  and  C_9 
REMARK    5  A    between atoms: O_25  and  C_15 
REMARK    6  A    between atoms: O_26  and  C_20 
ROOT
ATOM      1  C   UNL d   1      50.757  33.965  53.081  0.00  0.00     0.199 A 
ATOM      2  C   UNL d   1      51.559  34.004  52.908  0.00  0.00     0.211 A 
ATOM      3  N   UNL d   1      51.881  33.257  53.033  0.00  0.00    -0.190 N 
ATOM      4  N   UNL d   1      50.578  33.194  53.313  0.00  0.00    -0.122 NA
ATOM      5  N   UNL d   1      51.280  32.748  53.285  0.00  0.00    -0.058 NA
ATOM      6  N   UNL d   1      51.969  34.670  52.655  0.00  0.00    -0.125 N 
ENDROOT
BRANCH   1   7
ATOM      7  C   UNL d   1      50.220  34.585  53.031  0.00  0.00     0.302 C 
ATOM      8  N   UNL d   1      49.470  34.457  52.713  0.00  0.00    -0.204 NA
ATOM      9  O   UNL d   1      50.433  35.340  53.302  0.00  0.00    -0.263 OA
BRANCH   8  10
ATOM     10  C   UNL d   1      48.932  35.086  52.666  0.00  0.00     0.109 A 
ATOM     11  C   UNL d   1      48.805  35.575  53.318  0.00  0.00     0.045 A 
ATOM     12  C   UNL d   1      48.274  36.195  53.270  0.00  0.00     0.096 A 
ATOM     13  C   UNL d   1      47.859  36.338  52.571  0.00  0.00     0.026 A 
ATOM     14  C   UNL d   1      47.985  35.846  51.912  0.00  0.00     0.028 A 
ATOM     15  C   UNL d   1      48.524  35.221  51.966  0.00  0.00     0.112 A 
BRANCH  12  16
ATOM     16  O   UNL d   1      48.147  36.685  53.923  0.00  0.00    -0.328 OA
ATOM     17  C   UNL d   1      47.429  36.677  54.312  0.00  0.00     0.181 C 
ENDBRANCH  12  16
BRANCH  15  18
ATOM     18  O   UNL d   1      48.653  34.733  51.322  0.00  0.00    -0.327 OA
ATOM     19  C   UNL d   1      48.142  34.752  50.673  0.00  0.00     0.181 C 
ENDBRANCH  15  18
ENDBRANCH   8  10
ENDBRANCH   1   7
BRANCH   3  20
ATOM     20  C   UNL d   1      52.667  33.045  52.928  0.00  0.00     0.106 C 
BRANCH  20  21
ATOM     21  C   UNL d   1      52.927  32.283  53.119  0.00  0.00     0.047 A 
ATOM     22  C   UNL d   1      53.522  32.179  53.670  0.00  0.00     0.142 A 
ATOM     23  C   UNL d   1      53.780  31.416  53.858  0.00  0.00     0.036 A 
ATOM     24  F   UNL d   1      53.867  32.826  54.040  0.00  0.00    -0.204 F 
ATOM     25  C   UNL d   1      53.440  30.757  53.492  0.00  0.00     0.037 A 
ATOM     26  C   UNL d   1      52.834  30.871  52.931  0.00  0.00     0.007 A 
ATOM     27 BR   UNL d   1      53.693  29.994  53.675  0.00  0.00    -0.049 Br
ATOM     28  C   UNL d   1      52.583  31.635  52.749  0.00  0.00     0.004 A 
ENDBRANCH  20  21
ENDBRANCH   3  20
TORSDOF 6
ENDMDL
MODEL 4
REMARK VINA RESULT:      -8.0      2.611      5.559
REMARK  6 active torsions:
REMARK  status: ('A' for Active; 'I' for Inactive)
REMARK    1  A    between atoms: C_6  and  C_1 
REMARK    2  A    between atoms: C_9  and  N_3 
REMARK       I    between atoms: N_7  and  C_6 
REMARK    3  A    between atoms: C_8  and  N_7 
REMARK    4  A    between atoms: C_10  and  C_9 
REMARK    5  A    between atoms: O_25  and  C_15 
REMARK    6  A    between atoms: O_26  and  C_20 
ROOT
ATOM      1  C   UNL d   1      51.022  33.667  52.897  0.00  0.00     0.199 A 
ATOM      2  C   UNL d   1      50.790  34.139  52.267  0.00  0.00     0.211 A 
ATOM      3  N   UNL d   1      50.018  34.387  52.407  0.00  0.00    -0.190 N 
ATOM      4  N   UNL d   1      50.396  33.620  53.432  0.00  0.00    -0.122 NA
ATOM      5  N   UNL d   1      49.765  34.070  53.128  0.00  0.00    -0.058 NA
ATOM      6  N   UNL d   1      51.247  34.331  51.610  0.00  0.00    -0.125 N 
ENDROOT
BRANCH   1   7
ATOM      7  C   UNL d   1      51.753  33.301  52.985  0.00  0.00     0.302 C 
ATOM      8  N   UNL d   1      52.121  33.287  53.723  0.00  0.00    -0.204 NA
ATOM      9  O   UNL d   1      52.120  32.946  52.332  0.00  0.00    -0.263 OA
BRANCH   8  10
ATOM     10  C   UNL d   1      52.858  32.917  53.807  0.00  0.00     0.109 A 
ATOM     11  C   UNL d   1      52.979  32.159  53.504  0.00  0.00     0.045 A 
ATOM     12  C   UNL d   1      53.707  31.794  53.587  0.00  0.00     0.096 A 
ATOM     13  C   UNL d   1      54.325  32.179  53.975  0.00  0.00     0.026 A 
ATOM     14  C   UNL d   1      54.205  32.942  54.282  0.00  0.00     0.028 A 
ATOM     15  C   UNL d   1      53.468  33.307  54.195  0.00  0.00     0.112 A 
BRANCH  12  16
ATOM     16  O   UNL d   1      53.829  31.036  53.283  0.00  0.00    -0.328 OA
ATOM     17  C   UNL d   1      53.679  30.378  53.742  0.00  0.00     0.181 C 
ENDBRANCH  12  16
BRANCH  15  18
ATOM     18  O   UNL d   1      53.342  34.058  54.495  0.00  0.00    -0.327 OA
ATOM     19  C   UNL d   1      53.893  34.403  55.004  0.00  0.00     0.181 C 
ENDBRANCH  15  18
ENDBRANCH   8  10
ENDBRANCH   1   7
BRANCH   3  20
ATOM     20  C   UNL d   1      49.568  34.869  51.919  0.00  0.00     0.106 C 
BRANCH  20  21
ATOM     21  C   UNL d   1      48.884  35.237  52.204  0.00  0.00     0.047 A 
ATOM     22  C   UNL d   1      48.202  35.241  51.753  0.00  0.00     0.142 A 
ATOM     23  C   UNL d   1      47.520  35.609  52.041  0.00  0.00     0.036 A 
ATOM     24  F   UNL d   1      48.187  34.880  51.015  0.00  0.00    -0.204 F 
ATOM     25  C   UNL d   1      47.523  35.975  52.782  0.00  0.00     0.037 A 
ATOM     26  C   UNL d   1      48.223  35.967  53.236  0.00  0.00     0.007 A 
ATOM     27 BR   UNL d   1      46.847  36.345  53.076  0.00  0.00    -0.049 Br
ATOM     28  C   UNL d   1      48.898  35.597  52.942  0.00  0.00     0.004 A 
ENDBRANCH  20  21
ENDBRANCH   3  20
TORSDOF 6
ENDMDL
