MODEL 1
REMARK VINA RESULT:     141.4      0.000      0.000
REMARK  5 active torsions:
REMARK  status: ('A' for Active; 'I' for Inactive)
REMARK    1  A    between atoms: C_4  and  C_1 
REMARK    2  A    between atoms: N_5  and  C_2 
REMARK       I    between atoms: N_9  and  C_4 
REMARK       I    between atoms: C_7  and  N_5 
REMARK    3  A    between atoms: C_10  and  C_7 
REMARK    4  A    between atoms: C_21  and  N_9 
REMARK    5  A    between atoms: O_29  and  C_22 
ROOT
ATOM      1  C   UNL d   1      58.069  47.295  50.537  0.00  0.00     0.175 A 
ATOM      2  C   UNL d   1      58.246  48.055  50.827  0.00  0.00     0.114 A 
ATOM      3  O   UNL d   1      57.289  47.319  50.255  0.00  0.00    -0.301 OA
ATOM      4  C   UNL d   1      57.586  48.527  50.722  0.00  0.00     0.043 A 
ATOM      5  C   UNL d   1      56.992  48.074  50.368  0.00  0.00     0.102 A 
ATOM      6  C   UNL d   1      57.445  49.321  50.904  0.00  0.00     0.004 A 
ATOM      7  C   UNL d   1      56.264  48.413  50.198  0.00  0.00     0.025 A 
ATOM      8  C   UNL d   1      56.709  49.660  50.731  0.00  0.00     0.000 A 
ATOM      9  C   UNL d   1      56.119  49.199  50.377  0.00  0.00     0.002 A 
ENDROOT
BRANCH   2  10
ATOM     10  N   UNL d   1      58.970  48.287  51.164  0.00  0.00    -0.206 NA
ATOM     11  C   UNL d   1      59.475  48.785  50.743  0.00  0.00     0.279 C 
ATOM     12  O   UNL d   1      59.267  49.052  49.993  0.00  0.00    -0.265 OA
BRANCH  11  13
ATOM     13  C   UNL d   1      60.192  49.014  51.078  0.00  0.00     0.060 A 
ATOM     14  C   UNL d   1      60.261  49.078  51.892  0.00  0.00     0.031 A 
ATOM     15  C   UNL d   1      60.972  49.306  52.222  0.00  0.00     0.119 A 
ATOM     16  O   UNL d   1      61.209  49.418  53.009  0.00  0.00    -0.300 OA
ATOM     17  C   UNL d   1      61.617  49.470  51.735  0.00  0.00     0.119 A 
ATOM     18  C   UNL d   1      62.003  49.652  53.002  0.00  0.00     0.304 A 
ATOM     19  O   UNL d   1      62.250  49.683  52.215  0.00  0.00    -0.300 OA
ATOM     20  C   UNL d   1      61.547  49.406  50.921  0.00  0.00     0.026 A 
ATOM     21  C   UNL d   1      60.820  49.174  50.594  0.00  0.00     0.007 A 
ENDBRANCH  11  13
ENDBRANCH   2  10
BRANCH   1  22
ATOM     22  C   UNL d   1      58.576  46.642  50.532  0.00  0.00     0.303 C 
ATOM     23  N   UNL d   1      59.299  46.685  50.915  0.00  0.00    -0.206 NA
ATOM     24  O   UNL d   1      58.350  45.948  50.141  0.00  0.00    -0.263 OA
BRANCH  23  25
ATOM     25  C   UNL d   1      59.808  46.034  50.912  0.00  0.00     0.085 A 
ATOM     26  C   UNL d   1      60.441  46.024  50.383  0.00  0.00     0.021 A 
ATOM     27  C   UNL d   1      60.957  45.375  50.373  0.00  0.00     0.026 A 
ATOM     28  C   UNL d   1      60.829  44.744  50.895  0.00  0.00     0.094 A 
ATOM     29  C   UNL d   1      60.196  44.762  51.419  0.00  0.00     0.026 A 
ATOM     30  C   UNL d   1      59.684  45.416  51.423  0.00  0.00     0.021 A 
BRANCH  28  31
ATOM     31  O   UNL d   1      61.338  44.097  50.890  0.00  0.00    -0.328 OA
ATOM     32  C   UNL d   1      61.037  43.342  51.032  0.00  0.00     0.181 C 
ENDBRANCH  28  31
ENDBRANCH  23  25
ENDBRANCH   1  22
TORSDOF 5
ENDMDL
