MODEL 1
REMARK VINA RESULT:      -9.4      0.000      0.000
REMARK  3 active torsions:
REMARK  status: ('A' for Active; 'I' for Inactive)
REMARK    1  A    between atoms: C_8  and  C_1 
REMARK    2  A    between atoms: O_13  and  C_6 
REMARK    3  A    between atoms: C_17  and  O_13 
ROOT
ATOM      1  C   UNL d   1     -47.771  12.201  23.146  0.00  0.00     0.009 A 
ATOM      2  C   UNL d   1     -47.439  12.948  23.012  0.00  0.00     0.046 A 
ATOM      3  C   UNL d   1     -46.623  13.057  23.108  0.00  0.00     0.105 A 
ATOM      4  O   UNL d   1     -46.147  12.426  23.335  0.00  0.00    -0.273 OA
ATOM      5  C   UNL d   1     -47.298  11.569  23.373  0.00  0.00     0.069 A 
ATOM      6  C   UNL d   1     -47.912  13.581  22.784  0.00  0.00     0.102 A 
ATOM      7  C   UNL d   1     -46.485  11.677  23.469  0.00  0.00     0.300 A 
ATOM      8  C   UNL d   1     -46.287  13.797  22.975  0.00  0.00     0.025 A 
ATOM      9  C   UNL d   1     -47.580  14.324  22.651  0.00  0.00     0.025 A 
ATOM     10  O   UNL d   1     -46.005  11.041  23.698  0.00  0.00    -0.259 OA
ATOM     11  C   UNL d   1     -46.768  14.432  22.746  0.00  0.00     0.004 A 
ATOM     12  C   UNL d   1     -46.428  15.169  22.616  0.00  0.00     0.000 C 
ENDROOT
BRANCH   1  13
ATOM     13  C   UNL d   1     -48.587  12.092  23.050  0.00  0.00     0.000 A 
ATOM     14  C   UNL d   1     -48.893  11.913  22.300  0.00  0.00     0.000 A 
ATOM     15  C   UNL d   1     -49.718  11.803  22.203  0.00  0.00     0.000 A 
ATOM     16  C   UNL d   1     -50.222  11.873  22.850  0.00  0.00     0.000 A 
ATOM     17  C   UNL d   1     -49.903  12.054  23.602  0.00  0.00     0.000 A 
ATOM     18  C   UNL d   1     -49.091  12.162  23.698  0.00  0.00     0.000 A 
ENDBRANCH   1  13
BRANCH   6  19
ATOM     19  O   UNL d   1     -48.728  13.472  22.688  0.00  0.00    -0.305 OA
BRANCH  19  20
ATOM     20  C   UNL d   1     -49.171  14.020  22.277  0.00  0.00     0.123 C 
ATOM     21  C   UNL d   1     -49.559  14.618  22.687  0.00  0.00     0.029 C 
ENDBRANCH  19  20
ENDBRANCH   6  19
TORSDOF 3
ENDMDL
MODEL 2
REMARK VINA RESULT:      -9.2      1.056      2.628
REMARK  3 active torsions:
REMARK  status: ('A' for Active; 'I' for Inactive)
REMARK    1  A    between atoms: C_8  and  C_1 
REMARK    2  A    between atoms: O_13  and  C_6 
REMARK    3  A    between atoms: C_17  and  O_13 
ROOT
ATOM      1  C   UNL d   1     -49.078  12.736  23.121  0.00  0.00     0.009 A 
ATOM      2  C   UNL d   1     -48.339  12.390  23.262  0.00  0.00     0.046 A 
ATOM      3  C   UNL d   1     -48.298  11.613  23.550  0.00  0.00     0.105 A 
ATOM      4  O   UNL d   1     -48.989  11.191  23.695  0.00  0.00    -0.273 OA
ATOM      5  C   UNL d   1     -49.770  12.316  23.265  0.00  0.00     0.069 A 
ATOM      6  C   UNL d   1     -47.646  12.809  23.118  0.00  0.00     0.102 A 
ATOM      7  C   UNL d   1     -49.730  11.544  23.552  0.00  0.00     0.300 A 
ATOM      8  C   UNL d   1     -47.566  11.264  23.692  0.00  0.00     0.025 A 
ATOM      9  C   UNL d   1     -46.911  12.462  23.259  0.00  0.00     0.025 A 
ATOM     10  O   UNL d   1     -50.426  11.118  23.698  0.00  0.00    -0.259 OA
ATOM     11  C   UNL d   1     -46.871  11.690  23.546  0.00  0.00     0.004 A 
ATOM     12  C   UNL d   1     -46.143  11.337  23.689  0.00  0.00     0.000 C 
ENDROOT
BRANCH   1  13
ATOM     13  C   UNL d   1     -49.118  13.512  22.833  0.00  0.00     0.000 A 
ATOM     14  C   UNL d   1     -49.105  13.649  22.015  0.00  0.00     0.000 A 
ATOM     15  C   UNL d   1     -49.146  14.433  21.723  0.00  0.00     0.000 A 
ATOM     16  C   UNL d   1     -49.198  15.065  22.247  0.00  0.00     0.000 A 
ATOM     17  C   UNL d   1     -49.210  14.917  23.071  0.00  0.00     0.000 A 
ATOM     18  C   UNL d   1     -49.170  14.144  23.358  0.00  0.00     0.000 A 
ENDBRANCH   1  13
BRANCH   6  19
ATOM     19  O   UNL d   1     -47.687  13.585  22.830  0.00  0.00    -0.305 OA
BRANCH  19  20
ATOM     20  C   UNL d   1     -47.032  13.933  22.490  0.00  0.00     0.123 C 
ATOM     21  C   UNL d   1     -46.544  14.414  22.946  0.00  0.00     0.029 C 
ENDBRANCH  19  20
ENDBRANCH   6  19
TORSDOF 3
ENDMDL
MODEL 3
REMARK VINA RESULT:      -9.0      0.984      2.569
REMARK  3 active torsions:
REMARK  status: ('A' for Active; 'I' for Inactive)
REMARK    1  A    between atoms: C_8  and  C_1 
REMARK    2  A    between atoms: O_13  and  C_6 
REMARK    3  A    between atoms: C_17  and  O_13 
ROOT
ATOM      1  C   UNL d   1     -49.110  13.815  22.757  0.00  0.00     0.009 A 
ATOM      2  C   UNL d   1     -48.283  13.830  22.796  0.00  0.00     0.046 A 
ATOM      3  C   UNL d   1     -47.882  14.550  22.704  0.00  0.00     0.105 A 
ATOM      4  O   UNL d   1     -48.305  15.243  22.574  0.00  0.00    -0.273 OA
ATOM      5  C   UNL d   1     -49.535  14.506  22.629  0.00  0.00     0.069 A 
ATOM      6  C   UNL d   1     -47.858  13.139  22.925  0.00  0.00     0.102 A 
ATOM      7  C   UNL d   1     -49.137  15.222  22.537  0.00  0.00     0.300 A 
ATOM      8  C   UNL d   1     -47.060  14.571  22.741  0.00  0.00     0.025 A 
ATOM      9  C   UNL d   1     -47.034  13.156  22.963  0.00  0.00     0.025 A 
ATOM     10  O   UNL d   1     -49.562  15.922  22.406  0.00  0.00    -0.259 OA
ATOM     11  C   UNL d   1     -46.635  13.872  22.871  0.00  0.00     0.004 A 
ATOM     12  C   UNL d   1     -45.814  13.899  22.908  0.00  0.00     0.000 C 
ENDROOT
BRANCH   1  13
ATOM     13  C   UNL d   1     -49.511  13.095  22.850  0.00  0.00     0.000 A 
ATOM     14  C   UNL d   1     -49.771  12.862  23.602  0.00  0.00     0.000 A 
ATOM     15  C   UNL d   1     -50.176  12.134  23.696  0.00  0.00     0.000 A 
ATOM     16  C   UNL d   1     -50.315  11.653  23.043  0.00  0.00     0.000 A 
ATOM     17  C   UNL d   1     -50.049  11.898  22.288  0.00  0.00     0.000 A 
ATOM     18  C   UNL d   1     -49.650  12.614  22.196  0.00  0.00     0.000 A 
ENDBRANCH   1  13
BRANCH   6  19
ATOM     19  O   UNL d   1     -48.259  12.419  23.017  0.00  0.00    -0.305 OA
BRANCH  19  20
ATOM     20  C   UNL d   1     -47.849  11.714  22.995  0.00  0.00     0.123 C 
ATOM     21  C   UNL d   1     -47.569  11.384  23.695  0.00  0.00     0.029 C 
ENDBRANCH  19  20
ENDBRANCH   6  19
TORSDOF 3
ENDMDL
MODEL 4
REMARK VINA RESULT:      -8.9      1.045      3.626
REMARK  3 active torsions:
REMARK  status: ('A' for Active; 'I' for Inactive)
REMARK    1  A    between atoms: C_8  and  C_1 
REMARK    2  A    between atoms: O_13  and  C_6 
REMARK    3  A    between atoms: C_17  and  O_13 
ROOT
ATOM      1  C   UNL d   1     -48.330  14.027  22.755  0.00  0.00     0.009 A 
ATOM      2  C   UNL d   1     -48.891  13.466  22.992  0.00  0.00     0.046 A 
ATOM      3  C   UNL d   1     -49.685  13.692  23.074  0.00  0.00     0.105 A 
ATOM      4  O   UNL d   1     -49.911  14.467  22.920  0.00  0.00    -0.273 OA
ATOM      5  C   UNL d   1     -48.552  14.803  22.601  0.00  0.00     0.069 A 
ATOM      6  C   UNL d   1     -48.669  12.690  23.146  0.00  0.00     0.102 A 
ATOM      7  C   UNL d   1     -49.342  15.027  22.682  0.00  0.00     0.300 A 
ATOM      8  C   UNL d   1     -50.248  13.139  23.309  0.00  0.00     0.025 A 
ATOM      9  C   UNL d   1     -49.229  12.134  23.382  0.00  0.00     0.025 A 
ATOM     10  O   UNL d   1     -49.571  15.808  22.528  0.00  0.00    -0.259 OA
ATOM     11  C   UNL d   1     -50.019  12.358  23.463  0.00  0.00     0.004 A 
ATOM     12  C   UNL d   1     -50.585  11.810  23.697  0.00  0.00     0.000 C 
ENDROOT
BRANCH   1  13
ATOM     13  C   UNL d   1     -47.536  13.801  22.674  0.00  0.00     0.000 A 
ATOM     14  C   UNL d   1     -47.014  13.893  23.312  0.00  0.00     0.000 A 
ATOM     15  C   UNL d   1     -46.212  13.665  23.229  0.00  0.00     0.000 A 
ATOM     16  C   UNL d   1     -45.943  13.352  22.517  0.00  0.00     0.000 A 
ATOM     17  C   UNL d   1     -46.478  13.264  21.880  0.00  0.00     0.000 A 
ATOM     18  C   UNL d   1     -47.268  13.488  21.961  0.00  0.00     0.000 A 
ENDBRANCH   1  13
BRANCH   6  19
ATOM     19  O   UNL d   1     -47.875  12.465  23.065  0.00  0.00    -0.305 OA
BRANCH  19  20
ATOM     20  C   UNL d   1     -47.673  11.676  23.025  0.00  0.00     0.123 C 
ATOM     21  C   UNL d   1     -47.392  11.294  23.698  0.00  0.00     0.029 C 
ENDBRANCH  19  20
ENDBRANCH   6  19
TORSDOF 3
ENDMDL
MODEL 5
REMARK VINA RESULT:      -8.9      0.910      2.421
REMARK  3 active torsions:
REMARK  status: ('A' for Active; 'I' for Inactive)
REMARK    1  A    between atoms: C_8  and  C_1 
REMARK    2  A    between atoms: O_13  and  C_6 
REMARK    3  A    between atoms: C_17  and  O_13 
ROOT
ATOM      1  C   UNL d   1     -48.039  13.980  22.709  0.00  0.00     0.009 A 
ATOM      2  C   UNL d   1     -47.747  13.246  22.957  0.00  0.00     0.046 A 
ATOM      3  C   UNL d   1     -46.933  13.152  23.086  0.00  0.00     0.105 A 
ATOM      4  O   UNL d   1     -46.422  13.785  22.968  0.00  0.00    -0.273 OA
ATOM      5  C   UNL d   1     -47.530  14.614  22.590  0.00  0.00     0.069 A 
ATOM      6  C   UNL d   1     -48.256  12.612  23.076  0.00  0.00     0.102 A 
ATOM      7  C   UNL d   1     -46.721  14.521  22.718  0.00  0.00     0.300 A 
ATOM      8  C   UNL d   1     -46.637  12.425  23.333  0.00  0.00     0.025 A 
ATOM      9  C   UNL d   1     -47.963  11.882  23.323  0.00  0.00     0.025 A 
ATOM     10  O   UNL d   1     -46.204  15.158  22.599  0.00  0.00    -0.259 OA
ATOM     11  C   UNL d   1     -47.153  11.788  23.452  0.00  0.00     0.004 A 
ATOM     12  C   UNL d   1     -46.852  11.064  23.698  0.00  0.00     0.000 C 
ENDROOT
BRANCH   1  13
ATOM     13  C   UNL d   1     -48.853  14.074  22.580  0.00  0.00     0.000 A 
ATOM     14  C   UNL d   1     -49.173  13.910  21.832  0.00  0.00     0.000 A 
ATOM     15  C   UNL d   1     -49.995  14.005  21.702  0.00  0.00     0.000 A 
ATOM     16  C   UNL d   1     -50.483  14.260  22.313  0.00  0.00     0.000 A 
ATOM     17  C   UNL d   1     -50.150  14.423  23.064  0.00  0.00     0.000 A 
ATOM     18  C   UNL d   1     -49.340  14.329  23.192  0.00  0.00     0.000 A 
ENDBRANCH   1  13
BRANCH   6  19
ATOM     19  O   UNL d   1     -49.069  12.706  22.947  0.00  0.00    -0.305 OA
BRANCH  19  20
ATOM     20  C   UNL d   1     -49.552  12.053  22.869  0.00  0.00     0.123 C 
ATOM     21  C   UNL d   1     -49.974  11.779  23.520  0.00  0.00     0.029 C 
ENDBRANCH  19  20
ENDBRANCH   6  19
TORSDOF 3
ENDMDL
MODEL 6
REMARK VINA RESULT:      -8.2      1.392      2.944
REMARK  3 active torsions:
REMARK  status: ('A' for Active; 'I' for Inactive)
REMARK    1  A    between atoms: C_8  and  C_1 
REMARK    2  A    between atoms: O_13  and  C_6 
REMARK    3  A    between atoms: C_17  and  O_13 
ROOT
ATOM      1  C   UNL d   1     -48.702  12.737  23.130  0.00  0.00     0.009 A 
ATOM      2  C   UNL d   1     -49.257  13.350  23.170  0.00  0.00     0.046 A 
ATOM      3  C   UNL d   1     -50.039  13.180  23.388  0.00  0.00     0.105 A 
ATOM      4  O   UNL d   1     -50.259  12.407  23.563  0.00  0.00    -0.273 OA
ATOM      5  C   UNL d   1     -48.919  11.964  23.304  0.00  0.00     0.069 A 
ATOM      6  C   UNL d   1     -49.040  14.123  22.995  0.00  0.00     0.102 A 
ATOM      7  C   UNL d   1     -49.697  11.795  23.521  0.00  0.00     0.300 A 
ATOM      8  C   UNL d   1     -50.595  13.786  23.429  0.00  0.00     0.025 A 
ATOM      9  C   UNL d   1     -49.594  14.732  23.036  0.00  0.00     0.025 A 
ATOM     10  O   UNL d   1     -49.920  11.016  23.698  0.00  0.00    -0.259 OA
ATOM     11  C   UNL d   1     -50.372  14.563  23.252  0.00  0.00     0.004 A 
ATOM     12  C   UNL d   1     -50.932  15.164  23.295  0.00  0.00     0.000 C 
ENDROOT
BRANCH   1  13
ATOM     13  C   UNL d   1     -47.920  12.906  22.912  0.00  0.00     0.000 A 
ATOM     14  C   UNL d   1     -47.360  13.088  23.496  0.00  0.00     0.000 A 
ATOM     15  C   UNL d   1     -46.570  13.260  23.275  0.00  0.00     0.000 A 
ATOM     16  C   UNL d   1     -46.351  13.247  22.482  0.00  0.00     0.000 A 
ATOM     17  C   UNL d   1     -46.924  13.062  21.901  0.00  0.00     0.000 A 
ATOM     18  C   UNL d   1     -47.702  12.893  22.118  0.00  0.00     0.000 A 
ENDBRANCH   1  13
BRANCH   6  19
ATOM     19  O   UNL d   1     -48.258  14.292  22.777  0.00  0.00    -0.305 OA
BRANCH  19  20
ATOM     20  C   UNL d   1     -47.986  15.061  22.782  0.00  0.00     0.123 C 
ATOM     21  C   UNL d   1     -48.004  15.503  22.089  0.00  0.00     0.029 C 
ENDBRANCH  19  20
ENDBRANCH   6  19
TORSDOF 3
ENDMDL
MODEL 7
REMARK VINA RESULT:      -7.1      1.532      2.875
REMARK  3 active torsions:
REMARK  status: ('A' for Active; 'I' for Inactive)
REMARK    1  A    between atoms: C_8  and  C_1 
REMARK    2  A    between atoms: O_13  and  C_6 
REMARK    3  A    between atoms: C_17  and  O_13 
ROOT
ATOM      1  C   UNL d   1     -48.370  13.875  22.809  0.00  0.00     0.009 A 
ATOM      2  C   UNL d   1     -49.049  14.297  23.026  0.00  0.00     0.046 A 
ATOM      3  C   UNL d   1     -49.041  15.125  23.003  0.00  0.00     0.105 A 
ATOM      4  O   UNL d   1     -48.363  15.525  22.765  0.00  0.00    -0.273 OA
ATOM      5  C   UNL d   1     -47.690  14.271  22.571  0.00  0.00     0.069 A 
ATOM      6  C   UNL d   1     -49.729  13.901  23.264  0.00  0.00     0.102 A 
ATOM      7  C   UNL d   1     -47.683  15.096  22.548  0.00  0.00     0.300 A 
ATOM      8  C   UNL d   1     -49.714  15.550  23.218  0.00  0.00     0.025 A 
ATOM      9  C   UNL d   1     -50.404  14.322  23.480  0.00  0.00     0.025 A 
ATOM     10  O   UNL d   1     -46.999  15.499  22.309  0.00  0.00    -0.259 OA
ATOM     11  C   UNL d   1     -50.396  15.147  23.457  0.00  0.00     0.004 A 
ATOM     12  C   UNL d   1     -51.065  15.575  23.671  0.00  0.00     0.000 C 
ENDROOT
BRANCH   1  13
ATOM     13  C   UNL d   1     -48.378  13.047  22.833  0.00  0.00     0.000 A 
ATOM     14  C   UNL d   1     -48.144  12.652  23.524  0.00  0.00     0.000 A 
ATOM     15  C   UNL d   1     -48.151  11.814  23.547  0.00  0.00     0.000 A 
ATOM     16  C   UNL d   1     -48.391  11.386  22.887  0.00  0.00     0.000 A 
ATOM     17  C   UNL d   1     -48.625  11.793  22.195  0.00  0.00     0.000 A 
ATOM     18  C   UNL d   1     -48.617  12.618  22.172  0.00  0.00     0.000 A 
ENDBRANCH   1  13
BRANCH   6  19
ATOM     19  O   UNL d   1     -49.736  13.072  23.288  0.00  0.00    -0.305 OA
BRANCH  19  20
ATOM     20  C   UNL d   1     -50.321  12.677  23.697  0.00  0.00     0.123 C 
ATOM     21  C   UNL d   1     -50.985  12.404  23.295  0.00  0.00     0.029 C 
ENDBRANCH  19  20
ENDBRANCH   6  19
TORSDOF 3
ENDMDL
