MODEL 1
REMARK VINA RESULT:      -7.5      0.000      0.000
REMARK  3 active torsions:
REMARK  status: ('A' for Active; 'I' for Inactive)
REMARK    1  A    between atoms: C_3  and  C_1 
REMARK    2  A    between atoms: C_5  and  C_3 
REMARK    3  A    between atoms: C_11  and  C_5 
ROOT
ATOM      1  C   UNL d   1     -48.244  12.649  23.289  0.00  0.00     0.109 C 
ATOM      2  C   UNL d   1     -48.234  11.830  23.330  0.00  0.00     0.105 C 
ATOM      3  N   UNL d   1     -48.219  11.006  23.374  0.00  0.00    -0.191 NA
ENDROOT
BRANCH   1   4
ATOM      4  C   UNL d   1     -48.891  13.033  22.947  0.00  0.00     0.192 A 
ATOM      5  N   UNL d   1     -49.357  13.632  23.301  0.00  0.00    -0.220 NA
ATOM      6  C   UNL d   1     -49.946  13.857  22.760  0.00  0.00     0.106 A 
ATOM      7  C   UNL d   1     -50.552  14.414  22.808  0.00  0.00     0.021 A 
ATOM      8  C   UNL d   1     -49.852  13.403  22.070  0.00  0.00     0.119 A 
ATOM      9  C   UNL d   1     -51.064  14.521  22.171  0.00  0.00     0.002 A 
ATOM     10  C   UNL d   1     -50.970  14.067  21.481  0.00  0.00     0.002 A 
ATOM     11  C   UNL d   1     -50.364  13.509  21.433  0.00  0.00     0.026 A 
ATOM     12  O   UNL d   1     -49.204  12.895  22.181  0.00  0.00    -0.287 OA
ENDBRANCH   1   4
BRANCH   1  13
ATOM     13  C   UNL d   1     -47.612  13.088  23.585  0.00  0.00     0.014 C 
BRANCH  13  14
ATOM     14  C   UNL d   1     -46.876  13.062  23.209  0.00  0.00     0.004 A 
ATOM     15  C   UNL d   1     -46.626  13.709  22.764  0.00  0.00     0.021 A 
ATOM     16  C   UNL d   1     -45.890  13.683  22.387  0.00  0.00     0.099 A 
ATOM     17  N   UNL d   1     -45.413  13.014  22.458  0.00  0.00    -0.242 NA
ATOM     18  C   UNL d   1     -45.670  12.358  22.910  0.00  0.00     0.099 A 
ATOM     19  C   UNL d   1     -46.407  12.393  23.283  0.00  0.00     0.021 A 
ENDBRANCH  13  14
ENDBRANCH   1  13
TORSDOF 3
ENDMDL
MODEL 2
REMARK VINA RESULT:      -7.4      1.206      3.922
REMARK  3 active torsions:
REMARK  status: ('A' for Active; 'I' for Inactive)
REMARK    1  A    between atoms: C_3  and  C_1 
REMARK    2  A    between atoms: C_5  and  C_3 
REMARK    3  A    between atoms: C_11  and  C_5 
ROOT
ATOM      1  C   UNL d   1     -49.224  13.153  22.652  0.00  0.00     0.109 C 
ATOM      2  C   UNL d   1     -49.450  13.183  21.865  0.00  0.00     0.105 C 
ATOM      3  N   UNL d   1     -49.683  13.215  21.074  0.00  0.00    -0.191 NA
ENDROOT
BRANCH   1   4
ATOM      4  C   UNL d   1     -48.492  12.826  22.855  0.00  0.00     0.192 A 
ATOM      5  N   UNL d   1     -48.366  12.106  23.263  0.00  0.00    -0.220 NA
ATOM      6  C   UNL d   1     -47.548  11.994  23.347  0.00  0.00     0.106 A 
ATOM      7  C   UNL d   1     -47.108  11.390  23.698  0.00  0.00     0.021 A 
ATOM      8  C   UNL d   1     -47.160  12.639  22.994  0.00  0.00     0.119 A 
ATOM      9  C   UNL d   1     -46.285  11.428  23.698  0.00  0.00     0.002 A 
ATOM     10  C   UNL d   1     -45.897  12.073  23.345  0.00  0.00     0.002 A 
ATOM     11  C   UNL d   1     -46.337  12.677  22.995  0.00  0.00     0.026 A 
ATOM     12  O   UNL d   1     -47.738  13.153  22.691  0.00  0.00    -0.287 OA
ENDBRANCH   1   4
BRANCH   1  13
ATOM     13  C   UNL d   1     -49.722  13.449  23.240  0.00  0.00     0.014 C 
BRANCH  13  14
ATOM     14  C   UNL d   1     -49.988  14.231  23.202  0.00  0.00     0.004 A 
ATOM     15  C   UNL d   1     -50.776  14.381  23.010  0.00  0.00     0.021 A 
ATOM     16  C   UNL d   1     -51.042  15.163  22.972  0.00  0.00     0.099 A 
ATOM     17  N   UNL d   1     -50.522  15.785  23.126  0.00  0.00    -0.242 NA
ATOM     18  C   UNL d   1     -49.724  15.630  23.321  0.00  0.00     0.099 A 
ATOM     19  C   UNL d   1     -49.466  14.845  23.357  0.00  0.00     0.021 A 
ENDBRANCH  13  14
ENDBRANCH   1  13
TORSDOF 3
ENDMDL
MODEL 3
REMARK VINA RESULT:      -6.7      1.182      4.057
REMARK  3 active torsions:
REMARK  status: ('A' for Active; 'I' for Inactive)
REMARK    1  A    between atoms: C_3  and  C_1 
REMARK    2  A    between atoms: C_5  and  C_3 
REMARK    3  A    between atoms: C_11  and  C_5 
ROOT
ATOM      1  C   UNL d   1     -48.619  13.934  22.972  0.00  0.00     0.109 C 
ATOM      2  C   UNL d   1     -48.716  14.746  22.913  0.00  0.00     0.105 C 
ATOM      3  N   UNL d   1     -48.820  15.562  22.854  0.00  0.00    -0.191 NA
ENDROOT
BRANCH   1   4
ATOM      4  C   UNL d   1     -47.861  13.608  22.919  0.00  0.00     0.192 A 
ATOM      5  N   UNL d   1     -47.575  12.944  23.340  0.00  0.00    -0.220 NA
ATOM      6  C   UNL d   1     -46.786  12.813  23.114  0.00  0.00     0.106 A 
ATOM      7  C   UNL d   1     -46.236  12.245  23.347  0.00  0.00     0.021 A 
ATOM      8  C   UNL d   1     -46.578  13.390  22.554  0.00  0.00     0.119 A 
ATOM      9  C   UNL d   1     -45.477  12.250  23.022  0.00  0.00     0.002 A 
ATOM     10  C   UNL d   1     -45.269  12.827  22.462  0.00  0.00     0.002 A 
ATOM     11  C   UNL d   1     -45.820  13.396  22.229  0.00  0.00     0.026 A 
ATOM     12  O   UNL d   1     -47.236  13.881  22.431  0.00  0.00    -0.287 OA
ENDBRANCH   1   4
BRANCH   1  13
ATOM     13  C   UNL d   1     -49.273  13.444  23.084  0.00  0.00     0.014 C 
BRANCH  13  14
ATOM     14  C   UNL d   1     -49.859  13.395  22.503  0.00  0.00     0.004 A 
ATOM     15  C   UNL d   1     -49.815  12.800  21.933  0.00  0.00     0.021 A 
ATOM     16  C   UNL d   1     -50.401  12.751  21.352  0.00  0.00     0.099 A 
ATOM     17  N   UNL d   1     -51.022  13.294  21.344  0.00  0.00    -0.242 NA
ATOM     18  C   UNL d   1     -51.064  13.896  21.923  0.00  0.00     0.099 A 
ATOM     19  C   UNL d   1     -50.474  13.938  22.501  0.00  0.00     0.021 A 
ENDBRANCH  13  14
ENDBRANCH   1  13
TORSDOF 3
ENDMDL
MODEL 4
REMARK VINA RESULT:      -6.2      8.265     10.031
REMARK  3 active torsions:
REMARK  status: ('A' for Active; 'I' for Inactive)
REMARK    1  A    between atoms: C_3  and  C_1 
REMARK    2  A    between atoms: C_5  and  C_3 
REMARK    3  A    between atoms: C_11  and  C_5 
ROOT
ATOM      1  C   UNL d   1     -40.319  14.707  17.685  0.00  0.00     0.109 C 
ATOM      2  C   UNL d   1     -40.825  15.038  17.130  0.00  0.00     0.105 C 
ATOM      3  N   UNL d   1     -41.330  15.368  16.567  0.00  0.00    -0.191 NA
ENDROOT
BRANCH   1   4
ATOM      4  C   UNL d   1     -40.466  14.822  18.491  0.00  0.00     0.192 A 
ATOM      5  N   UNL d   1     -40.544  14.226  19.072  0.00  0.00    -0.220 NA
ATOM      6  C   UNL d   1     -40.687  14.592  19.803  0.00  0.00     0.106 A 
ATOM      7  C   UNL d   1     -40.808  14.282  20.558  0.00  0.00     0.021 A 
ATOM      8  C   UNL d   1     -40.700  15.414  19.684  0.00  0.00     0.119 A 
ATOM      9  C   UNL d   1     -40.940  14.790  21.195  0.00  0.00     0.002 A 
ATOM     10  C   UNL d   1     -40.953  15.612  21.075  0.00  0.00     0.002 A 
ATOM     11  C   UNL d   1     -40.832  15.922  20.320  0.00  0.00     0.026 A 
ATOM     12  O   UNL d   1     -40.564  15.560  18.878  0.00  0.00    -0.287 OA
ENDBRANCH   1   4
BRANCH   1  13
ATOM     13  C   UNL d   1     -39.668  14.263  17.443  0.00  0.00     0.014 C 
BRANCH  13  14
ATOM     14  C   UNL d   1     -39.090  14.604  16.960  0.00  0.00     0.004 A 
ATOM     15  C   UNL d   1     -38.972  14.310  16.199  0.00  0.00     0.021 A 
ATOM     16  C   UNL d   1     -38.393  14.651  15.717  0.00  0.00     0.099 A 
ATOM     17  N   UNL d   1     -37.940  15.281  15.998  0.00  0.00    -0.242 NA
ATOM     18  C   UNL d   1     -38.062  15.578  16.770  0.00  0.00     0.099 A 
ATOM     19  C   UNL d   1     -38.642  15.230  17.246  0.00  0.00     0.021 A 
ENDBRANCH  13  14
ENDBRANCH   1  13
TORSDOF 3
ENDMDL
MODEL 5
REMARK VINA RESULT:      -5.5      8.222      9.464
REMARK  3 active torsions:
REMARK  status: ('A' for Active; 'I' for Inactive)
REMARK    1  A    between atoms: C_3  and  C_1 
REMARK    2  A    between atoms: C_5  and  C_3 
REMARK    3  A    between atoms: C_11  and  C_5 
ROOT
ATOM      1  C   UNL d   1     -40.516  15.212  20.204  0.00  0.00     0.109 C 
ATOM      2  C   UNL d   1     -40.833  14.602  20.651  0.00  0.00     0.105 C 
ATOM      3  N   UNL d   1     -41.152  13.992  21.105  0.00  0.00    -0.191 NA
ENDROOT
BRANCH   1   4
ATOM      4  C   UNL d   1     -40.437  15.122  19.386  0.00  0.00     0.192 A 
ATOM      5  N   UNL d   1     -40.756  15.624  18.798  0.00  0.00    -0.220 NA
ATOM      6  C   UNL d   1     -40.541  15.324  18.054  0.00  0.00     0.106 A 
ATOM      7  C   UNL d   1     -40.698  15.588  17.289  0.00  0.00     0.021 A 
ATOM      8  C   UNL d   1     -40.089  14.637  18.173  0.00  0.00     0.119 A 
ATOM      9  C   UNL d   1     -40.406  15.168  16.641  0.00  0.00     0.002 A 
ATOM     10  C   UNL d   1     -39.954  14.481  16.760  0.00  0.00     0.002 A 
ATOM     11  C   UNL d   1     -39.797  14.217  17.526  0.00  0.00     0.026 A 
ATOM     12  O   UNL d   1     -40.023  14.509  18.991  0.00  0.00    -0.287 OA
ENDBRANCH   1   4
BRANCH   1  13
ATOM     13  C   UNL d   1     -40.275  15.913  20.567  0.00  0.00     0.014 C 
BRANCH  13  14
ATOM     14  C   UNL d   1     -39.654  15.904  21.114  0.00  0.00     0.004 A 
ATOM     15  C   UNL d   1     -39.824  15.877  21.920  0.00  0.00     0.021 A 
ATOM     16  C   UNL d   1     -39.203  15.868  22.466  0.00  0.00     0.099 A 
ATOM     17  N   UNL d   1     -38.421  15.886  22.203  0.00  0.00    -0.242 NA
ATOM     18  C   UNL d   1     -38.252  15.913  21.385  0.00  0.00     0.099 A 
ATOM     19  C   UNL d   1     -38.878  15.922  20.845  0.00  0.00     0.021 A 
ENDBRANCH  13  14
ENDBRANCH   1  13
TORSDOF 3
ENDMDL
MODEL 6
REMARK VINA RESULT:      -5.3      8.418      9.743
REMARK  3 active torsions:
REMARK  status: ('A' for Active; 'I' for Inactive)
REMARK    1  A    between atoms: C_3  and  C_1 
REMARK    2  A    between atoms: C_5  and  C_3 
REMARK    3  A    between atoms: C_11  and  C_5 
ROOT
ATOM      1  C   UNL d   1     -40.093  15.394  20.456  0.00  0.00     0.109 C 
ATOM      2  C   UNL d   1     -40.850  15.656  20.630  0.00  0.00     0.105 C 
ATOM      3  N   UNL d   1     -41.613  15.922  20.799  0.00  0.00    -0.191 NA
ENDROOT
BRANCH   1   4
ATOM      4  C   UNL d   1     -39.659  14.988  21.031  0.00  0.00     0.192 A 
ATOM      5  N   UNL d   1     -38.930  15.226  21.364  0.00  0.00    -0.220 NA
ATOM      6  C   UNL d   1     -38.696  14.653  21.917  0.00  0.00     0.106 A 
ATOM      7  C   UNL d   1     -38.034  14.598  22.405  0.00  0.00     0.021 A 
ATOM      8  C   UNL d   1     -39.275  14.056  21.932  0.00  0.00     0.119 A 
ATOM      9  C   UNL d   1     -37.947  13.951  22.909  0.00  0.00     0.002 A 
ATOM     10  C   UNL d   1     -38.526  13.354  22.925  0.00  0.00     0.002 A 
ATOM     11  C   UNL d   1     -39.188  13.409  22.436  0.00  0.00     0.026 A 
ATOM     12  O   UNL d   1     -39.869  14.258  21.389  0.00  0.00    -0.287 OA
ENDBRANCH   1   4
BRANCH   1  13
ATOM     13  C   UNL d   1     -39.764  15.534  19.713  0.00  0.00     0.014 C 
BRANCH  13  14
ATOM     14  C   UNL d   1     -40.143  15.254  19.033  0.00  0.00     0.004 A 
ATOM     15  C   UNL d   1     -40.543  15.784  18.544  0.00  0.00     0.021 A 
ATOM     16  C   UNL d   1     -40.922  15.503  17.865  0.00  0.00     0.099 A 
ATOM     17  N   UNL d   1     -40.896  14.700  17.680  0.00  0.00    -0.242 NA
ATOM     18  C   UNL d   1     -40.490  14.165  18.176  0.00  0.00     0.099 A 
ATOM     19  C   UNL d   1     -40.114  14.453  18.854  0.00  0.00     0.021 A 
ENDBRANCH  13  14
ENDBRANCH   1  13
TORSDOF 3
ENDMDL
MODEL 7
REMARK VINA RESULT:      -5.3      9.229     10.219
REMARK  3 active torsions:
REMARK  status: ('A' for Active; 'I' for Inactive)
REMARK    1  A    between atoms: C_3  and  C_1 
REMARK    2  A    between atoms: C_5  and  C_3 
REMARK    3  A    between atoms: C_11  and  C_5 
ROOT
ATOM      1  C   UNL d   1     -40.081  15.212  18.751  0.00  0.00     0.109 C 
ATOM      2  C   UNL d   1     -40.465  14.570  18.414  0.00  0.00     0.105 C 
ATOM      3  N   UNL d   1     -40.851  13.928  18.070  0.00  0.00    -0.191 NA
ENDROOT
BRANCH   1   4
ATOM      4  C   UNL d   1     -39.903  15.204  19.558  0.00  0.00     0.192 A 
ATOM      5  N   UNL d   1     -40.093  15.798  20.116  0.00  0.00    -0.220 NA
ATOM      6  C   UNL d   1     -39.808  15.559  20.858  0.00  0.00     0.106 A 
ATOM      7  C   UNL d   1     -39.837  15.920  21.600  0.00  0.00     0.021 A 
ATOM      8  C   UNL d   1     -39.441  14.820  20.769  0.00  0.00     0.119 A 
ATOM      9  C   UNL d   1     -39.500  15.545  22.253  0.00  0.00     0.002 A 
ATOM     10  C   UNL d   1     -39.132  14.805  22.164  0.00  0.00     0.002 A 
ATOM     11  C   UNL d   1     -39.104  14.445  21.422  0.00  0.00     0.026 A 
ATOM     12  O   UNL d   1     -39.496  14.597  19.971  0.00  0.00    -0.287 OA
ENDBRANCH   1   4
BRANCH   1  13
ATOM     13  C   UNL d   1     -39.873  15.863  18.289  0.00  0.00     0.014 C 
BRANCH  13  14
ATOM     14  C   UNL d   1     -39.352  15.771  17.654  0.00  0.00     0.004 A 
ATOM     15  C   UNL d   1     -39.651  15.723  16.887  0.00  0.00     0.021 A 
ATOM     16  C   UNL d   1     -39.130  15.630  16.252  0.00  0.00     0.099 A 
ATOM     17  N   UNL d   1     -38.317  15.586  16.388  0.00  0.00    -0.242 NA
ATOM     18  C   UNL d   1     -38.016  15.635  17.166  0.00  0.00     0.099 A 
ATOM     19  C   UNL d   1     -38.544  15.728  17.796  0.00  0.00     0.021 A 
ENDBRANCH  13  14
ENDBRANCH   1  13
TORSDOF 3
ENDMDL
MODEL 8
REMARK VINA RESULT:      -5.3      8.776     10.425
REMARK  3 active torsions:
REMARK  status: ('A' for Active; 'I' for Inactive)
REMARK    1  A    between atoms: C_3  and  C_1 
REMARK    2  A    between atoms: C_5  and  C_3 
REMARK    3  A    between atoms: C_11  and  C_5 
ROOT
ATOM      1  C   UNL d   1     -40.155  14.740  18.721  0.00  0.00     0.109 C 
ATOM      2  C   UNL d   1     -40.739  14.255  19.029  0.00  0.00     0.105 C 
ATOM      3  N   UNL d   1     -41.329  13.772  19.343  0.00  0.00    -0.191 NA
ENDROOT
BRANCH   1   4
ATOM      4  C   UNL d   1     -39.664  14.456  18.118  0.00  0.00     0.192 A 
ATOM      5  N   UNL d   1     -39.553  14.801  17.364  0.00  0.00    -0.220 NA
ATOM      6  C   UNL d   1     -39.014  14.332  16.941  0.00  0.00     0.106 A 
ATOM      7  C   UNL d   1     -38.703  14.403  16.180  0.00  0.00     0.021 A 
ATOM      8  C   UNL d   1     -38.787  13.696  17.425  0.00  0.00     0.119 A 
ATOM      9  C   UNL d   1     -38.167  13.842  15.901  0.00  0.00     0.002 A 
ATOM     10  C   UNL d   1     -37.940  13.206  16.385  0.00  0.00     0.002 A 
ATOM     11  C   UNL d   1     -38.251  13.135  17.146  0.00  0.00     0.026 A 
ATOM     12  O   UNL d   1     -39.184  13.769  18.151  0.00  0.00    -0.287 OA
ENDBRANCH   1   4
BRANCH   1  13
ATOM     13  C   UNL d   1     -40.055  15.507  19.008  0.00  0.00     0.014 C 
BRANCH  13  14
ATOM     14  C   UNL d   1     -39.904  15.632  19.811  0.00  0.00     0.004 A 
ATOM     15  C   UNL d   1     -40.531  15.795  20.321  0.00  0.00     0.021 A 
ATOM     16  C   UNL d   1     -40.380  15.919  21.124  0.00  0.00     0.099 A 
ATOM     17  N   UNL d   1     -39.607  15.881  21.410  0.00  0.00    -0.242 NA
ATOM     18  C   UNL d   1     -38.972  15.715  20.891  0.00  0.00     0.099 A 
ATOM     19  C   UNL d   1     -39.132  15.592  20.089  0.00  0.00     0.021 A 
ENDBRANCH  13  14
ENDBRANCH   1  13
TORSDOF 3
ENDMDL
