MODEL 1
REMARK VINA RESULT:      61.7      0.000      0.000
REMARK  5 active torsions:
REMARK  status: ('A' for Active; 'I' for Inactive)
REMARK    1  A    between atoms: C_3  and  C_1 
REMARK    2  A    between atoms: N_2  and  C_11 
REMARK    3  A    between atoms: N_6  and  C_3 
REMARK    4  A    between atoms: C_14  and  C_5 
REMARK    5  A    between atoms: C_10  and  N_7 
ROOT
ATOM      1  C   UNL d   1     -54.802-102.138 -40.710  0.00  0.00     0.143 C 
ATOM      2  S   UNL d   1     -54.716-102.878 -41.028  0.00  0.00    -0.057 SA
ENDROOT
BRANCH   1   3
ATOM      3  C   UNL d   1     -54.870-101.486 -41.176  0.00  0.00     0.126 A 
ATOM      4  O   UNL d   1     -54.956-101.418 -41.998  0.00  0.00    -0.305 OA
ATOM      5  C   UNL d   1     -54.999-100.607 -42.174  0.00  0.00     0.100 A 
ATOM      6  C   UNL d   1     -54.943-100.203 -41.496  0.00  0.00     0.027 A 
ATOM      7  C   UNL d   1     -54.861-100.731 -40.861  0.00  0.00     0.029 A 
BRANCH   5   8
ATOM      8  C   UNL d   1     -55.083-100.212 -42.874  0.00  0.00     0.023 A 
ATOM      9  C   UNL d   1     -55.045 -99.380 -42.903  0.00  0.00     0.004 A 
ATOM     10  C   UNL d   1     -55.132 -98.989 -43.626  0.00  0.00     0.024 A 
ATOM     11  C   UNL d   1     -55.257 -99.409 -44.327  0.00  0.00     0.127 A 
ATOM     12  C   UNL d   1     -55.293-100.249 -44.282  0.00  0.00     0.024 A 
ATOM     13  C   UNL d   1     -55.208-100.633 -43.575  0.00  0.00     0.004 A 
BRANCH  11  14
ATOM     14  N   UNL d   1     -55.341 -99.013 -45.028  0.00  0.00    -0.114 N 
ATOM     15  O   UNL d   1     -54.713 -98.811 -45.537  0.00  0.00    -0.532 OA
ATOM     16  O   UNL d   1     -56.057 -98.756 -45.334  0.00  0.00    -0.532 OA
ENDBRANCH  11  14
ENDBRANCH   5   8
ENDBRANCH   1   3
BRANCH   1  17
ATOM     17  N   UNL d   1     -54.822-102.039 -39.864  0.00  0.00    -0.291 N 
ATOM     18  C   UNL d   1     -54.955-102.698 -39.374  0.00  0.00     0.100 A 
ATOM     19  C   UNL d   1     -54.976-102.611 -38.556  0.00  0.00     0.100 A 
ATOM     20  N   UNL d   1     -54.863-101.860 -38.225  0.00  0.00    -0.301 N 
ATOM     21  C   UNL d   1     -54.734-101.221 -38.704  0.00  0.00     0.100 A 
ATOM     22  C   UNL d   1     -54.713-101.309 -39.526  0.00  0.00     0.100 A 
BRANCH  20  23
ATOM     23  C   UNL d   1     -54.884-101.774 -37.406  0.00  0.00     0.064 A 
ATOM     24  C   UNL d   1     -54.810-101.003 -37.109  0.00  0.00     0.016 A 
ATOM     25  C   UNL d   1     -54.719-100.338 -37.599  0.00  0.00     0.002 C 
ATOM     26  C   UNL d   1     -54.829-100.895 -36.296  0.00  0.00     0.001 A 
ATOM     27  C   UNL d   1     -54.920-101.548 -35.781  0.00  0.00     0.000 A 
ATOM     28  C   UNL d   1     -54.990-102.295 -36.091  0.00  0.00     0.002 A 
ATOM     29  C   UNL d   1     -54.972-102.407 -36.901  0.00  0.00     0.018 A 
ENDBRANCH  20  23
ENDBRANCH   1  17
TORSDOF 5
ENDMDL
