MODEL 1
REMARK VINA RESULT:      -1.5      0.000      0.000
REMARK  6 active torsions:
REMARK  status: ('A' for Active; 'I' for Inactive)
REMARK    1  A    between atoms: S_10  and  C_4 
REMARK    2  A    between atoms: C_16  and  S_10 
REMARK    3  A    between atoms: C_11  and  C_14 
REMARK    4  A    between atoms: O_20  and  C_13 
REMARK    5  A    between atoms: C_14  and  C_16 
REMARK    6  A    between atoms: O_21  and  C_15 
ROOT
ATOM      1  C   UNL d   1      33.000  18.911 -23.614  0.00  0.00     0.079 C 
ENDROOT
BRANCH   1   2
ATOM      2  C   UNL d   1      32.815  18.577 -24.348  0.00  0.00     0.202 C 
ATOM      3  O   UNL d   1      33.096  18.941 -25.049  0.00  0.00    -0.286 OA
BRANCH   2   4
ATOM      4  C   UNL d   1      32.355  17.888 -24.402  0.00  0.00     0.042 A 
ATOM      5  C   UNL d   1      32.687  17.143 -24.245  0.00  0.00     0.029 A 
ATOM      6  C   UNL d   1      32.219  16.456 -24.301  0.00  0.00     0.116 A 
ATOM      7  C   UNL d   1      31.423  16.525 -24.513  0.00  0.00     0.116 A 
ATOM      8  C   UNL d   1      31.092  17.256 -24.669  0.00  0.00     0.026 A 
ATOM      9  C   UNL d   1      31.560  17.944 -24.613  0.00  0.00     0.005 A 
BRANCH   6  10
ATOM     10  O   UNL d   1      32.546  15.712 -24.145  0.00  0.00    -0.326 OA
ATOM     11  C   UNL d   1      33.149  15.640 -23.573  0.00  0.00     0.181 C 
ENDBRANCH   6  10
BRANCH   7  12
ATOM     12  O   UNL d   1      30.947  15.839 -24.571  0.00  0.00    -0.326 OA
ATOM     13  C   UNL d   1      30.157  15.909 -24.827  0.00  0.00     0.181 C 
ENDBRANCH   7  12
ENDBRANCH   2   4
ENDBRANCH   1   2
BRANCH   1  14
ATOM     14  S   UNL d   1      33.235  19.697 -23.565  0.00  0.00    -0.063 SA
BRANCH  14  15
ATOM     15  C   UNL d   1      33.236  20.499 -23.331  0.00  0.00     0.132 A 
ATOM     16  N   UNL d   1      33.235  20.677 -22.573  0.00  0.00    -0.050 N 
ATOM     17  C   UNL d   1      33.236  21.437 -22.359  0.00  0.00     0.753 A 
ATOM     18  N   UNL d   1      33.232  20.298 -21.271  0.00  0.00    -0.130 NA
ATOM     19  N   UNL d   1      33.235  21.632 -21.602  0.00  0.00    -0.038 NA
ATOM     20  N   UNL d   1      33.238  21.993 -22.903  0.00  0.00    -0.059 NA
ATOM     21  C   UNL d   1      33.233  21.054 -21.059  0.00  0.00     0.201 A 
ATOM     22  C   UNL d   1      33.232  21.237 -20.290  0.00  0.00     0.044 C 
ATOM     23  C   UNL d   1      33.239  21.808 -23.664  0.00  0.00     0.102 A 
ATOM     24  C   UNL d   1      33.238  21.052 -23.876  0.00  0.00     0.046 A 
ATOM     25  C   UNL d   1      33.241  22.378 -24.208  0.00  0.00     0.021 C 
ENDBRANCH  14  15
ENDBRANCH   1  14
TORSDOF 6
ENDMDL
MODEL 2
REMARK VINA RESULT:      -1.2      2.537      5.395
REMARK  6 active torsions:
REMARK  status: ('A' for Active; 'I' for Inactive)
REMARK    1  A    between atoms: S_10  and  C_4 
REMARK    2  A    between atoms: C_16  and  S_10 
REMARK    3  A    between atoms: C_11  and  C_14 
REMARK    4  A    between atoms: O_20  and  C_13 
REMARK    5  A    between atoms: C_14  and  C_16 
REMARK    6  A    between atoms: O_21  and  C_15 
ROOT
ATOM      1  C   UNL d   1      32.495  20.006 -22.183  0.00  0.00     0.079 C 
ENDROOT
BRANCH   1   2
ATOM      2  C   UNL d   1      32.850  20.750 -22.265  0.00  0.00     0.202 C 
ATOM      3  O   UNL d   1      33.239  20.943 -22.982  0.00  0.00    -0.286 OA
BRANCH   2   4
ATOM      4  C   UNL d   1      32.826  21.306 -21.650  0.00  0.00     0.042 A 
ATOM      5  C   UNL d   1      32.682  22.108 -21.806  0.00  0.00     0.029 A 
ATOM      6  C   UNL d   1      32.660  22.660 -21.183  0.00  0.00     0.116 A 
ATOM      7  C   UNL d   1      32.783  22.399 -20.408  0.00  0.00     0.116 A 
ATOM      8  C   UNL d   1      32.925  21.611 -20.248  0.00  0.00     0.026 A 
ATOM      9  C   UNL d   1      32.947  21.058 -20.872  0.00  0.00     0.005 A 
BRANCH   6  10
ATOM     10  O   UNL d   1      32.517  23.460 -21.336  0.00  0.00    -0.326 OA
ATOM     11  C   UNL d   1      32.121  23.680 -22.037  0.00  0.00     0.181 C 
ENDBRANCH   6  10
BRANCH   7  12
ATOM     12  O   UNL d   1      32.762  22.948 -19.777  0.00  0.00    -0.326 OA
ATOM     13  C   UNL d   1      33.154  22.768 -19.064  0.00  0.00     0.181 C 
ENDBRANCH   7  12
ENDBRANCH   2   4
ENDBRANCH   1   2
BRANCH   1  14
ATOM     14  S   UNL d   1      32.583  19.439 -22.771  0.00  0.00    -0.063 SA
BRANCH  14  15
ATOM     15  C   UNL d   1      32.386  18.814 -23.290  0.00  0.00     0.132 A 
ATOM     16  N   UNL d   1      32.601  18.087 -23.113  0.00  0.00    -0.050 N 
ATOM     17  C   UNL d   1      32.413  17.502 -23.607  0.00  0.00     0.753 A 
ATOM     18  N   UNL d   1      33.212  17.206 -22.282  0.00  0.00    -0.130 NA
ATOM     19  N   UNL d   1      32.621  16.766 -23.443  0.00  0.00    -0.038 NA
ATOM     20  N   UNL d   1      32.017  17.657 -24.260  0.00  0.00    -0.059 NA
ATOM     21  C   UNL d   1      33.023  16.624 -22.775  0.00  0.00     0.201 A 
ATOM     22  C   UNL d   1      33.241  15.885 -22.597  0.00  0.00     0.044 C 
ATOM     23  C   UNL d   1      31.804  18.389 -24.432  0.00  0.00     0.102 A 
ATOM     24  C   UNL d   1      31.992  18.972 -23.940  0.00  0.00     0.046 A 
ATOM     25  C   UNL d   1      31.404  18.537 -25.095  0.00  0.00     0.021 C 
ENDBRANCH  14  15
ENDBRANCH   1  14
TORSDOF 6
ENDMDL
