MODEL 1
REMARK VINA RESULT:      -1.8      0.000      0.000
REMARK  10 active torsions:
REMARK  status: ('A' for Active; 'I' for Inactive)
REMARK    1  A    between atoms: C_14  and  N_1 
REMARK    2  A    between atoms: N_9  and  C_2 
REMARK    3  A    between atoms: C_6  and  C_5 
REMARK    4  A    between atoms: C_7  and  C_6 
REMARK       I    between atoms: N_8  and  C_7 
REMARK    5  A    between atoms: C_10  and  N_8 
REMARK    6  A    between atoms: C_16  and  N_9 
REMARK    7  A    between atoms: O_15  and  C_13 
REMARK    8  A    between atoms: C_19  and  O_15 
REMARK    9  A    between atoms: C_21  and  C_19 
REMARK   10  A    between atoms: C_22  and  C_21 
ROOT
ATOM      1  C   UNL d   1      33.023  18.506 -23.753  0.00  0.00     0.280 C 
ATOM      2  N   UNL d   1      32.596  17.934 -24.162  0.00  0.00    -0.206 NA
ATOM      3  O   UNL d   1      33.235  18.379 -22.969  0.00  0.00    -0.265 OA
ENDROOT
BRANCH   1   4
ATOM      4  C   UNL d   1      33.234  19.205 -24.137  0.00  0.00     0.074 C 
BRANCH   4   5
ATOM      5  C   UNL d   1      33.234  19.921 -23.733  0.00  0.00     0.093 A 
ATOM      6  C   UNL d   1      33.237  20.671 -24.074  0.00  0.00     0.272 A 
ATOM      7  N   UNL d   1      33.236  21.226 -23.468  0.00  0.00    -0.252 N 
ATOM      8  O   UNL d   1      33.240  20.836 -24.879  0.00  0.00    -0.266 OA
ATOM      9  C   UNL d   1      33.232  20.822 -22.753  0.00  0.00     0.182 A 
ATOM     10  S   UNL d   1      33.231  20.009 -22.910  0.00  0.00    -0.045 SA
BRANCH   7  11
ATOM     11  C   UNL d   1      33.238  22.044 -23.556  0.00  0.00     0.085 C 
ATOM     12  C   UNL d   1      33.069  22.376 -24.298  0.00  0.00     0.021 C 
ENDBRANCH   7  11
BRANCH   9  13
ATOM     13  N   UNL d   1      33.230  21.164 -21.999  0.00  0.00    -0.221 NA
BRANCH  13  14
ATOM     14  C   UNL d   1      32.916  20.750 -21.365  0.00  0.00     0.101 C 
ATOM     15  C   UNL d   1      32.713  21.144 -20.673  0.00  0.00     0.022 C 
ENDBRANCH  13  14
ENDBRANCH   9  13
ENDBRANCH   4   5
ENDBRANCH   1   4
BRANCH   2  16
ATOM     16  C   UNL d   1      32.381  17.234 -23.789  0.00  0.00     0.107 A 
ATOM     17  C   UNL d   1      31.595  16.964 -23.829  0.00  0.00     0.118 A 
ATOM     18  C   UNL d   1      31.381  16.261 -23.453  0.00  0.00     0.026 A 
ATOM     19  C   UNL d   1      31.952  15.831 -23.039  0.00  0.00     0.002 A 
ATOM     20  C   UNL d   1      32.730  16.098 -22.999  0.00  0.00     0.002 A 
ATOM     21  C   UNL d   1      32.945  16.798 -23.372  0.00  0.00     0.021 A 
BRANCH  17  22
ATOM     22  O   UNL d   1      31.032  17.397 -24.243  0.00  0.00    -0.304 OA
BRANCH  22  23
ATOM     23  C   UNL d   1      30.251  17.138 -24.263  0.00  0.00     0.123 C 
BRANCH  23  24
ATOM     24  C   UNL d   1      29.679  17.580 -24.644  0.00  0.00     0.027 C 
BRANCH  24  25
ATOM     25  C   UNL d   1      28.884  17.545 -24.399  0.00  0.00     0.002 C 
ATOM     26  C   UNL d   1      28.335  18.059 -24.738  0.00  0.00     0.000 C 
ENDBRANCH  24  25
ENDBRANCH  23  24
ENDBRANCH  22  23
ENDBRANCH  17  22
ENDBRANCH   2  16
TORSDOF 10
ENDMDL
MODEL 2
REMARK VINA RESULT:      -1.6      1.161      4.998
REMARK  10 active torsions:
REMARK  status: ('A' for Active; 'I' for Inactive)
REMARK    1  A    between atoms: C_14  and  N_1 
REMARK    2  A    between atoms: N_9  and  C_2 
REMARK    3  A    between atoms: C_6  and  C_5 
REMARK    4  A    between atoms: C_7  and  C_6 
REMARK       I    between atoms: N_8  and  C_7 
REMARK    5  A    between atoms: C_10  and  N_8 
REMARK    6  A    between atoms: C_16  and  N_9 
REMARK    7  A    between atoms: O_15  and  C_13 
REMARK    8  A    between atoms: C_19  and  O_15 
REMARK    9  A    between atoms: C_21  and  C_19 
REMARK   10  A    between atoms: C_22  and  C_21 
ROOT
ATOM      1  C   UNL d   1      33.189  19.558 -24.048  0.00  0.00     0.280 C 
ATOM      2  N   UNL d   1      33.240  20.207 -23.544  0.00  0.00    -0.206 NA
ATOM      3  O   UNL d   1      33.133  19.672 -24.860  0.00  0.00    -0.265 OA
ENDROOT
BRANCH   1   4
ATOM      4  C   UNL d   1      33.196  18.797 -23.730  0.00  0.00     0.074 C 
BRANCH   4   5
ATOM      5  C   UNL d   1      32.591  18.267 -23.901  0.00  0.00     0.093 A 
ATOM      6  C   UNL d   1      32.542  17.487 -23.642  0.00  0.00     0.272 A 
ATOM      7  N   UNL d   1      31.849  17.162 -23.941  0.00  0.00    -0.252 N 
ATOM      8  O   UNL d   1      33.090  17.100 -23.167  0.00  0.00    -0.266 OA
ATOM      9  C   UNL d   1      31.468  17.740 -24.385  0.00  0.00     0.182 A 
ATOM     10  S   UNL d   1      31.925  18.430 -24.363  0.00  0.00    -0.045 SA
BRANCH   7  11
ATOM     11  C   UNL d   1      31.578  16.394 -23.822  0.00  0.00     0.085 C 
ATOM     12  C   UNL d   1      31.998  15.758 -24.149  0.00  0.00     0.021 C 
ENDBRANCH   7  11
BRANCH   9  13
ATOM     13  N   UNL d   1      30.751  17.652 -24.787  0.00  0.00    -0.221 NA
BRANCH  13  14
ATOM     14  C   UNL d   1      30.245  18.293 -24.862  0.00  0.00     0.101 C 
ATOM     15  C   UNL d   1      29.433  18.177 -24.905  0.00  0.00     0.022 C 
ENDBRANCH  13  14
ENDBRANCH   9  13
ENDBRANCH   4   5
ENDBRANCH   1   4
BRANCH   2  16
ATOM     16  C   UNL d   1      33.234  20.969 -23.850  0.00  0.00     0.107 A 
ATOM     17  C   UNL d   1      33.227  21.625 -23.338  0.00  0.00     0.118 A 
ATOM     18  C   UNL d   1      33.221  22.390 -23.649  0.00  0.00     0.026 A 
ATOM     19  C   UNL d   1      33.223  22.497 -24.468  0.00  0.00     0.002 A 
ATOM     20  C   UNL d   1      33.231  21.847 -24.975  0.00  0.00     0.002 A 
ATOM     21  C   UNL d   1      33.236  21.085 -24.668  0.00  0.00     0.021 A 
BRANCH  17  22
ATOM     22  O   UNL d   1      33.225  21.512 -22.524  0.00  0.00    -0.304 OA
BRANCH  22  23
ATOM     23  C   UNL d   1      32.772  22.003 -22.044  0.00  0.00     0.123 C 
BRANCH  23  24
ATOM     24  C   UNL d   1      32.756  21.889 -21.235  0.00  0.00     0.027 C 
BRANCH  24  25
ATOM     25  C   UNL d   1      32.803  22.536 -20.715  0.00  0.00     0.002 C 
ATOM     26  C   UNL d   1      32.283  22.581 -20.077  0.00  0.00     0.000 C 
ENDBRANCH  24  25
ENDBRANCH  23  24
ENDBRANCH  22  23
ENDBRANCH  17  22
ENDBRANCH   2  16
TORSDOF 10
ENDMDL
MODEL 3
REMARK VINA RESULT:      -1.3      1.395      2.569
REMARK  10 active torsions:
REMARK  status: ('A' for Active; 'I' for Inactive)
REMARK    1  A    between atoms: C_14  and  N_1 
REMARK    2  A    between atoms: N_9  and  C_2 
REMARK    3  A    between atoms: C_6  and  C_5 
REMARK    4  A    between atoms: C_7  and  C_6 
REMARK       I    between atoms: N_8  and  C_7 
REMARK    5  A    between atoms: C_10  and  N_8 
REMARK    6  A    between atoms: C_16  and  N_9 
REMARK    7  A    between atoms: O_15  and  C_13 
REMARK    8  A    between atoms: C_19  and  O_15 
REMARK    9  A    between atoms: C_21  and  C_19 
REMARK   10  A    between atoms: C_22  and  C_21 
ROOT
ATOM      1  C   UNL d   1      32.877  19.470 -22.640  0.00  0.00     0.280 C 
ATOM      2  N   UNL d   1      32.641  18.701 -22.814  0.00  0.00    -0.206 NA
ATOM      3  O   UNL d   1      33.223  19.937 -23.222  0.00  0.00    -0.265 OA
ENDROOT
BRANCH   1   4
ATOM      4  C   UNL d   1      32.763  19.766 -21.879  0.00  0.00     0.074 C 
BRANCH   4   5
ATOM      5  C   UNL d   1      32.897  20.560 -21.713  0.00  0.00     0.093 A 
ATOM      6  C   UNL d   1      32.986  20.891 -20.965  0.00  0.00     0.272 A 
ATOM      7  N   UNL d   1      33.109  21.699 -21.056  0.00  0.00    -0.252 N 
ATOM      8  O   UNL d   1      32.956  20.487 -20.250  0.00  0.00    -0.266 OA
ATOM      9  C   UNL d   1      33.098  21.868 -21.860  0.00  0.00     0.182 A 
ATOM     10  S   UNL d   1      32.966  21.163 -22.275  0.00  0.00    -0.045 SA
BRANCH   7  11
ATOM     11  C   UNL d   1      33.225  22.246 -20.453  0.00  0.00     0.085 C 
ATOM     12  C   UNL d   1      32.629  22.364 -19.889  0.00  0.00     0.021 C 
ENDBRANCH   7  11
BRANCH   9  13
ATOM     13  N   UNL d   1      33.200  22.613 -22.204  0.00  0.00    -0.221 NA
BRANCH  13  14
ATOM     14  C   UNL d   1      33.135  22.700 -23.016  0.00  0.00     0.101 C 
ATOM     15  C   UNL d   1      33.241  23.437 -23.364  0.00  0.00     0.022 C 
ENDBRANCH  13  14
ENDBRANCH   9  13
ENDBRANCH   4   5
ENDBRANCH   1   4
BRANCH   2  16
ATOM     16  C   UNL d   1      32.751  18.398 -23.570  0.00  0.00     0.107 A 
ATOM     17  C   UNL d   1      32.494  17.627 -23.751  0.00  0.00     0.118 A 
ATOM     18  C   UNL d   1      32.605  17.324 -24.512  0.00  0.00     0.026 A 
ATOM     19  C   UNL d   1      32.972  17.791 -25.086  0.00  0.00     0.002 A 
ATOM     20  C   UNL d   1      33.226  18.554 -24.907  0.00  0.00     0.002 A 
ATOM     21  C   UNL d   1      33.116  18.857 -24.151  0.00  0.00     0.021 A 
BRANCH  17  22
ATOM     22  O   UNL d   1      32.131  17.168 -23.175  0.00  0.00    -0.304 OA
BRANCH  22  23
ATOM     23  C   UNL d   1      31.738  16.477 -23.390  0.00  0.00     0.123 C 
BRANCH  23  24
ATOM     24  C   UNL d   1      31.294  16.067 -22.841  0.00  0.00     0.027 C 
BRANCH  24  25
ATOM     25  C   UNL d   1      30.673  15.569 -23.084  0.00  0.00     0.002 C 
ATOM     26  C   UNL d   1      30.018  15.897 -23.464  0.00  0.00     0.000 C 
ENDBRANCH  24  25
ENDBRANCH  23  24
ENDBRANCH  22  23
ENDBRANCH  17  22
ENDBRANCH   2  16
TORSDOF 10
ENDMDL
MODEL 4
REMARK VINA RESULT:       0.8      1.271      4.730
REMARK  10 active torsions:
REMARK  status: ('A' for Active; 'I' for Inactive)
REMARK    1  A    between atoms: C_14  and  N_1 
REMARK    2  A    between atoms: N_9  and  C_2 
REMARK    3  A    between atoms: C_6  and  C_5 
REMARK    4  A    between atoms: C_7  and  C_6 
REMARK       I    between atoms: N_8  and  C_7 
REMARK    5  A    between atoms: C_10  and  N_8 
REMARK    6  A    between atoms: C_16  and  N_9 
REMARK    7  A    between atoms: O_15  and  C_13 
REMARK    8  A    between atoms: C_19  and  O_15 
REMARK    9  A    between atoms: C_21  and  C_19 
REMARK   10  A    between atoms: C_22  and  C_21 
ROOT
ATOM      1  C   UNL d   1      32.730  19.477 -23.305  0.00  0.00     0.280 C 
ATOM      2  N   UNL d   1      33.180  20.145 -23.135  0.00  0.00    -0.206 NA
ATOM      3  O   UNL d   1      32.297  19.109 -22.712  0.00  0.00    -0.265 OA
ENDROOT
BRANCH   1   4
ATOM      4  C   UNL d   1      32.719  19.184 -24.076  0.00  0.00     0.074 C 
BRANCH   4   5
ATOM      5  C   UNL d   1      32.384  18.450 -24.240  0.00  0.00     0.093 A 
ATOM      6  C   UNL d   1      31.707  18.316 -24.689  0.00  0.00     0.272 A 
ATOM      7  N   UNL d   1      31.572  17.506 -24.710  0.00  0.00    -0.252 N 
ATOM      8  O   UNL d   1      31.245  18.891 -25.052  0.00  0.00    -0.266 OA
ATOM      9  C   UNL d   1      32.165  17.138 -24.276  0.00  0.00     0.182 A 
ATOM     10  S   UNL d   1      32.674  17.721 -23.981  0.00  0.00    -0.045 SA
BRANCH   7  11
ATOM     11  C   UNL d   1      30.955  17.124 -25.097  0.00  0.00     0.085 C 
ATOM     12  C   UNL d   1      30.183  17.194 -24.802  0.00  0.00     0.021 C 
ENDBRANCH   7  11
BRANCH   9  13
ATOM     13  N   UNL d   1      32.246  16.324 -24.151  0.00  0.00    -0.221 NA
BRANCH  13  14
ATOM     14  C   UNL d   1      32.991  15.984 -24.151  0.00  0.00     0.101 C 
ATOM     15  C   UNL d   1      33.223  15.494 -23.534  0.00  0.00     0.022 C 
ENDBRANCH  13  14
ENDBRANCH   9  13
ENDBRANCH   4   5
ENDBRANCH   1   4
BRANCH   2  16
ATOM     16  C   UNL d   1      33.198  20.445 -22.370  0.00  0.00     0.107 A 
ATOM     17  C   UNL d   1      33.223  21.267 -22.245  0.00  0.00     0.118 A 
ATOM     18  C   UNL d   1      33.241  21.567 -21.476  0.00  0.00     0.026 A 
ATOM     19  C   UNL d   1      33.233  21.045 -20.836  0.00  0.00     0.002 A 
ATOM     20  C   UNL d   1      33.207  20.231 -20.959  0.00  0.00     0.002 A 
ATOM     21  C   UNL d   1      33.190  19.931 -21.724  0.00  0.00     0.021 A 
BRANCH  17  22
ATOM     22  O   UNL d   1      33.231  21.781 -22.887  0.00  0.00    -0.304 OA
BRANCH  22  23
ATOM     23  C   UNL d   1      32.997  22.564 -22.787  0.00  0.00     0.123 C 
BRANCH  23  24
ATOM     24  C   UNL d   1      33.211  23.132 -23.333  0.00  0.00     0.027 C 
BRANCH  24  25
ATOM     25  C   UNL d   1      32.702  23.330 -23.960  0.00  0.00     0.002 C 
ATOM     26  C   UNL d   1      31.985  23.703 -23.796  0.00  0.00     0.000 C 
ENDBRANCH  24  25
ENDBRANCH  23  24
ENDBRANCH  22  23
ENDBRANCH  17  22
ENDBRANCH   2  16
TORSDOF 10
ENDMDL
