MODEL 1
REMARK VINA RESULT:      -7.8      0.000      0.000
REMARK  2 active torsions:
REMARK  status: ('A' for Active; 'I' for Inactive)
REMARK    1  A    between atoms: C_11  and  N_1 
REMARK    2  A    between atoms: C_16  and  C_11 
ROOT
ATOM      1  C   UNL d   1     -48.129  13.674  23.520  0.00  0.00     0.086 C 
ENDROOT
BRANCH   1   2
ATOM      2  N   UNL d   1     -48.796  13.574  23.051  0.00  0.00    -0.240 N 
ATOM      3  C   UNL d   1     -49.053  14.095  22.466  0.00  0.00     0.267 A 
ATOM      4  C   UNL d   1     -49.744  13.780  22.133  0.00  0.00     0.061 A 
ATOM      5  O   UNL d   1     -48.693  14.799  22.249  0.00  0.00    -0.267 OA
ATOM      6  C   UNL d   1     -50.236  14.051  21.538  0.00  0.00     0.005 A 
ATOM      7  C   UNL d   1     -49.909  13.068  22.514  0.00  0.00     0.061 A 
ATOM      8  C   UNL d   1     -50.896  13.609  21.322  0.00  0.00     0.000 A 
ATOM      9  C   UNL d   1     -51.063  12.900  21.700  0.00  0.00     0.000 A 
ATOM     10  C   UNL d   1     -50.562  12.630  22.301  0.00  0.00     0.005 A 
ATOM     11  C   UNL d   1     -49.322  12.943  23.080  0.00  0.00     0.267 A 
ATOM     12  O   UNL d   1     -49.275  12.290  23.590  0.00  0.00    -0.267 OA
ENDBRANCH   1   2
BRANCH   1  13
ATOM     13  C   UNL d   1     -47.408  13.309  23.314  0.00  0.00     0.018 A 
ATOM     14  C   UNL d   1     -46.895  13.690  22.793  0.00  0.00     0.003 A 
ATOM     15  C   UNL d   1     -46.169  13.318  22.588  0.00  0.00     0.018 A 
ATOM     16  C   UNL d   1     -45.551  13.551  22.094  0.00  0.00     0.019 A 
ATOM     17  C   UNL d   1     -45.981  12.579  22.910  0.00  0.00     0.064 A 
ATOM     18  C   UNL d   1     -44.974  12.961  22.102  0.00  0.00     0.064 A 
ATOM     19  C   UNL d   1     -44.263  12.971  21.683  0.00  0.00     0.019 C 
ATOM     20  N   UNL d   1     -45.243  12.365  22.607  0.00  0.00    -0.304 N 
ATOM     21  C   UNL d   1     -44.832  11.658  22.780  0.00  0.00     0.099 C 
ATOM     22  C   UNL d   1     -46.499  12.202  23.432  0.00  0.00     0.018 A 
ATOM     23  C   UNL d   1     -47.210  12.563  23.634  0.00  0.00     0.003 A 
ENDBRANCH   1  13
TORSDOF 2
ENDMDL
MODEL 2
REMARK VINA RESULT:      -7.8      0.030      1.114
REMARK  2 active torsions:
REMARK  status: ('A' for Active; 'I' for Inactive)
REMARK    1  A    between atoms: C_11  and  N_1 
REMARK    2  A    between atoms: C_16  and  C_11 
ROOT
ATOM      1  C   UNL d   1     -48.145  13.690  23.500  0.00  0.00     0.086 C 
ENDROOT
BRANCH   1   2
ATOM      2  N   UNL d   1     -48.808  13.593  23.023  0.00  0.00    -0.240 N 
ATOM      3  C   UNL d   1     -49.333  12.958  23.057  0.00  0.00     0.267 A 
ATOM      4  C   UNL d   1     -49.917  13.083  22.483  0.00  0.00     0.061 A 
ATOM      5  O   UNL d   1     -49.289  12.316  23.566  0.00  0.00    -0.267 OA
ATOM      6  C   UNL d   1     -50.572  12.644  22.265  0.00  0.00     0.005 A 
ATOM      7  C   UNL d   1     -49.749  13.793  22.099  0.00  0.00     0.061 A 
ATOM      8  C   UNL d   1     -51.063  12.915  21.661  0.00  0.00     0.000 A 
ATOM      9  C   UNL d   1     -50.897  13.621  21.278  0.00  0.00     0.000 A 
ATOM     10  C   UNL d   1     -50.234  14.062  21.501  0.00  0.00     0.005 A 
ATOM     11  C   UNL d   1     -49.064  14.105  22.435  0.00  0.00     0.267 A 
ATOM     12  O   UNL d   1     -48.698  14.817  22.213  0.00  0.00    -0.267 OA
ENDBRANCH   1   2
BRANCH   1  13
ATOM     13  C   UNL d   1     -47.423  13.324  23.300  0.00  0.00     0.018 A 
ATOM     14  C   UNL d   1     -46.907  13.700  22.779  0.00  0.00     0.003 A 
ATOM     15  C   UNL d   1     -46.181  13.327  22.580  0.00  0.00     0.018 A 
ATOM     16  C   UNL d   1     -45.560  13.555  22.087  0.00  0.00     0.019 A 
ATOM     17  C   UNL d   1     -45.994  12.590  22.909  0.00  0.00     0.064 A 
ATOM     18  C   UNL d   1     -44.983  12.966  22.103  0.00  0.00     0.064 A 
ATOM     19  C   UNL d   1     -44.270  12.972  21.688  0.00  0.00     0.019 C 
ATOM     20  N   UNL d   1     -45.255  12.373  22.611  0.00  0.00    -0.304 N 
ATOM     21  C   UNL d   1     -44.845  11.668  22.792  0.00  0.00     0.099 C 
ATOM     22  C   UNL d   1     -46.515  12.218  23.431  0.00  0.00     0.018 A 
ATOM     23  C   UNL d   1     -47.227  12.580  23.627  0.00  0.00     0.003 A 
ENDBRANCH   1  13
TORSDOF 2
ENDMDL
MODEL 3
REMARK VINA RESULT:      -7.8      1.409      1.967
REMARK  2 active torsions:
REMARK  status: ('A' for Active; 'I' for Inactive)
REMARK    1  A    between atoms: C_11  and  N_1 
REMARK    2  A    between atoms: C_16  and  C_11 
ROOT
ATOM      1  C   UNL d   1     -48.314  13.766  21.832  0.00  0.00     0.086 C 
ENDROOT
BRANCH   1   2
ATOM      2  N   UNL d   1     -48.890  14.218  22.206  0.00  0.00    -0.240 N 
ATOM      3  C   UNL d   1     -48.747  14.847  22.720  0.00  0.00     0.267 A 
ATOM      4  C   UNL d   1     -49.481  15.142  22.968  0.00  0.00     0.061 A 
ATOM      5  O   UNL d   1     -48.013  15.133  22.947  0.00  0.00    -0.267 OA
ATOM      6  C   UNL d   1     -49.681  15.755  23.471  0.00  0.00     0.005 A 
ATOM      7  C   UNL d   1     -50.071  14.694  22.607  0.00  0.00     0.061 A 
ATOM      8  C   UNL d   1     -50.475  15.922  23.615  0.00  0.00     0.000 A 
ATOM      9  C   UNL d   1     -51.064  15.477  23.257  0.00  0.00     0.000 A 
ATOM     10  C   UNL d   1     -50.857  14.858  22.749  0.00  0.00     0.005 A 
ATOM     11  C   UNL d   1     -49.703  14.124  22.137  0.00  0.00     0.267 A 
ATOM     12  O   UNL d   1     -50.092  13.555  21.675  0.00  0.00    -0.267 OA
ENDBRANCH   1   2
BRANCH   1  13
ATOM     13  C   UNL d   1     -47.962  13.121  22.223  0.00  0.00     0.018 A 
ATOM     14  C   UNL d   1     -47.152  13.132  22.379  0.00  0.00     0.003 A 
ATOM     15  C   UNL d   1     -46.801  12.479  22.774  0.00  0.00     0.018 A 
ATOM     16  C   UNL d   1     -46.025  12.326  23.005  0.00  0.00     0.019 A 
ATOM     17  C   UNL d   1     -47.271  11.835  23.000  0.00  0.00     0.064 A 
ATOM     18  C   UNL d   1     -46.001  11.589  23.376  0.00  0.00     0.064 A 
ATOM     19  C   UNL d   1     -45.332  11.224  23.691  0.00  0.00     0.019 C 
ATOM     20  N   UNL d   1     -46.772  11.291  23.371  0.00  0.00    -0.304 N 
ATOM     21  C   UNL d   1     -47.006  10.555  23.690  0.00  0.00     0.099 C 
ATOM     22  C   UNL d   1     -48.082  11.829  22.841  0.00  0.00     0.018 A 
ATOM     23  C   UNL d   1     -48.428  12.467  22.455  0.00  0.00     0.003 A 
ENDBRANCH   1  13
TORSDOF 2
ENDMDL
MODEL 4
REMARK VINA RESULT:      -7.3      1.036      4.388
REMARK  2 active torsions:
REMARK  status: ('A' for Active; 'I' for Inactive)
REMARK    1  A    between atoms: C_11  and  N_1 
REMARK    2  A    between atoms: C_16  and  C_11 
ROOT
ATOM      1  C   UNL d   1     -47.499  13.287  23.680  0.00  0.00     0.086 C 
ENDROOT
BRANCH   1   2
ATOM      2  N   UNL d   1     -46.790  13.123  23.298  0.00  0.00    -0.240 N 
ATOM      3  C   UNL d   1     -46.396  12.399  23.309  0.00  0.00     0.267 A 
ATOM      4  C   UNL d   1     -45.708  12.479  22.854  0.00  0.00     0.061 A 
ATOM      5  O   UNL d   1     -46.638  11.719  23.698  0.00  0.00    -0.267 OA
ATOM      6  C   UNL d   1     -45.110  11.951  22.670  0.00  0.00     0.005 A 
ATOM      7  C   UNL d   1     -45.681  13.250  22.566  0.00  0.00     0.061 A 
ATOM      8  C   UNL d   1     -44.483  12.195  22.195  0.00  0.00     0.000 A 
ATOM      9  C   UNL d   1     -44.454  12.962  21.907  0.00  0.00     0.000 A 
ATOM     10  C   UNL d   1     -45.060  13.493  22.096  0.00  0.00     0.005 A 
ATOM     11  C   UNL d   1     -46.350  13.646  22.841  0.00  0.00     0.267 A 
ATOM     12  O   UNL d   1     -46.543  14.437  22.682  0.00  0.00    -0.267 OA
ENDBRANCH   1   2
BRANCH   1  13
ATOM     13  C   UNL d   1     -48.223  13.229  23.271  0.00  0.00     0.018 A 
ATOM     14  C   UNL d   1     -48.575  13.910  22.969  0.00  0.00     0.003 A 
ATOM     15  C   UNL d   1     -49.305  13.847  22.558  0.00  0.00     0.018 A 
ATOM     16  C   UNL d   1     -49.786  14.411  22.198  0.00  0.00     0.019 A 
ATOM     17  C   UNL d   1     -49.659  13.104  22.462  0.00  0.00     0.064 A 
ATOM     18  C   UNL d   1     -50.443  14.030  21.875  0.00  0.00     0.064 A 
ATOM     19  C   UNL d   1     -51.062  14.388  21.466  0.00  0.00     0.019 C 
ATOM     20  N   UNL d   1     -50.360  13.224  22.041  0.00  0.00    -0.304 N 
ATOM     21  C   UNL d   1     -50.900  12.627  21.817  0.00  0.00     0.099 C 
ATOM     22  C   UNL d   1     -49.302  12.425  22.767  0.00  0.00     0.018 A 
ATOM     23  C   UNL d   1     -48.587  12.484  23.170  0.00  0.00     0.003 A 
ENDBRANCH   1  13
TORSDOF 2
ENDMDL
MODEL 5
REMARK VINA RESULT:      -7.0      8.395      9.381
REMARK  2 active torsions:
REMARK  status: ('A' for Active; 'I' for Inactive)
REMARK    1  A    between atoms: C_11  and  N_1 
REMARK    2  A    between atoms: C_16  and  C_11 
ROOT
ATOM      1  C   UNL d   1     -40.761  14.452  19.186  0.00  0.00     0.086 C 
ENDROOT
BRANCH   1   2
ATOM      2  N   UNL d   1     -40.347  14.559  18.484  0.00  0.00    -0.240 N 
ATOM      3  C   UNL d   1     -40.370  15.235  18.013  0.00  0.00     0.267 A 
ATOM      4  C   UNL d   1     -39.872  15.105  17.363  0.00  0.00     0.061 A 
ATOM      5  O   UNL d   1     -40.804  15.915  18.157  0.00  0.00    -0.267 OA
ATOM      6  C   UNL d   1     -39.679  15.575  16.721  0.00  0.00     0.005 A 
ATOM      7  C   UNL d   1     -39.546  14.352  17.437  0.00  0.00     0.061 A 
ATOM      8  C   UNL d   1     -39.157  15.290  16.150  0.00  0.00     0.000 A 
ATOM      9  C   UNL d   1     -38.831  14.541  16.222  0.00  0.00     0.000 A 
ATOM     10  C   UNL d   1     -39.030  14.070  16.872  0.00  0.00     0.005 A 
ATOM     11  C   UNL d   1     -39.841  14.017  18.130  0.00  0.00     0.267 A 
ATOM     12  O   UNL d   1     -39.656  13.261  18.418  0.00  0.00    -0.267 OA
ENDBRANCH   1   2
BRANCH   1  13
ATOM     13  C   UNL d   1     -40.430  14.688  19.913  0.00  0.00     0.018 A 
ATOM     14  C   UNL d   1     -40.005  14.143  20.362  0.00  0.00     0.003 A 
ATOM     15  C   UNL d   1     -39.672  14.386  21.095  0.00  0.00     0.018 A 
ATOM     16  C   UNL d   1     -39.227  13.982  21.660  0.00  0.00     0.019 A 
ATOM     17  C   UNL d   1     -39.775  15.165  21.355  0.00  0.00     0.064 A 
ATOM     18  C   UNL d   1     -39.049  14.502  22.275  0.00  0.00     0.064 A 
ATOM     19  C   UNL d   1     -38.613  14.324  22.952  0.00  0.00     0.019 C 
ATOM     20  N   UNL d   1     -39.389  15.230  22.082  0.00  0.00    -0.304 N 
ATOM     21  C   UNL d   1     -39.348  15.921  22.551  0.00  0.00     0.099 C 
ATOM     22  C   UNL d   1     -40.203  15.708  20.901  0.00  0.00     0.018 A 
ATOM     23  C   UNL d   1     -40.529  15.473  20.183  0.00  0.00     0.003 A 
ENDBRANCH   1  13
TORSDOF 2
ENDMDL
MODEL 6
REMARK VINA RESULT:      -6.8      8.694      9.984
REMARK  2 active torsions:
REMARK  status: ('A' for Active; 'I' for Inactive)
REMARK    1  A    between atoms: C_11  and  N_1 
REMARK    2  A    between atoms: C_16  and  C_11 
ROOT
ATOM      1  C   UNL d   1     -40.506  14.436  18.239  0.00  0.00     0.086 C 
ENDROOT
BRANCH   1   2
ATOM      2  N   UNL d   1     -39.926  14.464  17.657  0.00  0.00    -0.240 N 
ATOM      3  C   UNL d   1     -39.445  13.834  17.431  0.00  0.00     0.267 A 
ATOM      4  C   UNL d   1     -38.942  14.104  16.830  0.00  0.00     0.061 A 
ATOM      5  O   UNL d   1     -39.457  13.075  17.741  0.00  0.00    -0.267 OA
ATOM      6  C   UNL d   1     -38.355  13.730  16.399  0.00  0.00     0.005 A 
ATOM      7  C   UNL d   1     -39.116  14.897  16.689  0.00  0.00     0.061 A 
ATOM      8  C   UNL d   1     -37.940  14.150  15.825  0.00  0.00     0.000 A 
ATOM      9  C   UNL d   1     -38.111  14.940  15.683  0.00  0.00     0.000 A 
ATOM     10  C   UNL d   1     -38.705  15.314  16.121  0.00  0.00     0.005 A 
ATOM     11  C   UNL d   1     -39.724  15.117  17.202  0.00  0.00     0.267 A 
ATOM     12  O   UNL d   1     -40.070  15.870  17.246  0.00  0.00    -0.267 OA
ENDBRANCH   1   2
BRANCH   1  13
ATOM     13  C   UNL d   1     -40.336  14.678  19.017  0.00  0.00     0.018 A 
ATOM     14  C   UNL d   1     -39.949  14.161  19.529  0.00  0.00     0.003 A 
ATOM     15  C   UNL d   1     -39.780  14.410  20.314  0.00  0.00     0.018 A 
ATOM     16  C   UNL d   1     -39.407  14.031  20.945  0.00  0.00     0.019 A 
ATOM     17  C   UNL d   1     -40.003  15.168  20.562  0.00  0.00     0.064 A 
ATOM     18  C   UNL d   1     -39.395  14.546  21.589  0.00  0.00     0.064 A 
ATOM     19  C   UNL d   1     -39.074  14.388  22.333  0.00  0.00     0.019 C 
ATOM     20  N   UNL d   1     -39.763  15.246  21.348  0.00  0.00    -0.304 N 
ATOM     21  C   UNL d   1     -39.874  15.922  21.826  0.00  0.00     0.099 C 
ATOM     22  C   UNL d   1     -40.391  15.683  20.044  0.00  0.00     0.018 A 
ATOM     23  C   UNL d   1     -40.558  15.442  19.276  0.00  0.00     0.003 A 
ENDBRANCH   1  13
TORSDOF 2
ENDMDL
MODEL 7
REMARK VINA RESULT:      -6.7      8.375      9.811
REMARK  2 active torsions:
REMARK  status: ('A' for Active; 'I' for Inactive)
REMARK    1  A    between atoms: C_11  and  N_1 
REMARK    2  A    between atoms: C_16  and  C_11 
ROOT
ATOM      1  C   UNL d   1     -40.415  14.359  19.015  0.00  0.00     0.086 C 
ENDROOT
BRANCH   1   2
ATOM      2  N   UNL d   1     -40.164  14.639  19.747  0.00  0.00    -0.240 N 
ATOM      3  C   UNL d   1     -40.471  15.295  20.140  0.00  0.00     0.267 A 
ATOM      4  C   UNL d   1     -40.058  15.377  20.854  0.00  0.00     0.061 A 
ATOM      5  O   UNL d   1     -41.075  15.782  19.876  0.00  0.00    -0.267 OA
ATOM      6  C   UNL d   1     -40.122  15.921  21.462  0.00  0.00     0.005 A 
ATOM      7  C   UNL d   1     -39.501  14.772  20.897  0.00  0.00     0.061 A 
ATOM      8  C   UNL d   1     -39.625  15.861  22.117  0.00  0.00     0.000 A 
ATOM      9  C   UNL d   1     -39.069  15.259  22.162  0.00  0.00     0.000 A 
ATOM     10  C   UNL d   1     -39.009  14.711  21.544  0.00  0.00     0.005 A 
ATOM     11  C   UNL d   1     -39.568  14.317  20.212  0.00  0.00     0.267 A 
ATOM     12  O   UNL d   1     -39.110  13.650  20.028  0.00  0.00    -0.267 OA
ENDBRANCH   1   2
BRANCH   1  13
ATOM     13  C   UNL d   1     -40.014  14.577  18.319  0.00  0.00     0.018 A 
ATOM     14  C   UNL d   1     -39.587  14.009  17.901  0.00  0.00     0.003 A 
ATOM     15  C   UNL d   1     -39.184  14.233  17.198  0.00  0.00     0.018 A 
ATOM     16  C   UNL d   1     -38.721  13.805  16.667  0.00  0.00     0.019 A 
ATOM     17  C   UNL d   1     -39.221  15.018  16.936  0.00  0.00     0.064 A 
ATOM     18  C   UNL d   1     -38.464  14.315  16.072  0.00  0.00     0.064 A 
ATOM     19  C   UNL d   1     -37.987  14.114  15.430  0.00  0.00     0.019 C 
ATOM     20  N   UNL d   1     -38.775  15.062  16.242  0.00  0.00    -0.304 N 
ATOM     21  C   UNL d   1     -38.656  15.750  15.783  0.00  0.00     0.099 C 
ATOM     22  C   UNL d   1     -39.650  15.583  17.359  0.00  0.00     0.018 A 
ATOM     23  C   UNL d   1     -40.046  15.367  18.047  0.00  0.00     0.003 A 
ENDBRANCH   1  13
TORSDOF 2
ENDMDL
MODEL 8
REMARK VINA RESULT:      -6.7      8.274      9.663
REMARK  2 active torsions:
REMARK  status: ('A' for Active; 'I' for Inactive)
REMARK    1  A    between atoms: C_11  and  N_1 
REMARK    2  A    between atoms: C_16  and  C_11 
ROOT
ATOM      1  C   UNL d   1     -40.565  14.406  19.370  0.00  0.00     0.086 C 
ENDROOT
BRANCH   1   2
ATOM      2  N   UNL d   1     -40.247  14.663  20.084  0.00  0.00    -0.240 N 
ATOM      3  C   UNL d   1     -39.649  14.282  20.506  0.00  0.00     0.267 A 
ATOM      4  C   UNL d   1     -39.500  14.728  21.188  0.00  0.00     0.061 A 
ATOM      5  O   UNL d   1     -39.269  13.588  20.293  0.00  0.00    -0.267 OA
ATOM      6  C   UNL d   1     -38.973  14.623  21.805  0.00  0.00     0.005 A 
ATOM      7  C   UNL d   1     -40.005  15.380  21.183  0.00  0.00     0.061 A 
ATOM      8  C   UNL d   1     -38.950  15.170  22.420  0.00  0.00     0.000 A 
ATOM      9  C   UNL d   1     -39.452  15.819  22.417  0.00  0.00     0.000 A 
ATOM     10  C   UNL d   1     -39.983  15.922  21.791  0.00  0.00     0.005 A 
ATOM     11  C   UNL d   1     -40.465  15.336  20.499  0.00  0.00     0.267 A 
ATOM     12  O   UNL d   1     -41.048  15.883  20.275  0.00  0.00    -0.267 OA
ENDBRANCH   1   2
BRANCH   1  13
ATOM     13  C   UNL d   1     -40.199  14.605  18.648  0.00  0.00     0.018 A 
ATOM     14  C   UNL d   1     -39.757  14.037  18.247  0.00  0.00     0.003 A 
ATOM     15  C   UNL d   1     -39.390  14.241  17.519  0.00  0.00     0.018 A 
ATOM     16  C   UNL d   1     -38.922  13.808  16.997  0.00  0.00     0.019 A 
ATOM     17  C   UNL d   1     -39.477  15.007  17.216  0.00  0.00     0.064 A 
ATOM     18  C   UNL d   1     -38.713  14.296  16.365  0.00  0.00     0.064 A 
ATOM     19  C   UNL d   1     -38.247  14.083  15.718  0.00  0.00     0.019 C 
ATOM     20  N   UNL d   1     -39.058  15.034  16.505  0.00  0.00    -0.304 N 
ATOM     21  C   UNL d   1     -38.991  15.701  16.005  0.00  0.00     0.099 C 
ATOM     22  C   UNL d   1     -39.922  15.573  17.623  0.00  0.00     0.018 A 
ATOM     23  C   UNL d   1     -40.282  15.375  18.335  0.00  0.00     0.003 A 
ENDBRANCH   1  13
TORSDOF 2
ENDMDL
