MODEL 1
REMARK VINA RESULT:      12.1      0.000      0.000
REMARK  3 active torsions:
REMARK  status: ('A' for Active; 'I' for Inactive)
REMARK    1  A    between atoms: C_7  and  C_1 
REMARK    2  A    between atoms: N_9  and  C_7 
REMARK    3  A    between atoms: C_8  and  N_9 
ROOT
ATOM      1  C   UNL d   1      46.317 -17.987  43.601  0.00  0.00     0.146 A 
ATOM      2  C   UNL d   1      46.306 -18.655  44.092  0.00  0.00     0.304 A 
ATOM      3  C   UNL d   1      46.343 -18.110  42.758  0.00  0.00     0.304 A 
ATOM      4  O   UNL d   1      46.357 -18.853  42.455  0.00  0.00    -0.277 OA
ATOM      5  O   UNL d   1      46.321 -19.411  43.756  0.00  0.00    -0.277 OA
ATOM      6  C   UNL d   1      46.345 -19.531  42.970  0.00  0.00     0.203 A 
ATOM      7  O   UNL d   1      46.355 -17.437  42.253  0.00  0.00    -0.259 OA
ATOM      8  O   UNL d   1      46.279 -18.541  44.954  0.00  0.00    -0.259 OA
ATOM      9  C   UNL d   1      46.347 -20.330  43.074  0.00  0.00     0.062 C 
ATOM     10  C   UNL d   1      46.368 -20.019  42.315  0.00  0.00     0.062 C 
ENDROOT
BRANCH   1  11
ATOM     11  C   UNL d   1      46.303 -17.224  43.912  0.00  0.00     0.129 C 
BRANCH  11  12
ATOM     12  N   UNL d   1      45.634 -16.958  44.288  0.00  0.00    -0.057 NA
BRANCH  12  13
ATOM     13  C   UNL d   1      45.564 -16.149  44.478  0.00  0.00     0.750 A 
ATOM     14  N   UNL d   1      46.222 -15.630  44.376  0.00  0.00    -0.058 NA
ATOM     15  C   UNL d   1      46.123 -14.828  44.574  0.00  0.00     0.120 A 
ATOM     16  C   UNL d   1      45.425 -14.536  44.857  0.00  0.00     0.043 A 
ATOM     17  C   UNL d   1      44.788 -15.051  44.953  0.00  0.00     0.120 A 
ATOM     18  N   UNL d   1      44.856 -15.840  44.768  0.00  0.00    -0.058 NA
ENDBRANCH  12  13
ENDBRANCH  11  12
ENDBRANCH   1  11
TORSDOF 3
ENDMDL
