MODEL 1
REMARK VINA RESULT:      22.2      0.000      0.000
REMARK  2 active torsions:
REMARK  status: ('A' for Active; 'I' for Inactive)
REMARK    1  A    between atoms: C_8  and  N_2 
REMARK    2  A    between atoms: N_7  and  C_4 
ROOT
ATOM      1  C   UNL d   1      46.170 -16.622  43.199  0.00  0.00     0.358 A 
ATOM      2  N   UNL d   1      46.013 -17.259  43.702  0.00  0.00    -0.226 N 
ATOM      3  N   UNL d   1      46.017 -15.857  43.448  0.00  0.00    -0.174 NA
ATOM      4  C   UNL d   1      45.706 -15.720  44.197  0.00  0.00     0.158 A 
ATOM      5  C   UNL d   1      45.701 -17.132  44.452  0.00  0.00     0.271 A 
ATOM      6  C   UNL d   1      45.548 -16.358  44.699  0.00  0.00     0.099 A 
ATOM      7  O   UNL d   1      46.484 -16.759  42.444  0.00  0.00    -0.244 OA
ATOM      8  O   UNL d   1      45.543 -17.769  44.955  0.00  0.00    -0.266 OA
ENDROOT
BRANCH   2   9
ATOM      9  C   UNL d   1      46.167 -18.030  43.452  0.00  0.00     0.071 A 
ATOM     10  C   UNL d   1      45.990 -18.256  42.677  0.00  0.00     0.019 A 
ATOM     11  C   UNL d   1      46.141 -19.021  42.423  0.00  0.00     0.013 A 
ATOM     12  C   UNL d   1      46.473 -19.567  42.948  0.00  0.00     0.058 A 
ATOM     13  C   UNL d   1      46.647 -19.338  43.716  0.00  0.00     0.013 A 
ATOM     14 CL   UNL d   1      46.624 -20.330  42.696  0.00  0.00    -0.082 Cl
ATOM     15  C   UNL d   1      46.495 -18.572  43.971  0.00  0.00     0.019 A 
ENDBRANCH   2   9
BRANCH   4  16
ATOM     16  N   UNL d   1      45.550 -14.952  44.449  0.00  0.00    -0.285 N 
ATOM     17  C   UNL d   1      46.162 -14.396  44.448  0.00  0.00     0.108 A 
ATOM     18  C   UNL d   1      46.010 -13.625  44.701  0.00  0.00     0.142 A 
ATOM     19  O   UNL d   1      45.244 -13.408  44.955  0.00  0.00    -0.300 OA
ATOM     20  C   UNL d   1      44.648 -13.976  44.949  0.00  0.00     0.142 A 
ATOM     21  C   UNL d   1      44.801 -14.747  44.696  0.00  0.00     0.108 A 
ENDBRANCH   4  16
TORSDOF 2
ENDMDL
MODEL 2
REMARK VINA RESULT:      23.9      2.172      4.555
REMARK  2 active torsions:
REMARK  status: ('A' for Active; 'I' for Inactive)
REMARK    1  A    between atoms: C_8  and  N_2 
REMARK    2  A    between atoms: N_7  and  C_4 
ROOT
ATOM      1  C   UNL d   1      45.149 -15.848  44.437  0.00  0.00     0.358 A 
ATOM      2  N   UNL d   1      45.598 -15.278  44.040  0.00  0.00    -0.226 N 
ATOM      3  N   UNL d   1      45.300 -16.643  44.319  0.00  0.00    -0.174 NA
ATOM      4  C   UNL d   1      45.899 -16.879  43.806  0.00  0.00     0.158 A 
ATOM      5  C   UNL d   1      46.198 -15.505  43.525  0.00  0.00     0.271 A 
ATOM      6  C   UNL d   1      46.348 -16.309  43.409  0.00  0.00     0.099 A 
ATOM      7  O   UNL d   1      44.545 -15.611  44.955  0.00  0.00    -0.244 OA
ATOM      8  O   UNL d   1      46.647 -14.935  43.128  0.00  0.00    -0.266 OA
ENDROOT
BRANCH   2   9
ATOM      9  C   UNL d   1      45.446 -14.476  44.158  0.00  0.00     0.071 A 
ATOM     10  C   UNL d   1      45.770 -14.087  44.811  0.00  0.00     0.019 A 
ATOM     11  C   UNL d   1      45.622 -13.290  44.934  0.00  0.00     0.013 A 
ATOM     12  C   UNL d   1      45.145 -12.875  44.399  0.00  0.00     0.058 A 
ATOM     13  C   UNL d   1      44.826 -13.267  43.753  0.00  0.00     0.013 A 
ATOM     14 CL   UNL d   1      44.997 -12.081  44.521  0.00  0.00    -0.082 Cl
ATOM     15  C   UNL d   1      44.974 -14.066  43.629  0.00  0.00     0.019 A 
ENDBRANCH   2   9
BRANCH   4  16
ATOM     16  N   UNL d   1      46.053 -17.678  43.686  0.00  0.00    -0.285 N 
ATOM     17  C   UNL d   1      46.010 -17.987  42.920  0.00  0.00     0.108 A 
ATOM     18  C   UNL d   1      46.164 -18.788  42.796  0.00  0.00     0.142 A 
ATOM     19  O   UNL d   1      46.362 -19.284  43.439  0.00  0.00    -0.300 OA
ATOM     20  C   UNL d   1      46.400 -18.958  44.194  0.00  0.00     0.142 A 
ATOM     21  C   UNL d   1      46.246 -18.157  44.318  0.00  0.00     0.108 A 
ENDBRANCH   4  16
TORSDOF 2
ENDMDL
