MODEL 1
REMARK VINA RESULT:     -10.1      0.000      0.000
REMARK  5 active torsions:
REMARK  status: ('A' for Active; 'I' for Inactive)
REMARK    1  A    between atoms: C_4  and  S_1 
REMARK    2  A    between atoms: N_5  and  S_1 
REMARK       I    between atoms: N_2  and  C_3 
REMARK    3  A    between atoms: C_3  and  C_6 
REMARK    4  A    between atoms: C_16  and  N_5 
REMARK    5  A    between atoms: C_19  and  C_16 
ROOT
ATOM      1  C   UNL d   1      52.055  33.351  53.039  0.00  0.00     0.057 A 
ATOM      2  C   UNL d   1      51.339  33.022  53.294  0.00  0.00     0.005 A 
ATOM      3  C   UNL d   1      52.047  34.059  52.610  0.00  0.00     0.005 A 
ATOM      4  C   UNL d   1      50.620  34.103  52.692  0.00  0.00     0.020 A 
ATOM      5  C   UNL d   1      50.622  33.402  53.118  0.00  0.00     0.002 A 
ATOM      6  C   UNL d   1      51.328  34.435  52.436  0.00  0.00     0.002 A 
ENDROOT
BRANCH   4   7
ATOM      7  C   UNL d   1      49.909  34.478  52.519  0.00  0.00     0.112 C 
BRANCH   7   8
ATOM      8  N   UNL d   1      49.590  35.028  53.036  0.00  0.00    -0.157 NA
BRANCH   8   9
ATOM      9  S   UNL d   1      48.865  35.379  52.878  0.00  0.00     0.285 S 
ATOM     10  O   UNL d   1      49.106  35.527  52.106  0.00  0.00    -0.198 OA
ATOM     11  O   UNL d   1      48.624  35.229  53.658  0.00  0.00    -0.198 OA
BRANCH   9  12
ATOM     12  C   UNL d   1      48.136  35.734  52.717  0.00  0.00     0.105 A 
ATOM     13  C   UNL d   1      47.871  36.352  53.178  0.00  0.00     0.012 A 
ATOM     14  C   UNL d   1      47.139  36.707  53.016  0.00  0.00     0.001 A 
ATOM     15  C   UNL d   1      48.342  36.623  53.814  0.00  0.00     0.001 C 
ATOM     16  C   UNL d   1      46.682  36.438  52.394  0.00  0.00     0.000 A 
ATOM     17  C   UNL d   1      46.943  35.811  51.920  0.00  0.00     0.001 A 
ATOM     18  C   UNL d   1      47.678  35.459  52.088  0.00  0.00     0.013 A 
ATOM     19  C   UNL d   1      46.485  35.537  51.291  0.00  0.00     0.000 C 
ENDBRANCH   9  12
ENDBRANCH   8   9
ENDBRANCH   7   8
ENDBRANCH   4   7
BRANCH   1  20
ATOM     20  C   UNL d   1      52.765  32.977  53.212  0.00  0.00     0.265 C 
ATOM     21  N   UNL d   1      53.225  33.232  53.859  0.00  0.00    -0.273 N 
ATOM     22  C   UNL d   1      53.940  32.856  54.033  0.00  0.00     0.067 A 
ATOM     23  C   UNL d   1      52.967  33.858  54.323  0.00  0.00     0.083 A 
ATOM     24  C   UNL d   1      54.201  32.226  53.567  0.00  0.00     0.019 C 
ATOM     25  C   UNL d   1      54.392  33.111  54.673  0.00  0.00     0.018 A 
ATOM     26  C   UNL d   1      54.124  33.735  55.127  0.00  0.00     0.003 A 
ATOM     27  C   UNL d   1      53.417  34.108  54.956  0.00  0.00     0.019 A 
ATOM     28  O   UNL d   1      53.023  32.348  52.744  0.00  0.00    -0.267 OA
ENDBRANCH   1  20
TORSDOF 5
ENDMDL
MODEL 2
REMARK VINA RESULT:      -9.2      1.302      5.961
REMARK  5 active torsions:
REMARK  status: ('A' for Active; 'I' for Inactive)
REMARK    1  A    between atoms: C_4  and  S_1 
REMARK    2  A    between atoms: N_5  and  S_1 
REMARK       I    between atoms: N_2  and  C_3 
REMARK    3  A    between atoms: C_3  and  C_6 
REMARK    4  A    between atoms: C_16  and  N_5 
REMARK    5  A    between atoms: C_19  and  C_16 
ROOT
ATOM      1  C   UNL d   1      49.141  34.666  51.870  0.00  0.00     0.057 A 
ATOM      2  C   UNL d   1      49.789  34.663  51.355  0.00  0.00     0.005 A 
ATOM      3  C   UNL d   1      49.250  34.461  52.664  0.00  0.00     0.005 A 
ATOM      4  C   UNL d   1      50.645  34.253  52.427  0.00  0.00     0.020 A 
ATOM      5  C   UNL d   1      50.542  34.456  51.638  0.00  0.00     0.002 A 
ATOM      6  C   UNL d   1      50.004  34.255  52.943  0.00  0.00     0.002 A 
ENDROOT
BRANCH   4   7
ATOM      7  C   UNL d   1      51.390  34.049  52.706  0.00  0.00     0.112 C 
BRANCH   7   8
ATOM      8  N   UNL d   1      51.594  33.262  52.814  0.00  0.00    -0.157 NA
BRANCH   8   9
ATOM      9  S   UNL d   1      52.303  33.060  53.176  0.00  0.00     0.285 S 
ATOM     10  O   UNL d   1      51.907  32.941  53.886  0.00  0.00    -0.198 OA
ATOM     11  O   UNL d   1      52.702  33.180  52.458  0.00  0.00    -0.198 OA
BRANCH   9  12
ATOM     12  C   UNL d   1      53.015  32.855  53.542  0.00  0.00     0.105 A 
ATOM     13  C   UNL d   1      53.327  32.108  53.444  0.00  0.00     0.012 A 
ATOM     14  C   UNL d   1      54.042  31.903  53.811  0.00  0.00     0.001 A 
ATOM     15  C   UNL d   1      52.919  31.551  52.971  0.00  0.00     0.001 C 
ATOM     16  C   UNL d   1      54.436  32.451  54.272  0.00  0.00     0.000 A 
ATOM     17  C   UNL d   1      54.128  33.213  54.378  0.00  0.00     0.001 A 
ATOM     18  C   UNL d   1      53.411  33.411  54.007  0.00  0.00     0.013 A 
ATOM     19  C   UNL d   1      54.523  33.768  54.843  0.00  0.00     0.000 C 
ENDBRANCH   9  12
ENDBRANCH   8   9
ENDBRANCH   7   8
ENDBRANCH   4   7
BRANCH   1  20
ATOM     20  C   UNL d   1      48.395  34.870  51.592  0.00  0.00     0.265 C 
ATOM     21  N   UNL d   1      47.971  35.492  51.952  0.00  0.00    -0.273 N 
ATOM     22  C   UNL d   1      47.221  35.698  51.673  0.00  0.00     0.067 A 
ATOM     23  C   UNL d   1      48.299  35.899  52.585  0.00  0.00     0.083 A 
ATOM     24  C   UNL d   1      46.890  35.289  51.035  0.00  0.00     0.019 C 
ATOM     25  C   UNL d   1      46.805  36.312  52.030  0.00  0.00     0.018 A 
ATOM     26  C   UNL d   1      47.143  36.709  52.659  0.00  0.00     0.003 A 
ATOM     27  C   UNL d   1      47.885  36.506  52.937  0.00  0.00     0.019 A 
ATOM     28  O   UNL d   1      48.067  34.460  50.955  0.00  0.00    -0.267 OA
ENDBRANCH   1  20
TORSDOF 5
ENDMDL
MODEL 3
REMARK VINA RESULT:      -7.9      1.401      5.866
REMARK  5 active torsions:
REMARK  status: ('A' for Active; 'I' for Inactive)
REMARK    1  A    between atoms: C_4  and  S_1 
REMARK    2  A    between atoms: N_5  and  S_1 
REMARK       I    between atoms: N_2  and  C_3 
REMARK    3  A    between atoms: C_3  and  C_6 
REMARK    4  A    between atoms: C_16  and  N_5 
REMARK    5  A    between atoms: C_19  and  C_16 
ROOT
ATOM      1  C   UNL d   1      48.233  35.404  52.269  0.00  0.00     0.057 A 
ATOM      2  C   UNL d   1      48.815  35.654  52.801  0.00  0.00     0.005 A 
ATOM      3  C   UNL d   1      48.355  34.716  51.825  0.00  0.00     0.005 A 
ATOM      4  C   UNL d   1      49.631  34.534  52.442  0.00  0.00     0.020 A 
ATOM      5  C   UNL d   1      49.515  35.215  52.885  0.00  0.00     0.002 A 
ATOM      6  C   UNL d   1      49.056  34.281  51.911  0.00  0.00     0.002 A 
ENDROOT
BRANCH   4   7
ATOM      7  C   UNL d   1      50.325  34.101  52.527  0.00  0.00     0.112 C 
BRANCH   7   8
ATOM      8  N   UNL d   1      50.963  34.410  52.938  0.00  0.00    -0.157 NA
BRANCH   8   9
ATOM      9  S   UNL d   1      51.641  33.963  53.056  0.00  0.00     0.285 S 
ATOM     10  O   UNL d   1      51.890  34.141  52.293  0.00  0.00    -0.198 OA
ATOM     11  O   UNL d   1      51.388  33.785  53.827  0.00  0.00    -0.198 OA
BRANCH   9  12
ATOM     12  C   UNL d   1      52.325  33.514  53.173  0.00  0.00     0.105 A 
ATOM     13  C   UNL d   1      52.999  33.863  53.470  0.00  0.00     0.012 A 
ATOM     14  C   UNL d   1      53.685  33.412  53.587  0.00  0.00     0.001 A 
ATOM     15  C   UNL d   1      52.992  34.680  53.655  0.00  0.00     0.001 C 
ATOM     16  C   UNL d   1      53.686  32.615  53.405  0.00  0.00     0.000 A 
ATOM     17  C   UNL d   1      53.007  32.251  53.102  0.00  0.00     0.001 A 
ATOM     18  C   UNL d   1      52.322  32.710  52.988  0.00  0.00     0.013 A 
ATOM     19  C   UNL d   1      53.005  31.447  52.917  0.00  0.00     0.000 C 
ENDBRANCH   9  12
ENDBRANCH   8   9
ENDBRANCH   7   8
ENDBRANCH   4   7
BRANCH   1  20
ATOM     20  C   UNL d   1      47.539  35.836  52.184  0.00  0.00     0.265 C 
ATOM     21  N   UNL d   1      47.073  36.014  52.852  0.00  0.00    -0.273 N 
ATOM     22  C   UNL d   1      46.376  36.449  52.768  0.00  0.00     0.067 A 
ATOM     23  C   UNL d   1      47.309  35.757  53.596  0.00  0.00     0.083 A 
ATOM     24  C   UNL d   1      46.138  36.709  52.021  0.00  0.00     0.019 C 
ATOM     25  C   UNL d   1      45.918  36.623  53.431  0.00  0.00     0.018 A 
ATOM     26  C   UNL d   1      46.164  36.361  54.165  0.00  0.00     0.003 A 
ATOM     27  C   UNL d   1      46.854  35.930  54.250  0.00  0.00     0.019 A 
ATOM     28  O   UNL d   1      47.305  36.094  51.436  0.00  0.00    -0.267 OA
ENDBRANCH   1  20
TORSDOF 5
ENDMDL
