MODEL 1
REMARK VINA RESULT:      26.0      0.000      0.000
REMARK  6 active torsions:
REMARK  status: ('A' for Active; 'I' for Inactive)
REMARK    1  A    between atoms: C_2  and  S_1 
REMARK    2  A    between atoms: N_3  and  S_1 
REMARK    3  A    between atoms: C_9  and  N_3 
REMARK    4  A    between atoms: C_13  and  C_7 
REMARK    5  A    between atoms: O_14  and  C_8 
REMARK    6  A    between atoms: C_20  and  O_14 
ROOT
ATOM      1  C   UNL d   1      45.321 -14.680  44.606  0.00  0.00     0.128 A 
ATOM      2  C   UNL d   1      45.786 -14.050  44.342  0.00  0.00     0.015 A 
ATOM      3  C   UNL d   1      45.436 -13.323  44.166  0.00  0.00     0.001 A 
ATOM      4  C   UNL d   1      44.511 -14.578  44.691  0.00  0.00     0.112 A 
ATOM      5  C   UNL d   1      44.621 -13.228  44.254  0.00  0.00     0.002 A 
ATOM      6  C   UNL d   1      44.156 -13.858  44.517  0.00  0.00     0.025 A 
ENDROOT
BRANCH   1   7
ATOM      7  S   UNL d   1      45.676 -15.400  44.780  0.00  0.00     0.287 S 
ATOM      8  O   UNL d   1      46.416 -15.054  44.755  0.00  0.00    -0.198 OA
ATOM      9  O   UNL d   1      44.931 -15.752  44.806  0.00  0.00    -0.198 OA
BRANCH   7  10
ATOM     10  N   UNL d   1      46.025 -16.126  44.955  0.00  0.00    -0.157 NA
BRANCH  10  11
ATOM     11  C   UNL d   1      46.055 -16.716  44.378  0.00  0.00     0.113 A 
ATOM     12  C   UNL d   1      45.932 -16.528  43.592  0.00  0.00     0.119 A 
ATOM     13  N   UNL d   1      45.963 -17.118  43.016  0.00  0.00    -0.241 NA
ATOM     14  C   UNL d   1      46.119 -17.906  43.232  0.00  0.00     0.099 A 
ATOM     15  C   UNL d   1      46.242 -18.088  44.030  0.00  0.00     0.022 A 
ATOM     16  C   UNL d   1      46.212 -17.498  44.605  0.00  0.00     0.023 A 
ENDBRANCH  10  11
ENDBRANCH   7  10
ENDBRANCH   1   7
BRANCH   4  17
ATOM     17  O   UNL d   1      44.046 -15.209  44.955  0.00  0.00    -0.304 OA
BRANCH  17  18
ATOM     18  C   UNL d   1      43.238 -15.223  44.791  0.00  0.00     0.123 C 
ATOM     19  C   UNL d   1      42.770 -14.560  44.955  0.00  0.00     0.029 C 
ENDBRANCH  17  18
ENDBRANCH   4  17
BRANCH   3  20
ATOM     20  C   UNL d   1      45.901 -12.692  43.902  0.00  0.00     0.000 C 
ATOM     21  C   UNL d   1      46.038 -12.590  43.095  0.00  0.00     0.000 C 
ATOM     22  C   UNL d   1      46.230 -12.163  44.453  0.00  0.00     0.000 C 
ENDBRANCH   3  20
TORSDOF 6
ENDMDL
MODEL 2
REMARK VINA RESULT:      26.9      2.460      3.957
REMARK  6 active torsions:
REMARK  status: ('A' for Active; 'I' for Inactive)
REMARK    1  A    between atoms: C_2  and  S_1 
REMARK    2  A    between atoms: N_3  and  S_1 
REMARK    3  A    between atoms: C_9  and  N_3 
REMARK    4  A    between atoms: C_13  and  C_7 
REMARK    5  A    between atoms: O_14  and  C_8 
REMARK    6  A    between atoms: C_20  and  O_14 
ROOT
ATOM      1  C   UNL d   1      45.915 -17.966  43.567  0.00  0.00     0.128 A 
ATOM      2  C   UNL d   1      45.713 -17.166  43.578  0.00  0.00     0.015 A 
ATOM      3  C   UNL d   1      45.836 -16.717  44.260  0.00  0.00     0.001 A 
ATOM      4  C   UNL d   1      46.240 -18.312  44.237  0.00  0.00     0.112 A 
ATOM      5  C   UNL d   1      46.163 -17.071  44.930  0.00  0.00     0.002 A 
ATOM      6  C   UNL d   1      46.365 -17.872  44.919  0.00  0.00     0.025 A 
ENDROOT
BRANCH   1   7
ATOM      7  S   UNL d   1      45.790 -18.406  42.885  0.00  0.00     0.287 S 
ATOM      8  O   UNL d   1      45.358 -18.957  43.307  0.00  0.00    -0.198 OA
ATOM      9  O   UNL d   1      46.225 -17.853  42.456  0.00  0.00    -0.198 OA
BRANCH   7  10
ATOM     10  N   UNL d   1      45.667 -18.843  42.196  0.00  0.00    -0.157 NA
BRANCH  10  11
ATOM     11  C   UNL d   1      45.859 -18.515  41.463  0.00  0.00     0.113 A 
ATOM     12  C   UNL d   1      45.463 -17.852  41.195  0.00  0.00     0.119 A 
ATOM     13  N   UNL d   1      45.655 -17.525  40.462  0.00  0.00    -0.241 NA
ATOM     14  C   UNL d   1      46.251 -17.868  39.994  0.00  0.00     0.099 A 
ATOM     15  C   UNL d   1      46.647 -18.538  40.273  0.00  0.00     0.022 A 
ATOM     16  C   UNL d   1      46.455 -18.865  41.005  0.00  0.00     0.023 A 
ENDBRANCH  10  11
ENDBRANCH   7  10
ENDBRANCH   1   7
BRANCH   4  17
ATOM     17  O   UNL d   1      46.443 -19.113  44.226  0.00  0.00    -0.304 OA
BRANCH  17  18
ATOM     18  C   UNL d   1      46.280 -19.590  44.879  0.00  0.00     0.123 C 
ATOM     19  C   UNL d   1      46.646 -20.328  44.955  0.00  0.00     0.029 C 
ENDBRANCH  17  18
ENDBRANCH   4  17
BRANCH   3  20
ATOM     20  C   UNL d   1      45.633 -15.915  44.272  0.00  0.00     0.000 C 
ATOM     21  C   UNL d   1      45.911 -15.411  43.681  0.00  0.00     0.000 C 
ATOM     22  C   UNL d   1      45.149 -15.621  44.880  0.00  0.00     0.000 C 
ENDBRANCH   3  20
TORSDOF 6
ENDMDL
MODEL 3
REMARK VINA RESULT:      28.7      1.169      3.482
REMARK  6 active torsions:
REMARK  status: ('A' for Active; 'I' for Inactive)
REMARK    1  A    between atoms: C_2  and  S_1 
REMARK    2  A    between atoms: N_3  and  S_1 
REMARK    3  A    between atoms: C_9  and  N_3 
REMARK    4  A    between atoms: C_13  and  C_7 
REMARK    5  A    between atoms: O_14  and  C_8 
REMARK    6  A    between atoms: C_20  and  O_14 
ROOT
ATOM      1  C   UNL d   1      45.625 -15.639  44.522  0.00  0.00     0.128 A 
ATOM      2  C   UNL d   1      46.108 -16.241  44.228  0.00  0.00     0.015 A 
ATOM      3  C   UNL d   1      45.789 -16.984  44.063  0.00  0.00     0.001 A 
ATOM      4  C   UNL d   1      44.827 -15.785  44.649  0.00  0.00     0.112 A 
ATOM      5  C   UNL d   1      44.986 -17.123  44.193  0.00  0.00     0.002 A 
ATOM      6  C   UNL d   1      44.503 -16.521  44.487  0.00  0.00     0.025 A 
ENDROOT
BRANCH   1   7
ATOM      7  S   UNL d   1      45.949 -14.902  44.684  0.00  0.00     0.287 S 
ATOM      8  O   UNL d   1      45.269 -14.532  44.421  0.00  0.00    -0.198 OA
ATOM      9  O   UNL d   1      46.637 -15.271  44.950  0.00  0.00    -0.198 OA
BRANCH   7  10
ATOM     10  N   UNL d   1      46.282 -14.165  44.849  0.00  0.00    -0.157 NA
BRANCH  10  11
ATOM     11  C   UNL d   1      46.073 -13.510  44.393  0.00  0.00     0.113 A 
ATOM     12  C   UNL d   1      45.965 -13.589  43.586  0.00  0.00     0.119 A 
ATOM     13  N   UNL d   1      45.756 -12.934  43.131  0.00  0.00    -0.241 NA
ATOM     14  C   UNL d   1      45.656 -12.190  43.489  0.00  0.00     0.099 A 
ATOM     15  C   UNL d   1      45.768 -12.117  44.306  0.00  0.00     0.022 A 
ATOM     16  C   UNL d   1      45.976 -12.773  44.761  0.00  0.00     0.023 A 
ENDBRANCH  10  11
ENDBRANCH   7  10
ENDBRANCH   1   7
BRANCH   4  17
ATOM     17  O   UNL d   1      44.344 -15.182  44.943  0.00  0.00    -0.304 OA
BRANCH  17  18
ATOM     18  C   UNL d   1      43.645 -14.984  44.551  0.00  0.00     0.123 C 
ATOM     19  C   UNL d   1      42.920 -15.035  44.946  0.00  0.00     0.029 C 
ENDBRANCH  17  18
ENDBRANCH   4  17
BRANCH   3  20
ATOM     20  C   UNL d   1      46.272 -17.587  43.769  0.00  0.00     0.000 C 
ATOM     21  C   UNL d   1      46.464 -17.608  42.967  0.00  0.00     0.000 C 
ATOM     22  C   UNL d   1      46.563 -18.171  44.284  0.00  0.00     0.000 C 
ENDBRANCH   3  20
TORSDOF 6
ENDMDL
