MODEL 1
REMARK VINA RESULT:      -3.6      0.000      0.000
REMARK  5 active torsions:
REMARK  status: ('A' for Active; 'I' for Inactive)
REMARK    1  A    between atoms: C_7  and  C_1 
REMARK    2  A    between atoms: C_12  and  N_2 
REMARK    3  A    between atoms: C_8  and  C_7 
REMARK    4  A    between atoms: O_25  and  C_20 
REMARK    5  A    between atoms: C_26  and  O_25 
ROOT
ATOM      1  N   UNL d   1      57.458   0.150  31.526  0.00  0.00    -0.242 N 
ATOM      2  C   UNL d   1      58.251   0.381  31.653  0.00  0.00     0.267 A 
ATOM      3  C   UNL d   1      57.367  -0.004  30.719  0.00  0.00     0.267 A 
ATOM      4  C   UNL d   1      58.091   0.128  30.351  0.00  0.00     0.062 A 
ATOM      5  C   UNL d   1      58.639   0.366  30.925  0.00  0.00     0.066 A 
ATOM      6  O   UNL d   1      58.581   0.586  32.381  0.00  0.00    -0.267 OA
ATOM      7  O   UNL d   1      56.671  -0.248  30.351  0.00  0.00    -0.267 OA
ENDROOT
BRANCH   4   8
ATOM      8  C   UNL d   1      58.246   0.040  29.555  0.00  0.00     0.018 C 
BRANCH   8   9
ATOM      9  C   UNL d   1      58.861  -0.486  29.380  0.00  0.00     0.045 A 
ATOM     10  N   UNL d   1      58.836  -1.308  29.401  0.00  0.00    -0.308 N 
ATOM     11  C   UNL d   1      59.575  -1.596  29.185  0.00  0.00     0.060 A 
ATOM     12  C   UNL d   1      58.182  -1.756  29.603  0.00  0.00     0.099 C 
ATOM     13  C   UNL d   1      59.866  -2.359  29.111  0.00  0.00     0.017 A 
ATOM     14  C   UNL d   1      60.063  -0.950  29.029  0.00  0.00    -0.002 A 
ATOM     15  C   UNL d   1      60.644  -2.484  28.881  0.00  0.00     0.002 A 
ATOM     16  C   UNL d   1      61.133  -1.828  28.724  0.00  0.00    -0.000 A 
ATOM     17  C   UNL d   1      60.843  -1.065  28.799  0.00  0.00    -0.003 A 
ATOM     18  C   UNL d   1      59.621  -0.263  29.150  0.00  0.00     0.054 A 
ATOM     19  C   UNL d   1      60.416  -0.178  28.911  0.00  0.00     0.010 C 
ATOM     20  C   UNL d   1      59.944   0.498  29.041  0.00  0.00     0.010 C 
ENDBRANCH   8   9
ENDBRANCH   4   8
BRANCH   1  21
ATOM     21  C   UNL d   1      56.879   0.090  32.102  0.00  0.00     0.070 A 
ATOM     22  C   UNL d   1      56.870  -0.551  32.618  0.00  0.00     0.020 A 
ATOM     23  C   UNL d   1      56.281  -0.609  33.203  0.00  0.00     0.026 A 
ATOM     24  C   UNL d   1      55.703  -0.024  33.267  0.00  0.00     0.100 A 
ATOM     25  C   UNL d   1      55.710   0.623  32.748  0.00  0.00     0.026 A 
ATOM     26  C   UNL d   1      56.295   0.682  32.167  0.00  0.00     0.020 A 
BRANCH  24  27
ATOM     27  O   UNL d   1      55.117  -0.077  33.844  0.00  0.00    -0.305 OA
BRANCH  27  28
ATOM     28  C   UNL d   1      55.130   0.419  34.498  0.00  0.00     0.123 C 
ATOM     29  C   UNL d   1      54.433   0.604  34.895  0.00  0.00     0.029 C 
ENDBRANCH  27  28
ENDBRANCH  24  27
ENDBRANCH   1  21
TORSDOF 5
ENDMDL
MODEL 2
REMARK VINA RESULT:      -2.4      0.608      1.202
REMARK  5 active torsions:
REMARK  status: ('A' for Active; 'I' for Inactive)
REMARK    1  A    between atoms: C_7  and  C_1 
REMARK    2  A    between atoms: C_12  and  N_2 
REMARK    3  A    between atoms: C_8  and  C_7 
REMARK    4  A    between atoms: O_25  and  C_20 
REMARK    5  A    between atoms: C_26  and  O_25 
ROOT
ATOM      1  N   UNL d   1      57.353   0.025  31.888  0.00  0.00    -0.242 N 
ATOM      2  C   UNL d   1      58.163   0.226  31.925  0.00  0.00     0.267 A 
ATOM      3  C   UNL d   1      57.176  -0.159  31.102  0.00  0.00     0.267 A 
ATOM      4  C   UNL d   1      57.864  -0.074  30.658  0.00  0.00     0.062 A 
ATOM      5  C   UNL d   1      58.476   0.164  31.164  0.00  0.00     0.066 A 
ATOM      6  O   UNL d   1      58.573   0.447  32.608  0.00  0.00    -0.267 OA
ATOM      7  O   UNL d   1      56.437  -0.388  30.816  0.00  0.00    -0.267 OA
ENDROOT
BRANCH   4   8
ATOM      8  C   UNL d   1      57.934  -0.201  29.856  0.00  0.00     0.018 C 
BRANCH   8   9
ATOM      9  C   UNL d   1      58.646  -0.557  29.625  0.00  0.00     0.045 A 
ATOM     10  N   UNL d   1      59.376  -0.194  29.526  0.00  0.00    -0.308 N 
ATOM     11  C   UNL d   1      59.922  -0.764  29.293  0.00  0.00     0.060 A 
ATOM     12  C   UNL d   1      59.528   0.602  29.642  0.00  0.00     0.099 C 
ATOM     13  C   UNL d   1      60.720  -0.719  29.118  0.00  0.00     0.017 A 
ATOM     14  C   UNL d   1      59.527  -1.487  29.248  0.00  0.00    -0.002 A 
ATOM     15  C   UNL d   1      61.133  -1.393  28.896  0.00  0.00     0.002 A 
ATOM     16  C   UNL d   1      60.731  -2.121  28.851  0.00  0.00    -0.000 A 
ATOM     17  C   UNL d   1      59.931  -2.166  29.026  0.00  0.00    -0.003 A 
ATOM     18  C   UNL d   1      58.738  -1.359  29.453  0.00  0.00     0.054 A 
ATOM     19  C   UNL d   1      58.968  -2.136  29.253  0.00  0.00     0.010 C 
ATOM     20  C   UNL d   1      58.176  -1.975  29.466  0.00  0.00     0.010 C 
ENDBRANCH   8   9
ENDBRANCH   4   8
BRANCH   1  21
ATOM     21  C   UNL d   1      56.833   0.013  32.521  0.00  0.00     0.070 A 
ATOM     22  C   UNL d   1      56.376  -0.654  32.672  0.00  0.00     0.020 A 
ATOM     23  C   UNL d   1      55.848  -0.663  33.315  0.00  0.00     0.026 A 
ATOM     24  C   UNL d   1      55.781  -0.002  33.804  0.00  0.00     0.100 A 
ATOM     25  C   UNL d   1      56.242   0.672  33.653  0.00  0.00     0.026 A 
ATOM     26  C   UNL d   1      56.766   0.682  33.015  0.00  0.00     0.020 A 
BRANCH  24  27
ATOM     27  O   UNL d   1      55.260  -0.005  34.443  0.00  0.00    -0.305 OA
BRANCH  27  28
ATOM     28  C   UNL d   1      55.479   0.328  35.161  0.00  0.00     0.123 C 
ATOM     29  C   UNL d   1      55.016   0.214  35.832  0.00  0.00     0.029 C 
ENDBRANCH  27  28
ENDBRANCH  24  27
ENDBRANCH   1  21
TORSDOF 5
ENDMDL
