MODEL 1
REMARK VINA RESULT:      -9.7      0.000      0.000
REMARK  4 active torsions:
REMARK  status: ('A' for Active; 'I' for Inactive)
REMARK    1  A    between atoms: C_7  and  C_1 
REMARK       I    between atoms: C_6  and  N_8 
REMARK    2  A    between atoms: C_14  and  C_6 
REMARK    3  A    between atoms: N_8  and  C_15 
REMARK    4  A    between atoms: C_20  and  C_14 
ROOT
ATOM      1  C   UNL d   1      50.704  34.014  52.759  0.00  0.00     0.024 A 
ATOM      2  C   UNL d   1      50.699  33.307  53.169  0.00  0.00     0.004 A 
ATOM      3  C   UNL d   1      51.361  34.242  52.301  0.00  0.00     0.004 A 
ATOM      4  C   UNL d   1      52.017  33.019  52.680  0.00  0.00     0.085 A 
ATOM      5  C   UNL d   1      51.363  32.798  53.133  0.00  0.00     0.019 A 
ATOM      6  C   UNL d   1      52.019  33.729  52.269  0.00  0.00     0.019 A 
ENDROOT
BRANCH   1   7
ATOM      7  C   UNL d   1      50.050  34.500  52.804  0.00  0.00     0.111 A 
ATOM      8  N   UNL d   1      49.841  34.928  53.459  0.00  0.00    -0.239 NA
ATOM      9  C   UNL d   1      49.156  35.353  53.307  0.00  0.00     0.088 A 
ATOM     10  C   UNL d   1      48.703  35.866  53.753  0.00  0.00     0.020 A 
ATOM     11  C   UNL d   1      48.935  35.176  52.521  0.00  0.00     0.049 A 
ATOM     12  C   UNL d   1      48.043  36.198  53.425  0.00  0.00     0.002 A 
ATOM     13  C   UNL d   1      47.822  36.022  52.639  0.00  0.00     0.001 A 
ATOM     14  C   UNL d   1      48.261  35.516  52.189  0.00  0.00     0.008 A 
ATOM     15  C   UNL d   1      47.144  36.373  52.325  0.00  0.00     0.000 C 
ATOM     16  S   UNL d   1      49.485  34.653  52.214  0.00  0.00    -0.066 SA
ENDBRANCH   1   7
BRANCH   4  17
ATOM     17  N   UNL d   1      52.662  32.537  52.636  0.00  0.00    -0.208 NA
ATOM     18  C   UNL d   1      53.221  32.588  53.157  0.00  0.00     0.279 C 
ATOM     19  O   UNL d   1      53.920  32.072  53.117  0.00  0.00    -0.265 OA
BRANCH  18  20
ATOM     20  C   UNL d   1      53.077  33.162  53.723  0.00  0.00     0.062 C 
BRANCH  20  21
ATOM     21  C   UNL d   1      53.620  33.293  54.311  0.00  0.00     0.005 A 
ATOM     22  C   UNL d   1      54.060  33.984  54.297  0.00  0.00     0.000 A 
ATOM     23  C   UNL d   1      54.625  34.138  54.893  0.00  0.00     0.000 A 
ATOM     24  C   UNL d   1      54.734  33.584  55.497  0.00  0.00     0.000 A 
ATOM     25  C   UNL d   1      54.284  32.888  55.501  0.00  0.00     0.000 A 
ATOM     26  C   UNL d   1      53.731  32.736  54.918  0.00  0.00     0.000 A 
ENDBRANCH  20  21
ENDBRANCH  18  20
ENDBRANCH   4  17
TORSDOF 4
ENDMDL
MODEL 2
REMARK VINA RESULT:      -9.1      1.327      2.058
REMARK  4 active torsions:
REMARK  status: ('A' for Active; 'I' for Inactive)
REMARK    1  A    between atoms: C_7  and  C_1 
REMARK       I    between atoms: C_6  and  N_8 
REMARK    2  A    between atoms: C_14  and  C_6 
REMARK    3  A    between atoms: N_8  and  C_15 
REMARK    4  A    between atoms: C_20  and  C_14 
ROOT
ATOM      1  C   UNL d   1      51.164  34.175  52.724  0.00  0.00     0.024 A 
ATOM      2  C   UNL d   1      51.253  33.939  53.501  0.00  0.00     0.004 A 
ATOM      3  C   UNL d   1      51.809  34.178  52.197  0.00  0.00     0.004 A 
ATOM      4  C   UNL d   1      52.647  33.696  53.262  0.00  0.00     0.085 A 
ATOM      5  C   UNL d   1      52.004  33.694  53.780  0.00  0.00     0.019 A 
ATOM      6  C   UNL d   1      52.554  33.933  52.482  0.00  0.00     0.019 A 
ENDROOT
BRANCH   1   7
ATOM      7  C   UNL d   1      50.426  34.411  52.466  0.00  0.00     0.111 A 
ATOM      8  N   UNL d   1      50.119  34.240  51.736  0.00  0.00    -0.239 NA
ATOM      9  C   UNL d   1      49.368  34.563  51.668  0.00  0.00     0.088 A 
ATOM     10  C   UNL d   1      48.812  34.566  51.070  0.00  0.00     0.020 A 
ATOM     11  C   UNL d   1      49.208  34.951  52.390  0.00  0.00     0.049 A 
ATOM     12  C   UNL d   1      48.108  34.948  51.187  0.00  0.00     0.002 A 
ATOM     13  C   UNL d   1      47.948  35.336  51.909  0.00  0.00     0.001 A 
ATOM     14  C   UNL d   1      48.490  35.339  52.507  0.00  0.00     0.008 A 
ATOM     15  C   UNL d   1      47.223  35.719  52.006  0.00  0.00     0.000 C 
ATOM     16  S   UNL d   1      49.858  34.856  52.878  0.00  0.00    -0.066 SA
ENDBRANCH   1   7
BRANCH   4  17
ATOM     17  N   UNL d   1      53.375  33.463  53.518  0.00  0.00    -0.208 NA
ATOM     18  C   UNL d   1      53.559  32.720  53.542  0.00  0.00     0.279 C 
ATOM     19  O   UNL d   1      54.343  32.461  53.818  0.00  0.00    -0.265 OA
BRANCH  18  20
ATOM     20  C   UNL d   1      52.952  32.233  53.288  0.00  0.00     0.062 C 
BRANCH  20  21
ATOM     21  C   UNL d   1      53.035  31.428  53.336  0.00  0.00     0.005 A 
ATOM     22  C   UNL d   1      52.888  30.974  52.670  0.00  0.00     0.000 A 
ATOM     23  C   UNL d   1      52.967  30.143  52.698  0.00  0.00     0.000 A 
ATOM     24  C   UNL d   1      53.196  29.784  53.407  0.00  0.00     0.000 A 
ATOM     25  C   UNL d   1      53.342  30.253  54.075  0.00  0.00     0.000 A 
ATOM     26  C   UNL d   1      53.265  31.066  54.049  0.00  0.00     0.000 A 
ENDBRANCH  20  21
ENDBRANCH  18  20
ENDBRANCH   4  17
TORSDOF 4
ENDMDL
MODEL 3
REMARK VINA RESULT:      -8.6      1.636      5.335
REMARK  4 active torsions:
REMARK  status: ('A' for Active; 'I' for Inactive)
REMARK    1  A    between atoms: C_7  and  C_1 
REMARK       I    between atoms: C_6  and  N_8 
REMARK    2  A    between atoms: C_14  and  C_6 
REMARK    3  A    between atoms: N_8  and  C_15 
REMARK    4  A    between atoms: C_20  and  C_14 
ROOT
ATOM      1  C   UNL d   1      51.547  33.835  52.920  0.00  0.00     0.024 A 
ATOM      2  C   UNL d   1      50.855  33.459  53.138  0.00  0.00     0.004 A 
ATOM      3  C   UNL d   1      51.573  34.348  52.265  0.00  0.00     0.004 A 
ATOM      4  C   UNL d   1      50.174  34.095  52.047  0.00  0.00     0.085 A 
ATOM      5  C   UNL d   1      50.154  33.588  52.697  0.00  0.00     0.019 A 
ATOM      6  C   UNL d   1      50.870  34.471  51.831  0.00  0.00     0.019 A 
ENDROOT
BRANCH   1   7
ATOM      7  C   UNL d   1      52.223  33.700  53.359  0.00  0.00     0.111 A 
ATOM      8  N   UNL d   1      52.660  33.019  53.330  0.00  0.00    -0.239 NA
ATOM      9  C   UNL d   1      53.299  33.076  53.841  0.00  0.00     0.088 A 
ATOM     10  C   UNL d   1      53.909  32.569  54.034  0.00  0.00     0.020 A 
ATOM     11  C   UNL d   1      53.250  33.829  54.201  0.00  0.00     0.049 A 
ATOM     12  C   UNL d   1      54.462  32.805  54.575  0.00  0.00     0.002 A 
ATOM     13  C   UNL d   1      54.414  33.557  54.935  0.00  0.00     0.001 A 
ATOM     14  C   UNL d   1      53.815  34.066  54.752  0.00  0.00     0.008 A 
ATOM     15  C   UNL d   1      54.990  33.777  55.485  0.00  0.00     0.000 C 
ATOM     16  S   UNL d   1      52.590  34.209  53.904  0.00  0.00    -0.066 SA
ENDBRANCH   1   7
BRANCH   4  17
ATOM     17  N   UNL d   1      49.505  34.228  51.615  0.00  0.00    -0.208 NA
ATOM     18  C   UNL d   1      48.976  34.723  51.860  0.00  0.00     0.279 C 
ATOM     19  O   UNL d   1      48.253  34.871  51.400  0.00  0.00    -0.265 OA
BRANCH  18  20
ATOM     20  C   UNL d   1      49.174  35.074  52.573  0.00  0.00     0.062 C 
BRANCH  20  21
ATOM     21  C   UNL d   1      48.672  35.616  52.909  0.00  0.00     0.005 A 
ATOM     22  C   UNL d   1      48.610  35.645  53.724  0.00  0.00     0.000 A 
ATOM     23  C   UNL d   1      48.098  36.195  54.091  0.00  0.00     0.000 A 
ATOM     24  C   UNL d   1      47.656  36.709  53.618  0.00  0.00     0.000 A 
ATOM     25  C   UNL d   1      47.727  36.671  52.793  0.00  0.00     0.000 A 
ATOM     26  C   UNL d   1      48.227  36.134  52.434  0.00  0.00     0.000 A 
ENDBRANCH  20  21
ENDBRANCH  18  20
ENDBRANCH   4  17
TORSDOF 4
ENDMDL
