MODEL 1
REMARK VINA RESULT:      -2.9      0.000      0.000
REMARK  3 active torsions:
REMARK  status: ('A' for Active; 'I' for Inactive)
REMARK    1  A    between atoms: S_4  and  C_1 
REMARK    2  A    between atoms: C_8  and  S_4 
REMARK    3  A    between atoms: C_10  and  C_8 
ROOT
ATOM      1  C   UNL d   1      31.600  16.237 -23.615  0.00  0.00     0.114 A 
ATOM      2  C   UNL d   1      32.012  16.940 -23.719  0.00  0.00     0.042 A 
ATOM      3  N   UNL d   1      32.005  15.555 -23.388  0.00  0.00    -0.217 NA
ATOM      4  N   UNL d   1      33.234  16.288 -23.370  0.00  0.00    -0.224 NA
ATOM      5  C   UNL d   1      32.823  15.580 -23.265  0.00  0.00     0.200 A 
ATOM      6  C   UNL d   1      32.829  16.965 -23.596  0.00  0.00     0.085 A 
ATOM      7  C   UNL d   1      31.606  17.621 -23.947  0.00  0.00     0.004 A 
ATOM      8  C   UNL d   1      33.241  17.673 -23.701  0.00  0.00     0.019 A 
ATOM      9  C   UNL d   1      32.018  18.329 -24.051  0.00  0.00     0.000 A 
ATOM     10  C   UNL d   1      32.836  18.354 -23.929  0.00  0.00     0.002 A 
ENDROOT
BRANCH   1  11
ATOM     11  S   UNL d   1      30.783  16.211 -23.738  0.00  0.00    -0.067 SA
BRANCH  11  12
ATOM     12  C   UNL d   1      30.367  15.518 -23.611  0.00  0.00     0.037 C 
BRANCH  12  13
ATOM     13  C   UNL d   1      29.548  15.522 -23.609  0.00  0.00     0.007 A 
ATOM     14  C   UNL d   1      29.122  15.582 -22.897  0.00  0.00     0.003 A 
ATOM     15  C   UNL d   1      28.306  15.585 -22.906  0.00  0.00     0.030 A 
ATOM     16  C   UNL d   1      27.904  15.530 -23.616  0.00  0.00     0.140 A 
ATOM     17  C   UNL d   1      28.315  15.472 -24.321  0.00  0.00     0.030 A 
ATOM     18  F   UNL d   1      27.072  15.534 -23.622  0.00  0.00    -0.204 F 
ATOM     19  C   UNL d   1      29.141  15.467 -24.327  0.00  0.00     0.003 A 
ENDBRANCH  12  13
ENDBRANCH  11  12
ENDBRANCH   1  11
TORSDOF 3
ENDMDL
MODEL 2
REMARK VINA RESULT:      -2.5      1.133      1.704
REMARK  3 active torsions:
REMARK  status: ('A' for Active; 'I' for Inactive)
REMARK    1  A    between atoms: S_4  and  C_1 
REMARK    2  A    between atoms: C_8  and  S_4 
REMARK    3  A    between atoms: C_10  and  C_8 
ROOT
ATOM      1  C   UNL d   1      31.092  17.011 -24.331  0.00  0.00     0.114 A 
ATOM      2  C   UNL d   1      31.807  16.746 -24.025  0.00  0.00     0.042 A 
ATOM      3  N   UNL d   1      31.072  17.701 -24.784  0.00  0.00    -0.217 NA
ATOM      4  N   UNL d   1      32.485  17.854 -24.621  0.00  0.00    -0.224 NA
ATOM      5  C   UNL d   1      31.768  18.122 -24.929  0.00  0.00     0.200 A 
ATOM      6  C   UNL d   1      32.504  17.167 -24.170  0.00  0.00     0.085 A 
ATOM      7  C   UNL d   1      31.827  16.057 -23.571  0.00  0.00     0.004 A 
ATOM      8  C   UNL d   1      33.220  16.899 -23.862  0.00  0.00     0.019 A 
ATOM      9  C   UNL d   1      32.544  15.789 -23.263  0.00  0.00     0.000 A 
ATOM     10  C   UNL d   1      33.241  16.210 -23.409  0.00  0.00     0.002 A 
ENDROOT
BRANCH   1  11
ATOM     11  S   UNL d   1      30.396  16.590 -24.186  0.00  0.00    -0.067 SA
BRANCH  11  12
ATOM     12  C   UNL d   1      29.667  16.932 -24.333  0.00  0.00     0.037 C 
BRANCH  12  13
ATOM     13  C   UNL d   1      28.979  16.561 -24.088  0.00  0.00     0.007 A 
ATOM     14  C   UNL d   1      28.764  15.817 -24.391  0.00  0.00     0.003 A 
ATOM     15  C   UNL d   1      28.077  15.456 -24.141  0.00  0.00     0.030 A 
ATOM     16  C   UNL d   1      27.597  15.824 -23.590  0.00  0.00     0.140 A 
ATOM     17  C   UNL d   1      27.801  16.556 -23.287  0.00  0.00     0.030 A 
ATOM     18  F   UNL d   1      26.897  15.453 -23.337  0.00  0.00    -0.204 F 
ATOM     19  C   UNL d   1      28.494  16.934 -23.532  0.00  0.00     0.003 A 
ENDBRANCH  12  13
ENDBRANCH  11  12
ENDBRANCH   1  11
TORSDOF 3
ENDMDL
MODEL 3
REMARK VINA RESULT:      -2.5      3.483      4.909
REMARK  3 active torsions:
REMARK  status: ('A' for Active; 'I' for Inactive)
REMARK    1  A    between atoms: S_4  and  C_1 
REMARK    2  A    between atoms: C_8  and  S_4 
REMARK    3  A    between atoms: C_10  and  C_8 
ROOT
ATOM      1  C   UNL d   1      33.076  20.590 -22.659  0.00  0.00     0.114 A 
ATOM      2  C   UNL d   1      33.069  21.019 -21.958  0.00  0.00     0.042 A 
ATOM      3  N   UNL d   1      33.162  20.985 -23.378  0.00  0.00    -0.217 NA
ATOM      4  N   UNL d   1      33.233  22.236 -22.688  0.00  0.00    -0.224 NA
ATOM      5  C   UNL d   1      33.241  21.808 -23.393  0.00  0.00     0.200 A 
ATOM      6  C   UNL d   1      33.147  21.842 -21.973  0.00  0.00     0.085 A 
ATOM      7  C   UNL d   1      32.982  20.625 -21.238  0.00  0.00     0.004 A 
ATOM      8  C   UNL d   1      33.140  22.271 -21.268  0.00  0.00     0.019 A 
ATOM      9  C   UNL d   1      32.975  21.054 -20.533  0.00  0.00     0.000 A 
ATOM     10  C   UNL d   1      33.054  21.877 -20.548  0.00  0.00     0.002 A 
ENDROOT
BRANCH   1  11
ATOM     11  S   UNL d   1      32.997  19.768 -22.644  0.00  0.00    -0.067 SA
BRANCH  11  12
ATOM     12  C   UNL d   1      33.068  19.333 -23.333  0.00  0.00     0.037 C 
BRANCH  12  13
ATOM     13  C   UNL d   1      32.849  18.544 -23.348  0.00  0.00     0.007 A 
ATOM     14  C   UNL d   1      33.241  17.982 -22.876  0.00  0.00     0.003 A 
ATOM     15  C   UNL d   1      33.015  17.199 -22.898  0.00  0.00     0.030 A 
ATOM     16  C   UNL d   1      32.401  16.963 -23.385  0.00  0.00     0.140 A 
ATOM     17  C   UNL d   1      32.010  17.509 -23.852  0.00  0.00     0.030 A 
ATOM     18  F   UNL d   1      32.173  16.162 -23.405  0.00  0.00    -0.204 F 
ATOM     19  C   UNL d   1      32.228  18.305 -23.840  0.00  0.00     0.003 A 
ENDBRANCH  12  13
ENDBRANCH  11  12
ENDBRANCH   1  11
TORSDOF 3
ENDMDL
MODEL 4
REMARK VINA RESULT:      -2.1      2.176      4.255
REMARK  3 active torsions:
REMARK  status: ('A' for Active; 'I' for Inactive)
REMARK    1  A    between atoms: S_4  and  C_1 
REMARK    2  A    between atoms: C_8  and  S_4 
REMARK    3  A    between atoms: C_10  and  C_8 
ROOT
ATOM      1  C   UNL d   1      30.519  16.759 -23.886  0.00  0.00     0.114 A 
ATOM      2  C   UNL d   1      29.701  16.715 -23.954  0.00  0.00     0.042 A 
ATOM      3  N   UNL d   1      30.931  16.150 -23.512  0.00  0.00    -0.217 NA
ATOM      4  N   UNL d   1      29.701  15.457 -23.276  0.00  0.00    -0.224 NA
ATOM      5  C   UNL d   1      30.522  15.499 -23.207  0.00  0.00     0.200 A 
ATOM      6  C   UNL d   1      29.292  16.064 -23.648  0.00  0.00     0.085 A 
ATOM      7  C   UNL d   1      29.289  17.324 -24.328  0.00  0.00     0.004 A 
ATOM      8  C   UNL d   1      28.471  16.023 -23.718  0.00  0.00     0.019 A 
ATOM      9  C   UNL d   1      28.467  17.282 -24.397  0.00  0.00     0.000 A 
ATOM     10  C   UNL d   1      28.059  16.631 -24.092  0.00  0.00     0.002 A 
ENDROOT
BRANCH   1  11
ATOM     11  S   UNL d   1      30.927  17.409 -24.191  0.00  0.00    -0.067 SA
BRANCH  11  12
ATOM     12  C   UNL d   1      31.736  17.478 -24.083  0.00  0.00     0.037 C 
BRANCH  12  13
ATOM     13  C   UNL d   1      32.109  18.196 -24.208  0.00  0.00     0.007 A 
ATOM     14  C   UNL d   1      32.255  18.717 -23.577  0.00  0.00     0.003 A 
ATOM     15  C   UNL d   1      32.628  19.430 -23.712  0.00  0.00     0.030 A 
ATOM     16  C   UNL d   1      32.860  19.634 -24.469  0.00  0.00     0.140 A 
ATOM     17  C   UNL d   1      32.721  19.127 -25.096  0.00  0.00     0.030 A 
ATOM     18  F   UNL d   1      33.241  20.362 -24.603  0.00  0.00    -0.204 F 
ATOM     19  C   UNL d   1      32.344  18.402 -24.974  0.00  0.00     0.003 A 
ENDBRANCH  12  13
ENDBRANCH  11  12
ENDBRANCH   1  11
TORSDOF 3
ENDMDL
MODEL 5
REMARK VINA RESULT:      -1.7      5.158      6.897
REMARK  3 active torsions:
REMARK  status: ('A' for Active; 'I' for Inactive)
REMARK    1  A    between atoms: S_4  and  C_1 
REMARK    2  A    between atoms: C_8  and  S_4 
REMARK    3  A    between atoms: C_10  and  C_8 
ROOT
ATOM      1  C   UNL d   1      32.932  21.352 -22.476  0.00  0.00     0.114 A 
ATOM      2  C   UNL d   1      33.005  20.541 -22.595  0.00  0.00     0.042 A 
ATOM      3  N   UNL d   1      33.012  21.866 -23.117  0.00  0.00    -0.217 NA
ATOM      4  N   UNL d   1      33.237  20.754 -23.988  0.00  0.00    -0.224 NA
ATOM      5  C   UNL d   1      33.165  21.567 -23.873  0.00  0.00     0.200 A 
ATOM      6  C   UNL d   1      33.157  20.243 -23.350  0.00  0.00     0.085 A 
ATOM      7  C   UNL d   1      32.925  20.027 -21.954  0.00  0.00     0.004 A 
ATOM      8  C   UNL d   1      33.229  19.429 -23.466  0.00  0.00     0.019 A 
ATOM      9  C   UNL d   1      32.998  19.213 -22.071  0.00  0.00     0.000 A 
ATOM     10  C   UNL d   1      33.150  18.914 -22.827  0.00  0.00     0.002 A 
ENDROOT
BRANCH   1  11
ATOM     11  S   UNL d   1      32.780  21.650 -21.721  0.00  0.00    -0.067 SA
BRANCH  11  12
ATOM     12  C   UNL d   1      32.676  22.454 -21.607  0.00  0.00     0.037 C 
BRANCH  12  13
ATOM     13  C   UNL d   1      32.630  22.761 -20.850  0.00  0.00     0.007 A 
ATOM     14  C   UNL d   1      33.238  22.630 -20.298  0.00  0.00     0.003 A 
ATOM     15  C   UNL d   1      33.183  22.941 -19.546  0.00  0.00     0.030 A 
ATOM     16  C   UNL d   1      32.528  23.381 -19.331  0.00  0.00     0.140 A 
ATOM     17  C   UNL d   1      31.924  23.514 -19.868  0.00  0.00     0.030 A 
ATOM     18  F   UNL d   1      32.474  23.696 -18.562  0.00  0.00    -0.204 F 
ATOM     19  C   UNL d   1      31.967  23.206 -20.633  0.00  0.00     0.003 A 
ENDBRANCH  12  13
ENDBRANCH  11  12
ENDBRANCH   1  11
TORSDOF 3
ENDMDL
MODEL 6
REMARK VINA RESULT:      -1.5      6.399      7.957
REMARK  3 active torsions:
REMARK  status: ('A' for Active; 'I' for Inactive)
REMARK    1  A    between atoms: S_4  and  C_1 
REMARK    2  A    between atoms: C_8  and  S_4 
REMARK    3  A    between atoms: C_10  and  C_8 
ROOT
ATOM      1  C   UNL d   1      32.808  22.498 -21.213  0.00  0.00     0.114 A 
ATOM      2  C   UNL d   1      32.912  21.749 -21.534  0.00  0.00     0.042 A 
ATOM      3  N   UNL d   1      32.914  23.164 -21.689  0.00  0.00    -0.217 NA
ATOM      4  N   UNL d   1      33.229  22.324 -22.803  0.00  0.00    -0.224 NA
ATOM      5  C   UNL d   1      33.125  23.077 -22.484  0.00  0.00     0.200 A 
ATOM      6  C   UNL d   1      33.123  21.662 -22.329  0.00  0.00     0.085 A 
ATOM      7  C   UNL d   1      32.806  21.083 -21.058  0.00  0.00     0.004 A 
ATOM      8  C   UNL d   1      33.227  20.908 -22.648  0.00  0.00     0.019 A 
ATOM      9  C   UNL d   1      32.910  20.329 -21.378  0.00  0.00     0.000 A 
ATOM     10  C   UNL d   1      33.121  20.242 -22.173  0.00  0.00     0.002 A 
ENDROOT
BRANCH   1  11
ATOM     11  S   UNL d   1      32.597  22.586 -20.419  0.00  0.00    -0.067 SA
BRANCH  11  12
ATOM     12  C   UNL d   1      32.854  23.235 -19.992  0.00  0.00     0.037 C 
BRANCH  12  13
ATOM     13  C   UNL d   1      32.685  23.296 -19.193  0.00  0.00     0.007 A 
ATOM     14  C   UNL d   1      31.963  23.018 -18.886  0.00  0.00     0.003 A 
ATOM     15  C   UNL d   1      31.804  23.084 -18.088  0.00  0.00     0.030 A 
ATOM     16  C   UNL d   1      32.354  23.425 -17.588  0.00  0.00     0.140 A 
ATOM     17  C   UNL d   1      33.066  23.701 -17.881  0.00  0.00     0.030 A 
ATOM     18  F   UNL d   1      32.189  23.491 -16.775  0.00  0.00    -0.204 F 
ATOM     19  C   UNL d   1      33.240  23.641 -18.686  0.00  0.00     0.003 A 
ENDBRANCH  12  13
ENDBRANCH  11  12
ENDBRANCH   1  11
TORSDOF 3
ENDMDL
