MODEL 1
REMARK VINA RESULT:      29.1      0.000      0.000
REMARK  1 active torsions:
REMARK  status: ('A' for Active; 'I' for Inactive)
REMARK    1  A    between atoms: C_7  and  N_1 
ROOT
ATOM      1  N   UNL d   1     -57.576 -98.776 -44.550  0.00  0.00    -0.226 N 
ATOM      2  C   UNL d   1     -58.207 -98.768 -45.082  0.00  0.00     0.359 A 
ATOM      3  C   UNL d   1     -57.719 -98.788 -43.737  0.00  0.00     0.273 A 
ATOM      4  N   UNL d   1     -58.982 -98.773 -44.799  0.00  0.00    -0.153 NA
ATOM      5  C   UNL d   1     -59.126 -98.786 -43.985  0.00  0.00     0.288 A 
ATOM      6  C   UNL d   1     -58.495 -98.793 -43.453  0.00  0.00     0.124 A 
ATOM      7  O   UNL d   1     -58.067 -98.756 -45.897  0.00  0.00    -0.244 OA
ATOM      8  O   UNL d   1     -57.088 -98.796 -43.205  0.00  0.00    -0.266 OA
ATOM      9  O   UNL d   1     -59.901 -98.791 -43.702  0.00  0.00    -0.265 OA
ENDROOT
BRANCH   1  10
ATOM     10  C   UNL d   1     -56.800 -98.771 -44.833  0.00  0.00     0.071 A 
ATOM     11  C   UNL d   1     -56.163 -98.766 -44.292  0.00  0.00     0.016 A 
ATOM     12  C   UNL d   1     -56.315 -98.765 -43.479  0.00  0.00     0.002 C 
ATOM     13  C   UNL d   1     -55.389 -98.760 -44.570  0.00  0.00     0.001 A 
ATOM     14  C   UNL d   1     -55.241 -98.761 -45.384  0.00  0.00     0.000 A 
ATOM     15  C   UNL d   1     -55.872 -98.766 -45.915  0.00  0.00     0.002 A 
ATOM     16  C   UNL d   1     -56.658 -98.771 -45.639  0.00  0.00     0.018 A 
ENDBRANCH   1  10
TORSDOF 1
ENDMDL
