MODEL 1
REMARK VINA RESULT:      -8.5      0.000      0.000
REMARK  1 active torsions:
REMARK  status: ('A' for Active; 'I' for Inactive)
REMARK    1  A    between atoms: C_6  and  N_1 
ROOT
ATOM      1  C   UNL d   1      53.934  32.406  53.942  0.00  0.00     0.086 A 
ATOM      2  C   UNL d   1      53.746  32.510  54.732  0.00  0.00     0.023 A 
ATOM      3  C   UNL d   1      54.575  32.808  53.611  0.00  0.00     0.023 A 
ATOM      4  C   UNL d   1      54.833  33.419  54.875  0.00  0.00     0.196 A 
ATOM      5  C   UNL d   1      55.026  33.317  54.079  0.00  0.00     0.044 A 
ATOM      6  C   UNL d   1      54.197  33.019  55.200  0.00  0.00     0.044 A 
ATOM      7  O   UNL d   1      55.282  33.925  55.341  0.00  0.00    -0.287 OA
ENDROOT
BRANCH   1   8
ATOM      8  N   UNL d   1      53.486  31.902  53.482  0.00  0.00    -0.189 N 
ATOM      9  N   UNL d   1      52.981  32.121  52.866  0.00  0.00    -0.038 NA
ATOM     10  N   UNL d   1      52.644  31.434  52.559  0.00  0.00    -0.022 NA
ATOM     11  N   UNL d   1      52.934  30.800  52.977  0.00  0.00    -0.104 NA
ATOM     12  C   UNL d   1      53.457  31.084  53.551  0.00  0.00     0.226 A 
ENDBRANCH   1   8
TORSDOF 1
ENDMDL
MODEL 2
REMARK VINA RESULT:      -7.6      2.192      3.019
REMARK  1 active torsions:
REMARK  status: ('A' for Active; 'I' for Inactive)
REMARK    1  A    between atoms: C_6  and  N_1 
ROOT
ATOM      1  C   UNL d   1      53.750  32.801  54.017  0.00  0.00     0.086 A 
ATOM      2  C   UNL d   1      53.931  32.005  54.078  0.00  0.00     0.023 A 
ATOM      3  C   UNL d   1      53.189  33.059  53.469  0.00  0.00     0.023 A 
ATOM      4  C   UNL d   1      52.996  31.709  53.045  0.00  0.00     0.196 A 
ATOM      5  C   UNL d   1      52.811  32.511  52.981  0.00  0.00     0.044 A 
ATOM      6  C   UNL d   1      53.553  31.457  53.590  0.00  0.00     0.044 A 
ATOM      7  O   UNL d   1      52.620  31.164  52.560  0.00  0.00    -0.287 OA
ENDROOT
BRANCH   1   8
ATOM      8  N   UNL d   1      54.126  33.341  54.502  0.00  0.00    -0.189 N 
ATOM      9  N   UNL d   1      54.912  33.307  54.752  0.00  0.00    -0.038 NA
ATOM     10  N   UNL d   1      55.053  33.963  55.231  0.00  0.00    -0.022 NA
ATOM     11  N   UNL d   1      54.366  34.395  55.277  0.00  0.00    -0.104 NA
ATOM     12  C   UNL d   1      53.788  34.014  54.827  0.00  0.00     0.226 A 
ENDBRANCH   1   8
TORSDOF 1
ENDMDL
MODEL 3
REMARK VINA RESULT:      -7.4      2.649      3.310
REMARK  1 active torsions:
REMARK  status: ('A' for Active; 'I' for Inactive)
REMARK    1  A    between atoms: C_6  and  N_1 
ROOT
ATOM      1  C   UNL d   1      53.019  33.622  53.838  0.00  0.00     0.086 A 
ATOM      2  C   UNL d   1      53.649  33.101  53.795  0.00  0.00     0.023 A 
ATOM      3  C   UNL d   1      52.306  33.445  53.462  0.00  0.00     0.023 A 
ATOM      4  C   UNL d   1      52.867  32.215  53.000  0.00  0.00     0.196 A 
ATOM      5  C   UNL d   1      52.230  32.739  53.041  0.00  0.00     0.044 A 
ATOM      6  C   UNL d   1      53.573  32.395  53.375  0.00  0.00     0.044 A 
ATOM      7  O   UNL d   1      52.791  31.513  52.582  0.00  0.00    -0.287 OA
ENDROOT
BRANCH   1   8
ATOM      8  N   UNL d   1      53.099  34.320  54.255  0.00  0.00    -0.189 N 
ATOM      9  N   UNL d   1      53.372  34.398  55.030  0.00  0.00    -0.038 NA
ATOM     10  N   UNL d   1      53.360  35.200  55.224  0.00  0.00    -0.022 NA
ATOM     11  N   UNL d   1      53.083  35.611  54.580  0.00  0.00    -0.104 NA
ATOM     12  C   UNL d   1      52.919  35.072  53.976  0.00  0.00     0.226 A 
ENDBRANCH   1   8
TORSDOF 1
ENDMDL
MODEL 4
REMARK VINA RESULT:      -7.2      1.879      1.958
REMARK  1 active torsions:
REMARK  status: ('A' for Active; 'I' for Inactive)
REMARK    1  A    between atoms: C_6  and  N_1 
ROOT
ATOM      1  C   UNL d   1      53.006  33.613  53.734  0.00  0.00     0.086 A 
ATOM      2  C   UNL d   1      53.335  33.782  54.465  0.00  0.00     0.023 A 
ATOM      3  C   UNL d   1      52.666  34.215  53.282  0.00  0.00     0.023 A 
ATOM      4  C   UNL d   1      52.991  35.155  54.307  0.00  0.00     0.196 A 
ATOM      5  C   UNL d   1      52.659  34.988  53.570  0.00  0.00     0.044 A 
ATOM      6  C   UNL d   1      53.328  34.555  54.752  0.00  0.00     0.044 A 
ATOM      7  O   UNL d   1      52.984  35.924  54.593  0.00  0.00    -0.287 OA
ENDROOT
BRANCH   1   8
ATOM      8  N   UNL d   1      53.015  32.846  53.453  0.00  0.00    -0.189 N 
ATOM      9  N   UNL d   1      53.541  32.250  53.677  0.00  0.00    -0.038 NA
ATOM     10  N   UNL d   1      53.346  31.569  53.254  0.00  0.00    -0.022 NA
ATOM     11  N   UNL d   1      52.711  31.740  52.777  0.00  0.00    -0.104 NA
ATOM     12  C   UNL d   1      52.501  32.531  52.895  0.00  0.00     0.226 A 
ENDBRANCH   1   8
TORSDOF 1
ENDMDL
MODEL 5
REMARK VINA RESULT:      -7.0      2.706      3.241
REMARK  1 active torsions:
REMARK  status: ('A' for Active; 'I' for Inactive)
REMARK    1  A    between atoms: C_6  and  N_1 
ROOT
ATOM      1  C   UNL d   1      53.141  33.903  53.947  0.00  0.00     0.086 A 
ATOM      2  C   UNL d   1      52.958  34.646  53.656  0.00  0.00     0.023 A 
ATOM      3  C   UNL d   1      52.703  33.244  53.709  0.00  0.00     0.023 A 
ATOM      4  C   UNL d   1      51.898  34.088  52.885  0.00  0.00     0.196 A 
ATOM      5  C   UNL d   1      52.080  33.337  53.176  0.00  0.00     0.044 A 
ATOM      6  C   UNL d   1      52.334  34.739  53.123  0.00  0.00     0.044 A 
ATOM      7  O   UNL d   1      51.278  34.181  52.355  0.00  0.00    -0.287 OA
ENDROOT
BRANCH   1   8
ATOM      8  N   UNL d   1      53.759  33.814  54.474  0.00  0.00    -0.189 N 
ATOM      9  N   UNL d   1      54.070  34.401  54.964  0.00  0.00    -0.038 NA
ATOM     10  N   UNL d   1      54.685  34.066  55.400  0.00  0.00    -0.022 NA
ATOM     11  N   UNL d   1      54.753  33.285  55.184  0.00  0.00    -0.104 NA
ATOM     12  C   UNL d   1      54.181  33.123  54.609  0.00  0.00     0.226 A 
ENDBRANCH   1   8
TORSDOF 1
ENDMDL
MODEL 6
REMARK VINA RESULT:      -7.0      1.397      1.952
REMARK  1 active torsions:
REMARK  status: ('A' for Active; 'I' for Inactive)
REMARK    1  A    between atoms: C_6  and  N_1 
ROOT
ATOM      1  C   UNL d   1      53.215  31.275  53.480  0.00  0.00     0.086 A 
ATOM      2  C   UNL d   1      53.862  31.600  53.862  0.00  0.00     0.023 A 
ATOM      3  C   UNL d   1      52.711  31.754  53.035  0.00  0.00     0.023 A 
ATOM      4  C   UNL d   1      53.514  32.888  53.363  0.00  0.00     0.196 A 
ATOM      5  C   UNL d   1      52.861  32.563  52.976  0.00  0.00     0.044 A 
ATOM      6  C   UNL d   1      54.012  32.410  53.803  0.00  0.00     0.044 A 
ATOM      7  O   UNL d   1      53.664  33.693  53.305  0.00  0.00    -0.287 OA
ENDROOT
BRANCH   1   8
ATOM      8  N   UNL d   1      53.070  30.473  53.540  0.00  0.00    -0.189 N 
ATOM      9  N   UNL d   1      52.582  30.027  53.047  0.00  0.00    -0.038 NA
ATOM     10  N   UNL d   1      52.600  29.246  53.312  0.00  0.00    -0.022 NA
ATOM     11  N   UNL d   1      53.091  29.209  53.958  0.00  0.00    -0.104 NA
ATOM     12  C   UNL d   1      53.386  29.967  54.105  0.00  0.00     0.226 A 
ENDBRANCH   1   8
TORSDOF 1
ENDMDL
MODEL 7
REMARK VINA RESULT:      -6.9      1.725      2.008
REMARK  1 active torsions:
REMARK  status: ('A' for Active; 'I' for Inactive)
REMARK    1  A    between atoms: C_6  and  N_1 
ROOT
ATOM      1  C   UNL d   1      53.107  33.714  53.899  0.00  0.00     0.086 A 
ATOM      2  C   UNL d   1      53.221  34.179  54.564  0.00  0.00     0.023 A 
ATOM      3  C   UNL d   1      53.649  33.121  53.709  0.00  0.00     0.023 A 
ATOM      4  C   UNL d   1      54.419  33.468  54.860  0.00  0.00     0.196 A 
ATOM      5  C   UNL d   1      54.307  32.998  54.191  0.00  0.00     0.044 A 
ATOM      6  C   UNL d   1      53.879  34.056  55.046  0.00  0.00     0.044 A 
ATOM      7  O   UNL d   1      55.074  33.346  55.340  0.00  0.00    -0.287 OA
ENDROOT
BRANCH   1   8
ATOM      8  N   UNL d   1      52.454  33.840  53.424  0.00  0.00    -0.189 N 
ATOM      9  N   UNL d   1      52.328  34.488  52.929  0.00  0.00    -0.038 NA
ATOM     10  N   UNL d   1      51.599  34.383  52.557  0.00  0.00    -0.022 NA
ATOM     11  N   UNL d   1      51.280  33.682  52.817  0.00  0.00    -0.104 NA
ATOM     12  C   UNL d   1      51.806  33.340  53.355  0.00  0.00     0.226 A 
ENDBRANCH   1   8
TORSDOF 1
ENDMDL
