MODEL 1
REMARK VINA RESULT:       3.5      0.000      0.000
REMARK  6 active torsions:
REMARK  status: ('A' for Active; 'I' for Inactive)
REMARK    1  A    between atoms: C_9  and  N_1 
REMARK    2  A    between atoms: S_14  and  C_3 
REMARK    3  A    between atoms: N_8  and  C_10 
REMARK    4  A    between atoms: C_18  and  C_9 
REMARK    5  A    between atoms: C_19  and  S_14 
REMARK    6  A    between atoms: C_20  and  C_18 
ROOT
ATOM      1  N   UNL d   1      33.005  17.669 -23.201  0.00  0.00    -0.195 NA
ATOM      2  C   UNL d   1      32.696  18.433 -23.047  0.00  0.00     0.086 C 
ATOM      3  C   UNL d   1      32.404  19.180 -22.899  0.00  0.00     0.170 C 
ENDROOT
BRANCH   3   4
ATOM      4  S   UNL d   1      32.899  19.839 -22.953  0.00  0.00    -0.060 SA
BRANCH   4   5
ATOM      5  C   UNL d   1      32.891  20.419 -22.359  0.00  0.00     0.178 A 
ATOM      6  N   UNL d   1      33.057  21.206 -22.543  0.00  0.00    -0.253 N 
ATOM      7  C   UNL d   1      33.047  21.782 -21.950  0.00  0.00     0.268 A 
ATOM      8  C   UNL d   1      32.870  21.557 -21.176  0.00  0.00     0.076 A 
ATOM      9  O   UNL d   1      33.213  22.565 -22.133  0.00  0.00    -0.267 OA
ATOM     10  C   UNL d   1      32.863  22.130 -20.594  0.00  0.00     0.024 A 
ATOM     11  C   UNL d   1      32.706  20.778 -20.993  0.00  0.00     0.088 A 
ATOM     12  C   UNL d   1      32.687  21.924 -19.811  0.00  0.00     0.065 A 
ATOM     13  C   UNL d   1      32.522  21.129 -19.637  0.00  0.00     0.019 A 
ATOM     14  C   UNL d   1      32.531  20.561 -20.221  0.00  0.00     0.021 A 
ATOM     15  N   UNL d   1      32.714  20.204 -21.580  0.00  0.00    -0.222 NA
BRANCH   6  16
ATOM     16  C   UNL d   1      33.232  21.413 -23.322  0.00  0.00     0.085 C 
BRANCH  16  17
ATOM     17  C   UNL d   1      33.241  22.209 -23.539  0.00  0.00     0.019 C 
BRANCH  17  18
ATOM     18  C   UNL d   1      32.648  22.511 -24.032  0.00  0.00     0.002 A 
ATOM     19  C   UNL d   1      32.287  22.026 -24.587  0.00  0.00     0.000 A 
ATOM     20  C   UNL d   1      31.697  22.324 -25.079  0.00  0.00     0.000 A 
ATOM     21  C   UNL d   1      31.467  23.121 -25.013  0.00  0.00     0.000 A 
ATOM     22  C   UNL d   1      31.835  23.608 -24.451  0.00  0.00     0.000 A 
ATOM     23  C   UNL d   1      32.425  23.309 -23.960  0.00  0.00     0.000 A 
ENDBRANCH  17  18
ENDBRANCH  16  17
ENDBRANCH   6  16
BRANCH  12  24
ATOM     24  N   UNL d   1      32.677  22.492 -19.220  0.00  0.00    -0.300 N 
ATOM     25  C   UNL d   1      32.161  23.138 -19.271  0.00  0.00     0.107 A 
ATOM     26  C   UNL d   1      32.157  23.702 -18.675  0.00  0.00     0.142 A 
ATOM     27  O   UNL d   1      32.665  23.627 -18.024  0.00  0.00    -0.300 OA
ATOM     28  C   UNL d   1      33.180  22.981 -17.971  0.00  0.00     0.142 A 
ATOM     29  C   UNL d   1      33.187  22.410 -18.571  0.00  0.00     0.107 A 
ENDBRANCH  12  24
ENDBRANCH   4   5
ENDBRANCH   3   4
TORSDOF 6
ENDMDL
MODEL 2
REMARK VINA RESULT:       4.7      1.705      4.368
REMARK  6 active torsions:
REMARK  status: ('A' for Active; 'I' for Inactive)
REMARK    1  A    between atoms: C_9  and  N_1 
REMARK    2  A    between atoms: S_14  and  C_3 
REMARK    3  A    between atoms: N_8  and  C_10 
REMARK    4  A    between atoms: C_18  and  C_9 
REMARK    5  A    between atoms: C_19  and  S_14 
REMARK    6  A    between atoms: C_20  and  C_18 
ROOT
ATOM      1  N   UNL d   1      31.401  21.911 -19.359  0.00  0.00    -0.195 NA
ATOM      2  C   UNL d   1      32.080  21.703 -19.805  0.00  0.00     0.086 C 
ATOM      3  C   UNL d   1      32.736  21.506 -20.246  0.00  0.00     0.170 C 
ENDROOT
BRANCH   3   4
ATOM      4  S   UNL d   1      32.794  21.745 -21.035  0.00  0.00    -0.060 SA
BRANCH   4   5
ATOM      5  C   UNL d   1      32.807  21.180 -21.644  0.00  0.00     0.178 A 
ATOM      6  N   UNL d   1      33.018  21.400 -22.411  0.00  0.00    -0.253 N 
ATOM      7  C   UNL d   1      33.030  20.835 -23.016  0.00  0.00     0.268 A 
ATOM      8  C   UNL d   1      32.828  20.055 -22.839  0.00  0.00     0.076 A 
ATOM      9  O   UNL d   1      33.240  21.054 -23.779  0.00  0.00    -0.267 OA
ATOM     10  C   UNL d   1      32.842  19.502 -23.441  0.00  0.00     0.024 A 
ATOM     11  C   UNL d   1      32.619  19.838 -22.080  0.00  0.00     0.088 A 
ATOM     12  C   UNL d   1      32.643  18.714 -23.283  0.00  0.00     0.065 A 
ATOM     13  C   UNL d   1      32.432  18.504 -22.508  0.00  0.00     0.019 A 
ATOM     14  C   UNL d   1      32.420  19.059 -21.912  0.00  0.00     0.021 A 
ATOM     15  N   UNL d   1      32.606  20.395 -21.478  0.00  0.00    -0.222 NA
BRANCH   6  16
ATOM     16  C   UNL d   1      33.217  22.184 -22.569  0.00  0.00     0.085 C 
BRANCH  16  17
ATOM     17  C   UNL d   1      32.619  22.742 -22.675  0.00  0.00     0.019 C 
BRANCH  17  18
ATOM     18  C   UNL d   1      32.455  23.037 -23.432  0.00  0.00     0.002 A 
ATOM     19  C   UNL d   1      33.067  23.175 -23.961  0.00  0.00     0.000 A 
ATOM     20  C   UNL d   1      32.907  23.467 -24.715  0.00  0.00     0.000 A 
ATOM     21  C   UNL d   1      32.121  23.623 -24.939  0.00  0.00     0.000 A 
ATOM     22  C   UNL d   1      31.506  23.482 -24.401  0.00  0.00     0.000 A 
ATOM     23  C   UNL d   1      31.667  23.190 -23.648  0.00  0.00     0.000 A 
ENDBRANCH  17  18
ENDBRANCH  16  17
ENDBRANCH   6  16
BRANCH  12  24
ATOM     24  N   UNL d   1      32.653  18.151 -23.880  0.00  0.00    -0.300 N 
ATOM     25  C   UNL d   1      32.110  18.195 -24.504  0.00  0.00     0.107 A 
ATOM     26  C   UNL d   1      32.127  17.628 -25.096  0.00  0.00     0.142 A 
ATOM     27  O   UNL d   1      32.683  17.014 -25.073  0.00  0.00    -0.300 OA
ATOM     28  C   UNL d   1      33.226  16.969 -24.450  0.00  0.00     0.142 A 
ATOM     29  C   UNL d   1      33.212  17.540 -23.849  0.00  0.00     0.107 A 
ENDBRANCH  12  24
ENDBRANCH   4   5
ENDBRANCH   3   4
TORSDOF 6
ENDMDL
