MODEL 1
REMARK VINA RESULT:      -3.6      0.000      0.000
REMARK  5 active torsions:
REMARK  status: ('A' for Active; 'I' for Inactive)
REMARK    1  A    between atoms: C_9  and  C_2 
REMARK    2  A    between atoms: O_8  and  C_4 
REMARK    3  A    between atoms: C_14  and  O_8 
REMARK    4  A    between atoms: N_11  and  C_9 
REMARK    5  A    between atoms: O_20  and  C_18 
ROOT
ATOM      1  C   UNL d   1     -42.275-122.863 -50.322  0.00  0.00     0.108 A 
ATOM      2  C   UNL d   1     -42.659-123.095 -49.624  0.00  0.00     0.079 A 
ATOM      3  C   UNL d   1     -42.528-122.183 -50.731  0.00  0.00     0.064 A 
ATOM      4  C   UNL d   1     -41.506-122.398 -51.720  0.00  0.00     0.163 A 
ATOM      5  C   UNL d   1     -42.147-121.956 -51.421  0.00  0.00     0.222 A 
ATOM      6  O   UNL d   1     -41.639-123.314 -50.607  0.00  0.00    -0.303 OA
ATOM      7  C   UNL d   1     -41.252-123.082 -51.308  0.00  0.00     0.150 A 
ATOM      8  C   UNL d   1     -43.167-121.747 -50.429  0.00  0.00     0.009 A 
ATOM      9  C   UNL d   1     -43.291-122.655 -49.334  0.00  0.00     0.199 A 
ATOM     10  O   UNL d   1     -42.395-121.283 -51.829  0.00  0.00    -0.284 OA
ATOM     11  C   UNL d   1     -43.544-121.981 -49.736  0.00  0.00     0.042 A 
ATOM     12  O   UNL d   1     -43.670-122.888 -48.641  0.00  0.00    -0.286 OA
ENDROOT
BRANCH   4  13
ATOM     13  O   UNL d   1     -41.127-122.168 -52.410  0.00  0.00    -0.302 OA
BRANCH  13  14
ATOM     14  C   UNL d   1     -41.302-122.543 -53.123  0.00  0.00     0.102 A 
ATOM     15  C   UNL d   1     -41.494-122.094 -53.785  0.00  0.00     0.049 A 
ATOM     16  C   UNL d   1     -41.670-122.470 -54.497  0.00  0.00     0.096 A 
ATOM     17  C   UNL d   1     -41.653-123.293 -54.546  0.00  0.00     0.024 A 
ATOM     18  C   UNL d   1     -41.457-123.742 -53.871  0.00  0.00     0.004 A 
ATOM     19  C   UNL d   1     -41.284-123.363 -53.166  0.00  0.00     0.025 A 
BRANCH  16  20
ATOM     20  O   UNL d   1     -41.862-122.021 -55.160  0.00  0.00    -0.328 OA
ATOM     21  C   UNL d   1     -42.625-122.053 -55.469  0.00  0.00     0.181 C 
ENDBRANCH  16  20
ENDBRANCH  13  14
ENDBRANCH   4  13
BRANCH   2  22
ATOM     22  C   UNL d   1     -42.408-123.763 -49.225  0.00  0.00     0.086 C 
BRANCH  22  23
ATOM     23  N   UNL d   1     -42.158-123.704 -48.440  0.00  0.00    -0.299 N 
ATOM     24  C   UNL d   1     -41.371-123.533 -48.275  0.00  0.00     0.107 A 
ATOM     25  C   UNL d   1     -41.123-123.475 -47.487  0.00  0.00     0.142 A 
ATOM     26  O   UNL d   1     -41.663-123.588 -46.874  0.00  0.00    -0.300 OA
ATOM     27  C   UNL d   1     -42.454-123.759 -47.046  0.00  0.00     0.142 A 
ATOM     28  C   UNL d   1     -42.701-123.817 -47.829  0.00  0.00     0.107 A 
ENDBRANCH  22  23
ENDBRANCH   2  22
TORSDOF 5
ENDMDL
