MODEL 1
REMARK VINA RESULT:      -8.2      0.000      0.000
REMARK  3 active torsions:
REMARK  status: ('A' for Active; 'I' for Inactive)
REMARK    1  A    between atoms: N_7  and  C_3 
REMARK       I    between atoms: C_8  and  N_7 
REMARK    2  A    between atoms: C_14  and  C_8 
REMARK    3  A    between atoms: C_15  and  C_14 
ROOT
ATOM      1  C   UNL d   1      53.563  34.249  54.712  0.00  0.00     0.343 A 
ATOM      2  N   UNL d   1      53.779  33.475  54.567  0.00  0.00    -0.241 N 
ATOM      3  C   UNL d   1      53.562  33.110  53.864  0.00  0.00     0.159 A 
ATOM      4  N   UNL d   1      53.125  34.667  54.152  0.00  0.00    -0.224 N 
ATOM      5  C   UNL d   1      53.123  33.527  53.304  0.00  0.00     0.099 A 
ATOM      6  C   UNL d   1      52.898  34.314  53.441  0.00  0.00     0.271 A 
ATOM      7  O   UNL d   1      53.783  34.615  55.420  0.00  0.00    -0.245 OA
ATOM      8  O   UNL d   1      52.464  34.728  52.886  0.00  0.00    -0.266 OA
ATOM      9  C   UNL d   1      54.218  33.057  55.127  0.00  0.00     0.105 C 
ATOM     10  C   UNL d   1      52.906  35.450  54.299  0.00  0.00     0.107 C 
ENDROOT
BRANCH   3  11
ATOM     11  N   UNL d   1      53.780  32.326  53.716  0.00  0.00    -0.190 NA
ATOM     12  C   UNL d   1      53.229  31.795  53.412  0.00  0.00     0.281 C 
ATOM     13  O   UNL d   1      52.458  32.044  53.256  0.00  0.00    -0.265 OA
BRANCH  12  14
ATOM     14  C   UNL d   1      53.448  31.015  53.265  0.00  0.00     0.063 C 
BRANCH  14  15
ATOM     15  C   UNL d   1      52.865  30.440  53.165  0.00  0.00     0.005 C 
ATOM     16  C   UNL d   1      53.028  29.655  53.269  0.00  0.00     0.000 C 
ENDBRANCH  14  15
ENDBRANCH  12  14
ENDBRANCH   3  11
TORSDOF 3
ENDMDL
MODEL 2
REMARK VINA RESULT:      -7.7      0.775      1.544
REMARK  3 active torsions:
REMARK  status: ('A' for Active; 'I' for Inactive)
REMARK    1  A    between atoms: N_7  and  C_3 
REMARK       I    between atoms: C_8  and  N_7 
REMARK    2  A    between atoms: C_14  and  C_8 
REMARK    3  A    between atoms: C_15  and  C_14 
ROOT
ATOM      1  C   UNL d   1      52.537  34.379  53.649  0.00  0.00     0.343 A 
ATOM      2  N   UNL d   1      52.606  33.634  53.321  0.00  0.00    -0.241 N 
ATOM      3  C   UNL d   1      53.224  33.139  53.541  0.00  0.00     0.159 A 
ATOM      4  N   UNL d   1      53.090  34.636  54.205  0.00  0.00    -0.224 N 
ATOM      5  C   UNL d   1      53.776  33.397  54.097  0.00  0.00     0.099 A 
ATOM      6  C   UNL d   1      53.716  34.152  54.437  0.00  0.00     0.271 A 
ATOM      7  O   UNL d   1      51.915  34.874  53.426  0.00  0.00    -0.245 OA
ATOM      8  O   UNL d   1      54.264  34.407  54.987  0.00  0.00    -0.266 OA
ATOM      9  C   UNL d   1      52.053  33.376  52.765  0.00  0.00     0.105 C 
ATOM     10  C   UNL d   1      53.020  35.390  54.537  0.00  0.00     0.107 C 
ENDROOT
BRANCH   3  11
ATOM     11  N   UNL d   1      53.294  32.385  53.209  0.00  0.00    -0.190 NA
ATOM     12  C   UNL d   1      53.462  31.738  53.689  0.00  0.00     0.281 C 
ATOM     13  O   UNL d   1      53.561  31.840  54.501  0.00  0.00    -0.265 OA
BRANCH  12  14
ATOM     14  C   UNL d   1      53.532  30.988  53.356  0.00  0.00     0.063 C 
BRANCH  14  15
ATOM     15  C   UNL d   1      53.399  30.321  53.823  0.00  0.00     0.005 C 
ATOM     16  C   UNL d   1      53.214  29.607  53.493  0.00  0.00     0.000 C 
ENDBRANCH  14  15
ENDBRANCH  12  14
ENDBRANCH   3  11
TORSDOF 3
ENDMDL
MODEL 3
REMARK VINA RESULT:      -7.6      1.493      2.850
REMARK  3 active torsions:
REMARK  status: ('A' for Active; 'I' for Inactive)
REMARK    1  A    between atoms: N_7  and  C_3 
REMARK       I    between atoms: C_8  and  N_7 
REMARK    2  A    between atoms: C_14  and  C_8 
REMARK    3  A    between atoms: C_15  and  C_14 
ROOT
ATOM      1  C   UNL d   1      53.702  34.104  54.712  0.00  0.00     0.343 A 
ATOM      2  N   UNL d   1      53.167  34.439  54.193  0.00  0.00    -0.241 N 
ATOM      3  C   UNL d   1      52.807  33.980  53.615  0.00  0.00     0.159 A 
ATOM      4  N   UNL d   1      53.882  33.301  54.655  0.00  0.00    -0.224 N 
ATOM      5  C   UNL d   1      52.987  33.177  53.558  0.00  0.00     0.099 A 
ATOM      6  C   UNL d   1      53.529  32.826  54.080  0.00  0.00     0.271 A 
ATOM      7  O   UNL d   1      54.062  34.567  55.293  0.00  0.00    -0.245 OA
ATOM      8  O   UNL d   1      53.707  32.030  54.024  0.00  0.00    -0.266 OA
ATOM      9  C   UNL d   1      52.986  35.243  54.249  0.00  0.00     0.105 C 
ATOM     10  C   UNL d   1      54.423  32.961  55.180  0.00  0.00     0.107 C 
ENDROOT
BRANCH   3  11
ATOM     11  N   UNL d   1      52.265  34.319  53.089  0.00  0.00    -0.190 NA
ATOM     12  C   UNL d   1      51.508  34.004  53.018  0.00  0.00     0.281 C 
ATOM     13  O   UNL d   1      51.288  33.351  53.471  0.00  0.00    -0.265 OA
BRANCH  12  14
ATOM     14  C   UNL d   1      50.971  34.343  52.495  0.00  0.00     0.063 C 
BRANCH  14  15
ATOM     15  C   UNL d   1      50.163  34.203  52.592  0.00  0.00     0.005 C 
ATOM     16  C   UNL d   1      49.613  34.589  52.143  0.00  0.00     0.000 C 
ENDBRANCH  14  15
ENDBRANCH  12  14
ENDBRANCH   3  11
TORSDOF 3
ENDMDL
MODEL 4
REMARK VINA RESULT:      -6.9      1.578      3.688
REMARK  3 active torsions:
REMARK  status: ('A' for Active; 'I' for Inactive)
REMARK    1  A    between atoms: N_7  and  C_3 
REMARK       I    between atoms: C_8  and  N_7 
REMARK    2  A    between atoms: C_14  and  C_8 
REMARK    3  A    between atoms: C_15  and  C_14 
ROOT
ATOM      1  C   UNL d   1      52.507  31.347  52.922  0.00  0.00     0.343 A 
ATOM      2  N   UNL d   1      52.914  32.033  53.098  0.00  0.00    -0.241 N 
ATOM      3  C   UNL d   1      53.626  31.999  53.508  0.00  0.00     0.159 A 
ATOM      4  N   UNL d   1      52.810  30.616  53.156  0.00  0.00    -0.224 N 
ATOM      5  C   UNL d   1      53.929  31.268  53.741  0.00  0.00     0.099 A 
ATOM      6  C   UNL d   1      53.523  30.564  53.568  0.00  0.00     0.271 A 
ATOM      7  O   UNL d   1      51.791  31.384  52.510  0.00  0.00    -0.245 OA
ATOM      8  O   UNL d   1      53.823  29.841  53.799  0.00  0.00    -0.266 OA
ATOM      9  C   UNL d   1      52.611  32.764  52.865  0.00  0.00     0.105 C 
ATOM     10  C   UNL d   1      52.398  29.922  52.977  0.00  0.00     0.107 C 
ENDROOT
BRANCH   3  11
ATOM     11  N   UNL d   1      54.039  32.692  53.686  0.00  0.00    -0.190 NA
ATOM     12  C   UNL d   1      54.206  32.882  54.469  0.00  0.00     0.281 C 
ATOM     13  O   UNL d   1      53.962  32.381  55.077  0.00  0.00    -0.265 OA
BRANCH  12  14
ATOM     14  C   UNL d   1      54.618  33.573  54.645  0.00  0.00     0.063 C 
BRANCH  14  15
ATOM     15  C   UNL d   1      54.983  33.654  55.381  0.00  0.00     0.005 C 
ATOM     16  C   UNL d   1      55.557  34.210  55.505  0.00  0.00     0.000 C 
ENDBRANCH  14  15
ENDBRANCH  12  14
ENDBRANCH   3  11
TORSDOF 3
ENDMDL
MODEL 5
REMARK VINA RESULT:      -6.6      0.973      3.357
REMARK  3 active torsions:
REMARK  status: ('A' for Active; 'I' for Inactive)
REMARK    1  A    between atoms: N_7  and  C_3 
REMARK       I    between atoms: C_8  and  N_7 
REMARK    2  A    between atoms: C_14  and  C_8 
REMARK    3  A    between atoms: C_15  and  C_14 
ROOT
ATOM      1  C   UNL d   1      53.507  31.394  54.030  0.00  0.00     0.343 A 
ATOM      2  N   UNL d   1      53.705  32.170  54.194  0.00  0.00    -0.241 N 
ATOM      3  C   UNL d   1      53.479  32.772  53.683  0.00  0.00     0.159 A 
ATOM      4  N   UNL d   1      53.079  31.214  53.348  0.00  0.00    -0.224 N 
ATOM      5  C   UNL d   1      53.051  32.592  53.001  0.00  0.00     0.099 A 
ATOM      6  C   UNL d   1      52.845  31.807  52.824  0.00  0.00     0.271 A 
ATOM      7  O   UNL d   1      53.734  30.790  54.546  0.00  0.00    -0.245 OA
ATOM      8  O   UNL d   1      52.421  31.629  52.149  0.00  0.00    -0.266 OA
ATOM      9  C   UNL d   1      54.133  32.350  54.876  0.00  0.00     0.105 C 
ATOM     10  C   UNL d   1      52.878  30.429  53.182  0.00  0.00     0.107 C 
ENDROOT
BRANCH   3  11
ATOM     11  N   UNL d   1      53.679  33.557  53.848  0.00  0.00    -0.190 NA
ATOM     12  C   UNL d   1      53.094  34.135  53.874  0.00  0.00     0.281 C 
ATOM     13  O   UNL d   1      52.307  33.932  53.734  0.00  0.00    -0.265 OA
BRANCH  12  14
ATOM     14  C   UNL d   1      53.295  34.916  54.038  0.00  0.00     0.063 C 
BRANCH  14  15
ATOM     15  C   UNL d   1      52.737  35.417  54.383  0.00  0.00     0.005 C 
ATOM     16  C   UNL d   1      52.958  36.103  54.749  0.00  0.00     0.000 C 
ENDBRANCH  14  15
ENDBRANCH  12  14
ENDBRANCH   3  11
TORSDOF 3
ENDMDL
MODEL 6
REMARK VINA RESULT:      -6.4      1.457      2.853
REMARK  3 active torsions:
REMARK  status: ('A' for Active; 'I' for Inactive)
REMARK    1  A    between atoms: N_7  and  C_3 
REMARK       I    between atoms: C_8  and  N_7 
REMARK    2  A    between atoms: C_14  and  C_8 
REMARK    3  A    between atoms: C_15  and  C_14 
ROOT
ATOM      1  C   UNL d   1      51.340  33.128  53.065  0.00  0.00     0.343 A 
ATOM      2  N   UNL d   1      52.112  32.928  53.244  0.00  0.00    -0.241 N 
ATOM      3  C   UNL d   1      52.653  33.511  53.451  0.00  0.00     0.159 A 
ATOM      4  N   UNL d   1      51.102  33.917  53.091  0.00  0.00    -0.224 N 
ATOM      5  C   UNL d   1      52.415  34.301  53.476  0.00  0.00     0.099 A 
ATOM      6  C   UNL d   1      51.634  34.515  53.296  0.00  0.00     0.271 A 
ATOM      7  O   UNL d   1      50.798  32.540  52.858  0.00  0.00    -0.245 OA
ATOM      8  O   UNL d   1      51.398  35.297  53.321  0.00  0.00    -0.266 OA
ATOM      9  C   UNL d   1      52.350  32.139  53.219  0.00  0.00     0.105 C 
ATOM     10  C   UNL d   1      50.322  34.119  52.909  0.00  0.00     0.107 C 
ENDROOT
BRANCH   3  11
ATOM     11  N   UNL d   1      53.435  33.310  53.632  0.00  0.00    -0.190 NA
ATOM     12  C   UNL d   1      53.752  33.512  54.364  0.00  0.00     0.281 C 
ATOM     13  O   UNL d   1      53.292  33.915  54.917  0.00  0.00    -0.265 OA
BRANCH  12  14
ATOM     14  C   UNL d   1      54.531  33.311  54.543  0.00  0.00     0.063 C 
BRANCH  14  15
ATOM     15  C   UNL d   1      54.913  33.683  55.172  0.00  0.00     0.005 C 
ATOM     16  C   UNL d   1      55.714  33.793  55.170  0.00  0.00     0.000 C 
ENDBRANCH  14  15
ENDBRANCH  12  14
ENDBRANCH   3  11
TORSDOF 3
ENDMDL
