MODEL 1
REMARK VINA RESULT:      -8.1      0.000      0.000
REMARK  7 active torsions:
REMARK  status: ('A' for Active; 'I' for Inactive)
REMARK    1  A    between atoms: C_3  and  C_1 
REMARK    2  A    between atoms: N_2  and  C_9 
REMARK    3  A    between atoms: C_14  and  N_2 
REMARK    4  A    between atoms: O_6  and  C_8 
REMARK    5  A    between atoms: C_10  and  O_6 
REMARK    6  A    between atoms: C_7  and  C_10 
REMARK    7  A    between atoms: C_9  and  C_7 
ROOT
ATOM      1  C   UNL d   1      52.598  33.723  53.553  0.00  0.00     0.000 A 
ATOM      2  C   UNL d   1      51.927  33.268  53.706  0.00  0.00     0.002 A 
ATOM      3  C   UNL d   1      52.554  34.355  53.017  0.00  0.00     0.002 A 
ATOM      4  C   UNL d   1      51.172  34.066  52.798  0.00  0.00     0.100 A 
ATOM      5  C   UNL d   1      51.843  34.528  52.639  0.00  0.00     0.025 A 
ATOM      6  C   UNL d   1      51.218  33.438  53.331  0.00  0.00     0.025 A 
ENDROOT
BRANCH   4   7
ATOM      7  O   UNL d   1      50.462  34.239  52.421  0.00  0.00    -0.302 OA
BRANCH   7   8
ATOM      8  C   UNL d   1      49.899  34.723  52.783  0.00  0.00     0.166 C 
BRANCH   8   9
ATOM      9  C   UNL d   1      49.198  34.917  52.396  0.00  0.00     0.239 C 
ATOM     10  O   UNL d   1      49.074  34.647  51.626  0.00  0.00    -0.283 OA
BRANCH   9  11
ATOM     11  C   UNL d   1      48.627  35.375  52.774  0.00  0.00     0.143 C 
BRANCH  11  12
ATOM     12  N   UNL d   1      48.060  35.777  52.324  0.00  0.00    -0.241 NA
BRANCH  12  13
ATOM     13  C   UNL d   1      47.484  36.224  52.716  0.00  0.00     0.082 C 
ATOM     14  C   UNL d   1      46.705  36.201  52.450  0.00  0.00     0.021 C 
ATOM     15  C   UNL d   1      47.684  36.689  53.367  0.00  0.00     0.021 C 
ENDBRANCH  12  13
ENDBRANCH  11  12
ENDBRANCH   9  11
ENDBRANCH   8   9
ENDBRANCH   7   8
ENDBRANCH   4   7
BRANCH   1  16
ATOM     16  C   UNL d   1      53.304  33.554  53.925  0.00  0.00     0.000 A 
ATOM     17  C   UNL d   1      53.853  33.048  53.562  0.00  0.00     0.000 A 
ATOM     18  C   UNL d   1      54.568  32.878  53.943  0.00  0.00     0.000 A 
ATOM     19  C   UNL d   1      54.740  33.208  54.678  0.00  0.00     0.000 A 
ATOM     20  C   UNL d   1      54.198  33.711  55.042  0.00  0.00     0.000 A 
ATOM     21  C   UNL d   1      53.477  33.888  54.668  0.00  0.00     0.000 A 
ENDBRANCH   1  16
TORSDOF 7
ENDMDL
MODEL 2
REMARK VINA RESULT:      -7.0      2.521      5.489
REMARK  7 active torsions:
REMARK  status: ('A' for Active; 'I' for Inactive)
REMARK    1  A    between atoms: C_3  and  C_1 
REMARK    2  A    between atoms: N_2  and  C_9 
REMARK    3  A    between atoms: C_14  and  N_2 
REMARK    4  A    between atoms: O_6  and  C_8 
REMARK    5  A    between atoms: C_10  and  O_6 
REMARK    6  A    between atoms: C_7  and  C_10 
REMARK    7  A    between atoms: C_9  and  C_7 
ROOT
ATOM      1  C   UNL d   1      50.498  34.203  52.557  0.00  0.00     0.000 A 
ATOM      2  C   UNL d   1      50.492  33.681  53.196  0.00  0.00     0.002 A 
ATOM      3  C   UNL d   1      51.215  34.387  52.182  0.00  0.00     0.002 A 
ATOM      4  C   UNL d   1      51.905  33.525  53.088  0.00  0.00     0.100 A 
ATOM      5  C   UNL d   1      51.919  34.050  52.445  0.00  0.00     0.025 A 
ATOM      6  C   UNL d   1      51.191  33.344  53.460  0.00  0.00     0.025 A 
ENDROOT
BRANCH   4   7
ATOM      7  O   UNL d   1      52.607  33.188  53.351  0.00  0.00    -0.302 OA
BRANCH   7   8
ATOM      8  C   UNL d   1      52.860  32.457  53.059  0.00  0.00     0.166 C 
BRANCH   8   9
ATOM      9  C   UNL d   1      53.458  32.037  53.438  0.00  0.00     0.239 C 
ATOM     10  O   UNL d   1      54.216  32.359  53.481  0.00  0.00    -0.283 OA
BRANCH   9  11
ATOM     11  C   UNL d   1      53.300  31.300  53.773  0.00  0.00     0.143 C 
BRANCH  11  12
ATOM     12  N   UNL d   1      53.589  30.614  53.410  0.00  0.00    -0.241 NA
BRANCH  12  13
ATOM     13  C   UNL d   1      53.259  29.884  53.617  0.00  0.00     0.082 C 
ATOM     14  C   UNL d   1      52.664  29.562  53.147  0.00  0.00     0.021 C 
ATOM     15  C   UNL d   1      53.519  29.480  54.287  0.00  0.00     0.021 C 
ENDBRANCH  12  13
ENDBRANCH  11  12
ENDBRANCH   9  11
ENDBRANCH   8   9
ENDBRANCH   7   8
ENDBRANCH   4   7
BRANCH   1  16
ATOM     16  C   UNL d   1      49.804  34.539  52.293  0.00  0.00     0.000 A 
ATOM     17  C   UNL d   1      49.534  34.383  51.524  0.00  0.00     0.000 A 
ATOM     18  C   UNL d   1      48.828  34.725  51.259  0.00  0.00     0.000 A 
ATOM     19  C   UNL d   1      48.392  35.220  51.752  0.00  0.00     0.000 A 
ATOM     20  C   UNL d   1      48.656  35.379  52.516  0.00  0.00     0.000 A 
ATOM     21  C   UNL d   1      49.362  35.040  52.792  0.00  0.00     0.000 A 
ENDBRANCH   1  16
TORSDOF 7
ENDMDL
MODEL 3
REMARK VINA RESULT:      -6.7      1.780      5.451
REMARK  7 active torsions:
REMARK  status: ('A' for Active; 'I' for Inactive)
REMARK    1  A    between atoms: C_3  and  C_1 
REMARK    2  A    between atoms: N_2  and  C_9 
REMARK    3  A    between atoms: C_14  and  N_2 
REMARK    4  A    between atoms: O_6  and  C_8 
REMARK    5  A    between atoms: C_10  and  O_6 
REMARK    6  A    between atoms: C_7  and  C_10 
REMARK    7  A    between atoms: C_9  and  C_7 
ROOT
ATOM      1  C   UNL d   1      49.493  34.852  52.420  0.00  0.00     0.000 A 
ATOM      2  C   UNL d   1      49.943  34.838  53.112  0.00  0.00     0.002 A 
ATOM      3  C   UNL d   1      49.779  34.480  51.735  0.00  0.00     0.002 A 
ATOM      4  C   UNL d   1      50.955  34.088  52.445  0.00  0.00     0.100 A 
ATOM      5  C   UNL d   1      50.509  34.098  51.745  0.00  0.00     0.025 A 
ATOM      6  C   UNL d   1      50.669  34.459  53.125  0.00  0.00     0.025 A 
ENDROOT
BRANCH   4   7
ATOM      7  O   UNL d   1      51.684  33.707  52.455  0.00  0.00    -0.302 OA
BRANCH   7   8
ATOM      8  C   UNL d   1      51.826  33.083  52.979  0.00  0.00     0.166 C 
BRANCH   8   9
ATOM      9  C   UNL d   1      52.552  32.695  52.983  0.00  0.00     0.239 C 
ATOM     10  O   UNL d   1      52.649  32.012  52.530  0.00  0.00    -0.283 OA
BRANCH   9  11
ATOM     11  C   UNL d   1      53.176  32.986  53.436  0.00  0.00     0.143 C 
BRANCH  11  12
ATOM     12  N   UNL d   1      53.630  32.465  53.892  0.00  0.00    -0.241 NA
BRANCH  12  13
ATOM     13  C   UNL d   1      54.209  32.776  54.395  0.00  0.00     0.082 C 
ATOM     14  C   UNL d   1      54.902  33.084  54.071  0.00  0.00     0.021 C 
ATOM     15  C   UNL d   1      54.098  32.779  55.212  0.00  0.00     0.021 C 
ENDBRANCH  12  13
ENDBRANCH  11  12
ENDBRANCH   9  11
ENDBRANCH   8   9
ENDBRANCH   7   8
ENDBRANCH   4   7
BRANCH   1  16
ATOM     16  C   UNL d   1      48.770  35.229  52.406  0.00  0.00     0.000 A 
ATOM     17  C   UNL d   1      48.285  35.169  51.735  0.00  0.00     0.000 A 
ATOM     18  C   UNL d   1      47.551  35.553  51.724  0.00  0.00     0.000 A 
ATOM     19  C   UNL d   1      47.300  35.995  52.372  0.00  0.00     0.000 A 
ATOM     20  C   UNL d   1      47.778  36.057  53.040  0.00  0.00     0.000 A 
ATOM     21  C   UNL d   1      48.516  35.676  53.061  0.00  0.00     0.000 A 
ENDBRANCH   1  16
TORSDOF 7
ENDMDL
MODEL 4
REMARK VINA RESULT:      -6.4      3.557      5.401
REMARK  7 active torsions:
REMARK  status: ('A' for Active; 'I' for Inactive)
REMARK    1  A    between atoms: C_3  and  C_1 
REMARK    2  A    between atoms: N_2  and  C_9 
REMARK    3  A    between atoms: C_14  and  N_2 
REMARK    4  A    between atoms: O_6  and  C_8 
REMARK    5  A    between atoms: C_10  and  O_6 
REMARK    6  A    between atoms: C_7  and  C_10 
REMARK    7  A    between atoms: C_9  and  C_7 
ROOT
ATOM      1  C   UNL d   1      53.032  33.620  53.725  0.00  0.00     0.000 A 
ATOM      2  C   UNL d   1      53.722  33.171  53.671  0.00  0.00     0.002 A 
ATOM      3  C   UNL d   1      52.316  33.309  53.446  0.00  0.00     0.002 A 
ATOM      4  C   UNL d   1      52.990  32.110  53.064  0.00  0.00     0.100 A 
ATOM      5  C   UNL d   1      52.292  32.556  53.116  0.00  0.00     0.025 A 
ATOM      6  C   UNL d   1      53.702  32.421  53.342  0.00  0.00     0.025 A 
ENDROOT
BRANCH   4   7
ATOM      7  O   UNL d   1      52.967  31.357  52.733  0.00  0.00    -0.302 OA
BRANCH   7   8
ATOM      8  C   UNL d   1      52.644  30.722  53.153  0.00  0.00     0.166 C 
BRANCH   8   9
ATOM      9  C   UNL d   1      52.917  29.955  53.031  0.00  0.00     0.239 C 
ATOM     10  O   UNL d   1      52.779  29.587  52.305  0.00  0.00    -0.283 OA
BRANCH   9  11
ATOM     11  C   UNL d   1      53.324  29.559  53.627  0.00  0.00     0.143 C 
BRANCH  11  12
ATOM     12  N   UNL d   1      52.920  29.030  54.119  0.00  0.00    -0.241 NA
BRANCH  12  13
ATOM     13  C   UNL d   1      53.304  28.735  54.790  0.00  0.00     0.082 C 
ATOM     14  C   UNL d   1      53.169  29.088  55.521  0.00  0.00     0.021 C 
ATOM     15  C   UNL d   1      53.819  28.093  54.730  0.00  0.00     0.021 C 
ENDBRANCH  12  13
ENDBRANCH  11  12
ENDBRANCH   9  11
ENDBRANCH   8   9
ENDBRANCH   7   8
ENDBRANCH   4   7
BRANCH   1  16
ATOM     16  C   UNL d   1      53.051  34.367  54.052  0.00  0.00     0.000 A 
ATOM     17  C   UNL d   1      53.262  34.465  54.850  0.00  0.00     0.000 A 
ATOM     18  C   UNL d   1      53.281  35.225  55.179  0.00  0.00     0.000 A 
ATOM     19  C   UNL d   1      53.092  35.884  54.722  0.00  0.00     0.000 A 
ATOM     20  C   UNL d   1      52.882  35.792  53.930  0.00  0.00     0.000 A 
ATOM     21  C   UNL d   1      52.860  35.034  53.591  0.00  0.00     0.000 A 
ENDBRANCH   1  16
TORSDOF 7
ENDMDL
MODEL 5
REMARK VINA RESULT:      -6.3      2.573      3.359
REMARK  7 active torsions:
REMARK  status: ('A' for Active; 'I' for Inactive)
REMARK    1  A    between atoms: C_3  and  C_1 
REMARK    2  A    between atoms: N_2  and  C_9 
REMARK    3  A    between atoms: C_14  and  N_2 
REMARK    4  A    between atoms: O_6  and  C_8 
REMARK    5  A    between atoms: C_10  and  O_6 
REMARK    6  A    between atoms: C_7  and  C_10 
REMARK    7  A    between atoms: C_9  and  C_7 
ROOT
ATOM      1  C   UNL d   1      53.148  30.672  53.756  0.00  0.00     0.000 A 
ATOM      2  C   UNL d   1      53.599  31.325  53.982  0.00  0.00     0.002 A 
ATOM      3  C   UNL d   1      52.536  30.765  53.203  0.00  0.00     0.002 A 
ATOM      4  C   UNL d   1      52.837  32.159  53.113  0.00  0.00     0.100 A 
ATOM      5  C   UNL d   1      52.379  31.506  52.880  0.00  0.00     0.025 A 
ATOM      6  C   UNL d   1      53.445  32.064  53.662  0.00  0.00     0.025 A 
ENDROOT
BRANCH   4   7
ATOM      7  O   UNL d   1      52.679  32.899  52.790  0.00  0.00    -0.302 OA
BRANCH   7   8
ATOM      8  C   UNL d   1      52.052  33.357  53.072  0.00  0.00     0.166 C 
BRANCH   8   9
ATOM      9  C   UNL d   1      51.880  34.089  52.735  0.00  0.00     0.239 C 
ATOM     10  O   UNL d   1      52.454  34.682  52.741  0.00  0.00    -0.283 OA
BRANCH   9  11
ATOM     11  C   UNL d   1      51.143  34.227  52.395  0.00  0.00     0.143 C 
BRANCH  11  12
ATOM     12  N   UNL d   1      50.525  34.523  52.860  0.00  0.00    -0.241 NA
BRANCH  12  13
ATOM     13  C   UNL d   1      49.797  34.685  52.501  0.00  0.00     0.082 C 
ATOM     14  C   UNL d   1      49.644  34.389  51.748  0.00  0.00     0.021 C 
ATOM     15  C   UNL d   1      49.229  35.138  52.890  0.00  0.00     0.021 C 
ENDBRANCH  12  13
ENDBRANCH  11  12
ENDBRANCH   9  11
ENDBRANCH   8   9
ENDBRANCH   7   8
ENDBRANCH   4   7
BRANCH   1  16
ATOM     16  C   UNL d   1      53.301  29.937  54.073  0.00  0.00     0.000 A 
ATOM     17  C   UNL d   1      53.713  29.371  53.626  0.00  0.00     0.000 A 
ATOM     18  C   UNL d   1      53.867  28.625  53.951  0.00  0.00     0.000 A 
ATOM     19  C   UNL d   1      53.614  28.439  54.713  0.00  0.00     0.000 A 
ATOM     20  C   UNL d   1      53.205  28.998  55.160  0.00  0.00     0.000 A 
ATOM     21  C   UNL d   1      53.046  29.749  54.843  0.00  0.00     0.000 A 
ENDBRANCH   1  16
TORSDOF 7
ENDMDL
