MODEL 1
REMARK VINA RESULT:      -3.2      0.000      0.000
REMARK  4 active torsions:
REMARK  status: ('A' for Active; 'I' for Inactive)
REMARK    1  A    between atoms: N_2  and  S_1 
REMARK    2  A    between atoms: C_5  and  S_1 
REMARK    3  A    between atoms: C_4  and  C_3 
REMARK    4  A    between atoms: C_12  and  C_3 
ROOT
ATOM      1  N   UNL d   1      30.908  16.571 -24.271  0.00  0.00    -0.230 N 
ATOM      2  C   UNL d   1      32.004  17.719 -23.822  0.00  0.00     0.137 A 
ATOM      3  C   UNL d   1      31.319  17.928 -24.217  0.00  0.00     0.011 A 
ATOM      4  C   UNL d   1      32.140  16.922 -23.650  0.00  0.00     0.011 A 
ATOM      5  C   UNL d   1      31.592  16.348 -23.875  0.00  0.00     0.088 A 
ATOM      6  C   UNL d   1      30.771  17.354 -24.442  0.00  0.00     0.088 A 
ENDROOT
BRANCH   1   7
ATOM      7  S   UNL d   1      30.359  15.997 -24.495  0.00  0.00     0.271 S 
ATOM      8  O   UNL d   1      30.541  15.466 -25.097  0.00  0.00    -0.200 OA
ATOM      9  O   UNL d   1      31.013  15.879 -24.980  0.00  0.00    -0.200 OA
BRANCH   7  10
ATOM     10  C   UNL d   1      29.629  15.954 -24.117  0.00  0.00     0.104 A 
ATOM     11  C   UNL d   1      29.579  15.662 -23.356  0.00  0.00     0.013 A 
ATOM     12  C   UNL d   1      28.849  15.617 -22.969  0.00  0.00     0.001 A 
ATOM     13  C   UNL d   1      28.162  15.873 -23.368  0.00  0.00     0.000 A 
ATOM     14  C   UNL d   1      28.220  16.167 -24.137  0.00  0.00     0.001 A 
ATOM     15  C   UNL d   1      27.431  15.827 -22.981  0.00  0.00     0.000 C 
ATOM     16  C   UNL d   1      28.950  16.206 -24.507  0.00  0.00     0.013 A 
ENDBRANCH   7  10
ENDBRANCH   1   7
BRANCH   2  17
ATOM     17  C   UNL d   1      32.577  17.238 -23.454  0.00  0.00     0.196 C 
ATOM     18  O   UNL d   1      32.537  17.082 -22.652  0.00  0.00    -0.647 OA
ATOM     19  O   UNL d   1      33.189  16.917 -23.907  0.00  0.00    -0.647 OA
ENDBRANCH   2  17
BRANCH   2  20
ATOM     20  C   UNL d   1      32.418  18.420 -23.686  0.00  0.00    -0.005 A 
ATOM     21  C   UNL d   1      32.451  18.721 -22.921  0.00  0.00    -0.003 A 
ATOM     22  C   UNL d   1      32.863  19.424 -22.777  0.00  0.00    -0.000 A 
ATOM     23  C   UNL d   1      33.241  19.823 -23.397  0.00  0.00    -0.000 A 
ATOM     24  C   UNL d   1      33.201  19.510 -24.165  0.00  0.00    -0.000 A 
ATOM     25  C   UNL d   1      32.792  18.816 -24.301  0.00  0.00    -0.003 A 
ENDBRANCH   2  20
TORSDOF 4
ENDMDL
MODEL 2
REMARK VINA RESULT:      -2.4      1.338      4.201
REMARK  4 active torsions:
REMARK  status: ('A' for Active; 'I' for Inactive)
REMARK    1  A    between atoms: N_2  and  S_1 
REMARK    2  A    between atoms: C_5  and  S_1 
REMARK    3  A    between atoms: C_4  and  C_3 
REMARK    4  A    between atoms: C_12  and  C_3 
ROOT
ATOM      1  N   UNL d   1      32.280  18.184 -23.885  0.00  0.00    -0.230 N 
ATOM      2  C   UNL d   1      31.213  16.928 -23.963  0.00  0.00     0.137 A 
ATOM      3  C   UNL d   1      30.959  17.699 -24.070  0.00  0.00     0.011 A 
ATOM      4  C   UNL d   1      32.013  16.787 -23.814  0.00  0.00     0.011 A 
ATOM      5  C   UNL d   1      32.547  17.415 -23.776  0.00  0.00     0.088 A 
ATOM      6  C   UNL d   1      31.493  18.327 -24.032  0.00  0.00     0.088 A 
ENDROOT
BRANCH   1   7
ATOM      7  S   UNL d   1      32.814  18.812 -23.847  0.00  0.00     0.271 S 
ATOM      8  O   UNL d   1      33.240  19.032 -24.515  0.00  0.00    -0.200 OA
ATOM      9  O   UNL d   1      32.849  18.540 -24.622  0.00  0.00    -0.200 OA
BRANCH   7  10
ATOM     10  C   UNL d   1      32.920  19.220 -23.139  0.00  0.00     0.104 A 
ATOM     11  C   UNL d   1      33.047  18.807 -22.445  0.00  0.00     0.013 A 
ATOM     12  C   UNL d   1      33.155  19.209 -21.730  0.00  0.00     0.001 A 
ATOM     13  C   UNL d   1      33.133  20.044 -21.726  0.00  0.00     0.000 A 
ATOM     14  C   UNL d   1      33.004  20.453 -22.431  0.00  0.00     0.001 A 
ATOM     15  C   UNL d   1      33.241  20.446 -21.011  0.00  0.00     0.000 C 
ATOM     16  C   UNL d   1      32.899  20.042 -23.132  0.00  0.00     0.013 A 
ENDBRANCH   7  10
ENDBRANCH   1   7
BRANCH   2  17
ATOM     17  C   UNL d   1      31.729  16.289 -23.821  0.00  0.00     0.196 C 
ATOM     18  O   UNL d   1      31.873  16.030 -23.059  0.00  0.00    -0.647 OA
ATOM     19  O   UNL d   1      32.098  15.916 -24.460  0.00  0.00    -0.647 OA
ENDBRANCH   2  17
BRANCH   2  20
ATOM     20  C   UNL d   1      30.544  16.451 -24.037  0.00  0.00    -0.005 A 
ATOM     21  C   UNL d   1      29.968  16.478 -23.450  0.00  0.00    -0.003 A 
ATOM     22  C   UNL d   1      29.294  16.002 -23.518  0.00  0.00    -0.000 A 
ATOM     23  C   UNL d   1      29.199  15.501 -24.170  0.00  0.00    -0.000 A 
ATOM     24  C   UNL d   1      29.786  15.481 -24.756  0.00  0.00    -0.000 A 
ATOM     25  C   UNL d   1      30.450  15.954 -24.685  0.00  0.00    -0.003 A 
ENDBRANCH   2  20
TORSDOF 4
ENDMDL
MODEL 3
REMARK VINA RESULT:      -1.8      1.037      1.538
REMARK  4 active torsions:
REMARK  status: ('A' for Active; 'I' for Inactive)
REMARK    1  A    between atoms: N_2  and  S_1 
REMARK    2  A    between atoms: C_5  and  S_1 
REMARK    3  A    between atoms: C_4  and  C_3 
REMARK    4  A    between atoms: C_12  and  C_3 
ROOT
ATOM      1  N   UNL d   1      31.904  16.860 -23.988  0.00  0.00    -0.230 N 
ATOM      2  C   UNL d   1      32.450  18.412 -23.870  0.00  0.00     0.137 A 
ATOM      3  C   UNL d   1      32.313  17.966 -23.198  0.00  0.00     0.011 A 
ATOM      4  C   UNL d   1      32.311  18.074 -24.611  0.00  0.00     0.011 A 
ATOM      5  C   UNL d   1      32.039  17.298 -24.670  0.00  0.00     0.088 A 
ATOM      6  C   UNL d   1      32.040  17.190 -23.257  0.00  0.00     0.088 A 
ENDROOT
BRANCH   1   7
ATOM      7  S   UNL d   1      31.632  16.083 -24.048  0.00  0.00     0.271 S 
ATOM      8  O   UNL d   1      32.167  15.460 -24.085  0.00  0.00    -0.200 OA
ATOM      9  O   UNL d   1      32.452  16.029 -24.040  0.00  0.00    -0.200 OA
BRANCH   7  10
ATOM     10  C   UNL d   1      30.823  15.932 -24.069  0.00  0.00     0.104 A 
ATOM     11  C   UNL d   1      30.430  15.909 -24.786  0.00  0.00     0.013 A 
ATOM     12  C   UNL d   1      29.618  15.757 -24.816  0.00  0.00     0.001 A 
ATOM     13  C   UNL d   1      29.202  15.627 -24.104  0.00  0.00     0.000 A 
ATOM     14  C   UNL d   1      29.605  15.651 -23.384  0.00  0.00     0.001 A 
ATOM     15  C   UNL d   1      28.388  15.474 -24.133  0.00  0.00     0.000 C 
ATOM     16  C   UNL d   1      30.410  15.803 -23.369  0.00  0.00     0.013 A 
ENDBRANCH   7  10
ENDBRANCH   1   7
BRANCH   2  17
ATOM     17  C   UNL d   1      32.498  18.613 -24.678  0.00  0.00     0.196 C 
ATOM     18  O   UNL d   1      31.856  18.941 -25.065  0.00  0.00    -0.647 OA
ATOM     19  O   UNL d   1      33.202  18.476 -25.088  0.00  0.00    -0.647 OA
ENDBRANCH   2  17
BRANCH   2  20
ATOM     20  C   UNL d   1      32.715  19.150 -23.609  0.00  0.00    -0.005 A 
ATOM     21  C   UNL d   1      32.717  19.309 -22.802  0.00  0.00    -0.003 A 
ATOM     22  C   UNL d   1      32.981  20.046 -22.533  0.00  0.00    -0.000 A 
ATOM     23  C   UNL d   1      33.241  20.620 -23.071  0.00  0.00    -0.000 A 
ATOM     24  C   UNL d   1      33.235  20.448 -23.883  0.00  0.00    -0.000 A 
ATOM     25  C   UNL d   1      32.973  19.718 -24.143  0.00  0.00    -0.003 A 
ENDBRANCH   2  20
TORSDOF 4
ENDMDL
MODEL 4
REMARK VINA RESULT:      -1.4      0.723      1.217
REMARK  4 active torsions:
REMARK  status: ('A' for Active; 'I' for Inactive)
REMARK    1  A    between atoms: N_2  and  S_1 
REMARK    2  A    between atoms: C_5  and  S_1 
REMARK    3  A    between atoms: C_4  and  C_3 
REMARK    4  A    between atoms: C_12  and  C_3 
ROOT
ATOM      1  N   UNL d   1      30.170  16.517 -24.446  0.00  0.00    -0.230 N 
ATOM      2  C   UNL d   1      31.531  17.435 -24.287  0.00  0.00     0.137 A 
ATOM      3  C   UNL d   1      30.869  17.733 -24.664  0.00  0.00     0.011 A 
ATOM      4  C   UNL d   1      31.509  16.666 -23.986  0.00  0.00     0.011 A 
ATOM      5  C   UNL d   1      30.828  16.207 -24.066  0.00  0.00     0.088 A 
ATOM      6  C   UNL d   1      30.188  17.274 -24.744  0.00  0.00     0.088 A 
ENDROOT
BRANCH   1   7
ATOM      7  S   UNL d   1      29.489  16.058 -24.526  0.00  0.00     0.271 S 
ATOM      8  O   UNL d   1      29.455  15.467 -25.097  0.00  0.00    -0.200 OA
ATOM      9  O   UNL d   1      30.012  15.778 -25.096  0.00  0.00    -0.200 OA
BRANCH   7  10
ATOM     10  C   UNL d   1      28.842  16.191 -24.034  0.00  0.00     0.104 A 
ATOM     11  C   UNL d   1      28.547  16.947 -23.942  0.00  0.00     0.013 A 
ATOM     12  C   UNL d   1      27.898  17.089 -23.450  0.00  0.00     0.001 A 
ATOM     13  C   UNL d   1      27.546  16.448 -23.046  0.00  0.00     0.000 A 
ATOM     14  C   UNL d   1      27.850  15.687 -23.143  0.00  0.00     0.001 A 
ATOM     15  C   UNL d   1      26.896  16.590 -22.553  0.00  0.00     0.000 C 
ATOM     16  C   UNL d   1      28.494  15.562 -23.635  0.00  0.00     0.013 A 
ENDBRANCH   7  10
ENDBRANCH   1   7
BRANCH   2  17
ATOM     17  C   UNL d   1      32.023  16.898 -23.880  0.00  0.00     0.196 C 
ATOM     18  O   UNL d   1      32.466  16.347 -24.290  0.00  0.00    -0.647 OA
ATOM     19  O   UNL d   1      32.058  16.927 -23.055  0.00  0.00    -0.647 OA
ENDBRANCH   2  17
BRANCH   2  20
ATOM     20  C   UNL d   1      32.099  18.034 -24.307  0.00  0.00    -0.005 A 
ATOM     21  C   UNL d   1      32.606  18.080 -24.954  0.00  0.00    -0.003 A 
ATOM     22  C   UNL d   1      33.178  18.678 -24.981  0.00  0.00    -0.000 A 
ATOM     23  C   UNL d   1      33.241  19.226 -24.363  0.00  0.00    -0.000 A 
ATOM     24  C   UNL d   1      32.725  19.170 -23.716  0.00  0.00    -0.000 A 
ATOM     25  C   UNL d   1      32.161  18.577 -23.694  0.00  0.00    -0.003 A 
ENDBRANCH   2  20
TORSDOF 4
ENDMDL
