MODEL 1
REMARK VINA RESULT:      -0.6      0.000      0.000
REMARK  7 active torsions:
REMARK  status: ('A' for Active; 'I' for Inactive)
REMARK    1  A    between atoms: C_11  and  C_3 
REMARK    2  A    between atoms: C_10  and  C_4 
REMARK    3  A    between atoms: O_16  and  C_10 
REMARK    4  A    between atoms: N_14  and  C_11 
REMARK    5  A    between atoms: C_21  and  N_14 
REMARK    6  A    between atoms: C_23  and  O_16 
REMARK    7  A    between atoms: C_20  and  C_21 
ROOT
ATOM      1  C   UNL d   1      33.166  20.691 -21.465  0.00  0.00     0.035 A 
ATOM      2  C   UNL d   1      33.168  19.871 -21.321  0.00  0.00     0.100 A 
ATOM      3  C   UNL d   1      33.186  20.960 -22.243  0.00  0.00     0.060 A 
ATOM      4  C   UNL d   1      33.142  21.093 -20.748  0.00  0.00     0.088 A 
ATOM      5  O   UNL d   1      33.145  19.771 -20.479  0.00  0.00    -0.307 OA
ATOM      6  C   UNL d   1      33.130  20.505 -20.156  0.00  0.00     0.105 A 
ATOM      7  C   UNL d   1      33.209  20.407 -22.873  0.00  0.00     0.197 A 
ATOM      8  C   UNL d   1      33.191  19.310 -21.942  0.00  0.00     0.026 A 
ATOM      9  C   UNL d   1      33.211  19.579 -22.720  0.00  0.00     0.041 A 
ATOM     10  O   UNL d   1      33.229  20.682 -23.668  0.00  0.00    -0.286 OA
ATOM     11  C   UNL d   1      33.105  20.658 -19.328  0.00  0.00     0.027 C 
ATOM     12  C   UNL d   1      33.193  18.508 -21.792  0.00  0.00     0.002 A 
ATOM     13  C   UNL d   1      33.233  19.044 -23.343  0.00  0.00     0.003 A 
ATOM     14  C   UNL d   1      33.235  18.221 -23.188  0.00  0.00     0.000 A 
ATOM     15  C   UNL d   1      33.215  17.952 -22.411  0.00  0.00     0.000 A 
ENDROOT
BRANCH   3  16
ATOM     16  C   UNL d   1      33.183  21.803 -22.365  0.00  0.00     0.102 C 
BRANCH  16  17
ATOM     17  N   UNL d   1      33.207  22.099 -23.179  0.00  0.00    -0.240 NA
BRANCH  17  18
ATOM     18  C   UNL d   1      33.203  22.924 -23.307  0.00  0.00     0.124 C 
BRANCH  18  19
ATOM     19  C   UNL d   1      32.784  23.229 -23.946  0.00  0.00     0.119 A 
ATOM     20  O   UNL d   1      31.959  23.408 -23.875  0.00  0.00    -0.304 OA
ATOM     21  C   UNL d   1      31.708  23.698 -24.595  0.00  0.00     0.123 A 
ATOM     22  C   UNL d   1      32.338  23.702 -25.094  0.00  0.00     0.029 A 
ATOM     23  C   UNL d   1      32.999  23.421 -24.715  0.00  0.00     0.028 A 
ENDBRANCH  18  19
ENDBRANCH  17  18
ENDBRANCH  16  17
ENDBRANCH   3  16
BRANCH   4  24
ATOM     24  C   UNL d   1      33.132  21.922 -20.613  0.00  0.00     0.302 C 
ATOM     25  O   UNL d   1      33.007  22.458 -21.263  0.00  0.00    -0.259 OA
BRANCH  24  26
ATOM     26  O   UNL d   1      33.241  22.234 -19.855  0.00  0.00    -0.271 OA
BRANCH  26  27
ATOM     27  C   UNL d   1      32.970  22.991 -19.683  0.00  0.00     0.126 C 
ATOM     28  C   UNL d   1      33.230  23.374 -19.019  0.00  0.00     0.029 C 
ENDBRANCH  26  27
ENDBRANCH  24  26
ENDBRANCH   4  24
TORSDOF 7
ENDMDL
MODEL 2
REMARK VINA RESULT:      -0.1      1.077      3.922
REMARK  7 active torsions:
REMARK  status: ('A' for Active; 'I' for Inactive)
REMARK    1  A    between atoms: C_11  and  C_3 
REMARK    2  A    between atoms: C_10  and  C_4 
REMARK    3  A    between atoms: O_16  and  C_10 
REMARK    4  A    between atoms: N_14  and  C_11 
REMARK    5  A    between atoms: C_21  and  N_14 
REMARK    6  A    between atoms: C_23  and  O_16 
REMARK    7  A    between atoms: C_20  and  C_21 
ROOT
ATOM      1  C   UNL d   1      33.207  21.676 -22.115  0.00  0.00     0.035 A 
ATOM      2  C   UNL d   1      33.193  22.086 -21.390  0.00  0.00     0.100 A 
ATOM      3  C   UNL d   1      33.223  20.854 -22.108  0.00  0.00     0.060 A 
ATOM      4  C   UNL d   1      33.201  22.218 -22.733  0.00  0.00     0.088 A 
ATOM      5  O   UNL d   1      33.178  22.914 -21.578  0.00  0.00    -0.307 OA
ATOM      6  C   UNL d   1      33.184  22.973 -22.378  0.00  0.00     0.105 A 
ATOM      7  C   UNL d   1      33.225  20.445 -21.377  0.00  0.00     0.197 A 
ATOM      8  C   UNL d   1      33.194  21.688 -20.654  0.00  0.00     0.026 A 
ATOM      9  C   UNL d   1      33.210  20.865 -20.647  0.00  0.00     0.041 A 
ATOM     10  O   UNL d   1      33.241  19.603 -21.370  0.00  0.00    -0.286 OA
ATOM     11  C   UNL d   1      33.173  23.702 -22.799  0.00  0.00     0.027 C 
ATOM     12  C   UNL d   1      33.180  22.098 -19.948  0.00  0.00     0.002 A 
ATOM     13  C   UNL d   1      33.212  20.456 -19.935  0.00  0.00     0.003 A 
ATOM     14  C   UNL d   1      33.198  20.877 -19.210  0.00  0.00     0.000 A 
ATOM     15  C   UNL d   1      33.182  21.700 -19.217  0.00  0.00     0.000 A 
ENDROOT
BRANCH   3  16
ATOM     16  C   UNL d   1      33.237  20.456 -22.862  0.00  0.00     0.102 C 
BRANCH  16  17
ATOM     17  N   UNL d   1      32.776  19.729 -22.950  0.00  0.00    -0.240 NA
BRANCH  17  18
ATOM     18  C   UNL d   1      33.013  19.170 -23.523  0.00  0.00     0.124 C 
BRANCH  18  19
ATOM     19  C   UNL d   1      32.503  18.554 -23.719  0.00  0.00     0.119 A 
ATOM     20  O   UNL d   1      32.212  18.470 -24.510  0.00  0.00    -0.304 OA
ATOM     21  C   UNL d   1      31.725  17.815 -24.524  0.00  0.00     0.123 A 
ATOM     22  C   UNL d   1      31.708  17.503 -23.784  0.00  0.00     0.029 A 
ATOM     23  C   UNL d   1      32.175  17.940 -23.282  0.00  0.00     0.028 A 
ENDBRANCH  18  19
ENDBRANCH  17  18
ENDBRANCH  16  17
ENDBRANCH   3  16
BRANCH   4  24
ATOM     24  C   UNL d   1      33.211  22.068 -23.560  0.00  0.00     0.302 C 
ATOM     25  O   UNL d   1      33.211  21.267 -23.849  0.00  0.00    -0.259 OA
BRANCH  24  26
ATOM     26  O   UNL d   1      33.222  22.688 -24.108  0.00  0.00    -0.271 OA
BRANCH  26  27
ATOM     27  C   UNL d   1      32.876  22.585 -24.847  0.00  0.00     0.126 C 
ATOM     28  C   UNL d   1      32.295  23.091 -25.096  0.00  0.00     0.029 C 
ENDBRANCH  26  27
ENDBRANCH  24  26
ENDBRANCH   4  24
TORSDOF 7
ENDMDL
MODEL 3
REMARK VINA RESULT:       1.2      0.988      3.479
REMARK  7 active torsions:
REMARK  status: ('A' for Active; 'I' for Inactive)
REMARK    1  A    between atoms: C_11  and  C_3 
REMARK    2  A    between atoms: C_10  and  C_4 
REMARK    3  A    between atoms: O_16  and  C_10 
REMARK    4  A    between atoms: N_14  and  C_11 
REMARK    5  A    between atoms: C_21  and  N_14 
REMARK    6  A    between atoms: C_23  and  O_16 
REMARK    7  A    between atoms: C_20  and  C_21 
ROOT
ATOM      1  C   UNL d   1      33.202  20.536 -23.099  0.00  0.00     0.035 A 
ATOM      2  C   UNL d   1      33.180  19.828 -23.536  0.00  0.00     0.100 A 
ATOM      3  C   UNL d   1      33.220  20.498 -22.277  0.00  0.00     0.060 A 
ATOM      4  C   UNL d   1      33.200  21.175 -23.616  0.00  0.00     0.088 A 
ATOM      5  O   UNL d   1      33.165  20.048 -24.355  0.00  0.00    -0.307 OA
ATOM      6  C   UNL d   1      33.178  20.849 -24.384  0.00  0.00     0.105 A 
ATOM      7  C   UNL d   1      33.216  19.751 -21.896  0.00  0.00     0.197 A 
ATOM      8  C   UNL d   1      33.177  19.077 -23.167  0.00  0.00     0.026 A 
ATOM      9  C   UNL d   1      33.195  19.038 -22.345  0.00  0.00     0.041 A 
ATOM     10  O   UNL d   1      33.235  19.711 -21.055  0.00  0.00    -0.286 OA
ATOM     11  C   UNL d   1      33.169  21.298 -25.097  0.00  0.00     0.027 C 
ATOM     12  C   UNL d   1      33.156  18.388 -23.603  0.00  0.00     0.002 A 
ATOM     13  C   UNL d   1      33.192  18.311 -21.963  0.00  0.00     0.003 A 
ATOM     14  C   UNL d   1      33.170  17.603 -22.412  0.00  0.00     0.000 A 
ATOM     15  C   UNL d   1      33.152  17.642 -23.234  0.00  0.00     0.000 A 
ENDROOT
BRANCH   3  16
ATOM     16  C   UNL d   1      33.241  21.235 -21.851  0.00  0.00     0.102 C 
BRANCH  16  17
ATOM     17  N   UNL d   1      33.064  21.224 -21.003  0.00  0.00    -0.240 NA
BRANCH  17  18
ATOM     18  C   UNL d   1      32.704  21.894 -20.659  0.00  0.00     0.124 C 
BRANCH  18  19
ATOM     19  C   UNL d   1      32.896  22.101 -19.886  0.00  0.00     0.119 A 
ATOM     20  O   UNL d   1      33.034  22.910 -19.677  0.00  0.00    -0.304 OA
ATOM     21  C   UNL d   1      33.211  22.931 -18.880  0.00  0.00     0.123 A 
ATOM     22  C   UNL d   1      33.186  22.178 -18.601  0.00  0.00     0.029 A 
ATOM     23  C   UNL d   1      32.997  21.661 -19.199  0.00  0.00     0.028 A 
ENDBRANCH  18  19
ENDBRANCH  17  18
ENDBRANCH  16  17
ENDBRANCH   3  16
BRANCH   4  24
ATOM     24  C   UNL d   1      33.217  21.996 -23.435  0.00  0.00     0.302 C 
ATOM     25  O   UNL d   1      33.211  22.253 -22.623  0.00  0.00    -0.259 OA
BRANCH  24  26
ATOM     26  O   UNL d   1      33.241  22.567 -24.033  0.00  0.00    -0.271 OA
BRANCH  26  27
ATOM     27  C   UNL d   1      32.895  23.302 -23.907  0.00  0.00     0.126 C 
ATOM     28  C   UNL d   1      32.103  23.406 -24.040  0.00  0.00     0.029 C 
ENDBRANCH  26  27
ENDBRANCH  24  26
ENDBRANCH   4  24
TORSDOF 7
ENDMDL
