MODEL 1
REMARK VINA RESULT:      -5.0      0.000      0.000
REMARK  1 active torsions:
REMARK  status: ('A' for Active; 'I' for Inactive)
REMARK    1  A    between atoms: C_2  and  C_1 
ROOT
ATOM      1  C   UNL d   1     -46.565  12.683  23.342  0.00  0.00     0.169 A 
ATOM      2  N   UNL d   1     -45.841  12.331  23.476  0.00  0.00    -0.142 NA
ATOM      3  N   UNL d   1     -45.965  11.545  23.698  0.00  0.00    -0.146 NA
ATOM      4  C   UNL d   1     -47.155  12.123  23.478  0.00  0.00     0.050 A 
ATOM      5  C   UNL d   1     -46.785  11.420  23.698  0.00  0.00     0.124 A 
ENDROOT
BRANCH   1   6
ATOM      6  C   UNL d   1     -46.692  13.467  23.109  0.00  0.00     0.231 C 
ATOM      7  O   UNL d   1     -46.135  14.045  23.297  0.00  0.00    -0.643 OA
ATOM      8  O   UNL d   1     -47.371  13.668  22.692  0.00  0.00    -0.643 OA
ENDBRANCH   1   6
TORSDOF 1
ENDMDL
MODEL 2
REMARK VINA RESULT:      -4.9      1.454      1.933
REMARK  1 active torsions:
REMARK  status: ('A' for Active; 'I' for Inactive)
REMARK    1  A    between atoms: C_2  and  C_1 
ROOT
ATOM      1  C   UNL d   1     -46.566  12.725  23.357  0.00  0.00     0.169 A 
ATOM      2  N   UNL d   1     -45.918  13.219  23.322  0.00  0.00    -0.142 NA
ATOM      3  N   UNL d   1     -46.166  13.966  23.069  0.00  0.00    -0.146 NA
ATOM      4  C   UNL d   1     -47.233  13.154  23.126  0.00  0.00     0.050 A 
ATOM      5  C   UNL d   1     -46.986  13.920  22.949  0.00  0.00     0.124 A 
ENDROOT
BRANCH   1   6
ATOM      6  C   UNL d   1     -46.563  11.930  23.583  0.00  0.00     0.231 C 
ATOM      7  O   UNL d   1     -45.846  11.539  23.695  0.00  0.00    -0.643 OA
ATOM      8  O   UNL d   1     -47.273  11.530  23.697  0.00  0.00    -0.643 OA
ENDBRANCH   1   6
TORSDOF 1
ENDMDL
MODEL 3
REMARK VINA RESULT:      -4.4      1.236      1.543
REMARK  1 active torsions:
REMARK  status: ('A' for Active; 'I' for Inactive)
REMARK    1  A    between atoms: C_2  and  C_1 
ROOT
ATOM      1  C   UNL d   1     -46.822  13.338  23.003  0.00  0.00     0.169 A 
ATOM      2  N   UNL d   1     -46.403  12.910  23.557  0.00  0.00    -0.142 NA
ATOM      3  N   UNL d   1     -45.656  12.735  23.249  0.00  0.00    -0.146 NA
ATOM      4  C   UNL d   1     -46.344  13.438  22.337  0.00  0.00     0.050 A 
ATOM      5  C   UNL d   1     -45.624  13.067  22.490  0.00  0.00     0.124 A 
ENDROOT
BRANCH   1   6
ATOM      6  C   UNL d   1     -47.593  13.624  23.087  0.00  0.00     0.231 C 
ATOM      7  O   UNL d   1     -48.210  13.099  23.242  0.00  0.00    -0.643 OA
ATOM      8  O   UNL d   1     -47.744  14.429  23.017  0.00  0.00    -0.643 OA
ENDBRANCH   1   6
TORSDOF 1
ENDMDL
MODEL 4
REMARK VINA RESULT:      -4.4      1.885      2.157
REMARK  1 active torsions:
REMARK  status: ('A' for Active; 'I' for Inactive)
REMARK    1  A    between atoms: C_2  and  C_1 
ROOT
ATOM      1  C   UNL d   1     -47.013  13.668  22.947  0.00  0.00     0.169 A 
ATOM      2  N   UNL d   1     -47.169  14.449  22.769  0.00  0.00    -0.142 NA
ATOM      3  N   UNL d   1     -47.983  14.537  22.655  0.00  0.00    -0.146 NA
ATOM      4  C   UNL d   1     -47.727  13.254  22.949  0.00  0.00     0.050 A 
ATOM      5  C   UNL d   1     -48.326  13.790  22.768  0.00  0.00     0.124 A 
ENDROOT
BRANCH   1   6
ATOM      6  C   UNL d   1     -46.269  13.342  23.102  0.00  0.00     0.231 C 
ATOM      7  O   UNL d   1     -45.617  13.579  22.656  0.00  0.00    -0.643 OA
ATOM      8  O   UNL d   1     -46.179  12.783  23.698  0.00  0.00    -0.643 OA
ENDBRANCH   1   6
TORSDOF 1
ENDMDL
MODEL 5
REMARK VINA RESULT:      -4.2      8.161      8.519
REMARK  1 active torsions:
REMARK  status: ('A' for Active; 'I' for Inactive)
REMARK    1  A    between atoms: C_2  and  C_1 
ROOT
ATOM      1  C   UNL d   1     -40.766  14.929  17.584  0.00  0.00     0.169 A 
ATOM      2  N   UNL d   1     -40.895  14.124  17.613  0.00  0.00    -0.142 NA
ATOM      3  N   UNL d   1     -40.701  13.850  18.368  0.00  0.00    -0.146 NA
ATOM      4  C   UNL d   1     -40.489  15.174  18.322  0.00  0.00     0.050 A 
ATOM      5  C   UNL d   1     -40.449  14.508  18.806  0.00  0.00     0.124 A 
ENDROOT
BRANCH   1   6
ATOM      6  C   UNL d   1     -40.890  15.421  16.931  0.00  0.00     0.231 C 
ATOM      7  O   UNL d   1     -40.280  15.907  16.663  0.00  0.00    -0.643 OA
ATOM      8  O   UNL d   1     -41.618  15.425  16.550  0.00  0.00    -0.643 OA
ENDBRANCH   1   6
TORSDOF 1
ENDMDL
MODEL 6
REMARK VINA RESULT:      -4.2      2.683      2.993
REMARK  1 active torsions:
REMARK  status: ('A' for Active; 'I' for Inactive)
REMARK    1  A    between atoms: C_2  and  C_1 
ROOT
ATOM      1  C   UNL d   1     -49.113  11.993  22.409  0.00  0.00     0.169 A 
ATOM      2  N   UNL d   1     -48.688  11.299  22.458  0.00  0.00    -0.142 NA
ATOM      3  N   UNL d   1     -48.585  11.106  23.255  0.00  0.00    -0.146 NA
ATOM      4  C   UNL d   1     -49.284  12.248  23.175  0.00  0.00     0.050 A 
ATOM      5  C   UNL d   1     -48.958  11.700  23.698  0.00  0.00     0.124 A 
ENDROOT
BRANCH   1   6
ATOM      6  C   UNL d   1     -49.338  12.381  21.714  0.00  0.00     0.231 C 
ATOM      7  O   UNL d   1     -50.135  12.424  21.508  0.00  0.00    -0.643 OA
ATOM      8  O   UNL d   1     -48.768  12.722  21.229  0.00  0.00    -0.643 OA
ENDBRANCH   1   6
TORSDOF 1
ENDMDL
MODEL 7
REMARK VINA RESULT:      -4.1      1.914      2.301
REMARK  1 active torsions:
REMARK  status: ('A' for Active; 'I' for Inactive)
REMARK    1  A    between atoms: C_2  and  C_1 
ROOT
ATOM      1  C   UNL d   1     -47.842  11.983  23.155  0.00  0.00     0.169 A 
ATOM      2  N   UNL d   1     -47.236  11.911  23.697  0.00  0.00    -0.142 NA
ATOM      3  N   UNL d   1     -46.721  12.550  23.608  0.00  0.00    -0.146 NA
ATOM      4  C   UNL d   1     -47.716  12.670  22.716  0.00  0.00     0.050 A 
ATOM      5  C   UNL d   1     -47.024  13.021  22.995  0.00  0.00     0.124 A 
ENDROOT
BRANCH   1   6
ATOM      6  C   UNL d   1     -48.475  11.461  23.058  0.00  0.00     0.231 C 
ATOM      7  O   UNL d   1     -48.624  11.131  22.317  0.00  0.00    -0.643 OA
ATOM      8  O   UNL d   1     -48.956  11.271  23.697  0.00  0.00    -0.643 OA
ENDBRANCH   1   6
TORSDOF 1
ENDMDL
MODEL 8
REMARK VINA RESULT:      -4.0      1.742      2.006
REMARK  1 active torsions:
REMARK  status: ('A' for Active; 'I' for Inactive)
REMARK    1  A    between atoms: C_2  and  C_1 
ROOT
ATOM      1  C   UNL d   1     -47.962  12.148  23.354  0.00  0.00     0.169 A 
ATOM      2  N   UNL d   1     -48.045  11.412  23.695  0.00  0.00    -0.142 NA
ATOM      3  N   UNL d   1     -48.845  11.205  23.691  0.00  0.00    -0.146 NA
ATOM      4  C   UNL d   1     -48.710  12.416  23.131  0.00  0.00     0.050 A 
ATOM      5  C   UNL d   1     -49.255  11.834  23.338  0.00  0.00     0.124 A 
ENDROOT
BRANCH   1   6
ATOM      6  C   UNL d   1     -47.254  12.561  23.249  0.00  0.00     0.231 C 
ATOM      7  O   UNL d   1     -47.212  13.167  22.691  0.00  0.00    -0.643 OA
ATOM      8  O   UNL d   1     -46.593  12.368  23.698  0.00  0.00    -0.643 OA
ENDBRANCH   1   6
TORSDOF 1
ENDMDL
MODEL 9
REMARK VINA RESULT:      -3.9      8.330      8.801
REMARK  1 active torsions:
REMARK  status: ('A' for Active; 'I' for Inactive)
REMARK    1  A    between atoms: C_2  and  C_1 
ROOT
ATOM      1  C   UNL d   1     -40.610  14.723  17.596  0.00  0.00     0.169 A 
ATOM      2  N   UNL d   1     -41.295  14.786  17.158  0.00  0.00    -0.142 NA
ATOM      3  N   UNL d   1     -41.284  15.502  16.747  0.00  0.00    -0.146 NA
ATOM      4  C   UNL d   1     -40.156  15.400  17.466  0.00  0.00     0.050 A 
ATOM      5  C   UNL d   1     -40.572  15.881  16.942  0.00  0.00     0.124 A 
ENDROOT
BRANCH   1   6
ATOM      6  C   UNL d   1     -40.399  14.092  18.088  0.00  0.00     0.231 C 
ATOM      7  O   UNL d   1     -40.777  13.996  18.815  0.00  0.00    -0.643 OA
ATOM      8  O   UNL d   1     -39.816  13.563  17.853  0.00  0.00    -0.643 OA
ENDBRANCH   1   6
TORSDOF 1
ENDMDL
