MODEL 1
REMARK VINA RESULT:      21.7      0.000      0.000
REMARK  7 active torsions:
REMARK  status: ('A' for Active; 'I' for Inactive)
REMARK    1  A    between atoms: C_7  and  C_1 
REMARK    2  A    between atoms: N_5  and  C_2 
REMARK       I    between atoms: C_8  and  N_5 
REMARK    3  A    between atoms: N_9  and  C_7 
REMARK    4  A    between atoms: C_11  and  C_7 
REMARK    5  A    between atoms: C_15  and  C_8 
REMARK    6  A    between atoms: O_25  and  C_20 
REMARK    7  A    between atoms: C_29  and  O_25 
ROOT
ATOM      1  C   UNL d   1     -42.148-121.496 -52.303  0.00  0.00     0.066 C 
ENDROOT
BRANCH   1   2
ATOM      2  C   UNL d   1     -42.199-122.023 -51.676  0.00  0.00     0.041 A 
ATOM      3  C   UNL d   1     -42.686-122.030 -51.012  0.00  0.00     0.115 A 
ATOM      4  S   UNL d   1     -42.490-122.700 -50.568  0.00  0.00    -0.068 SA
ATOM      5  C   UNL d   1     -41.887-123.092 -50.966  0.00  0.00     0.031 A 
ATOM      6  C   UNL d   1     -41.704-122.676 -51.653  0.00  0.00     0.009 A 
ATOM      7  C   UNL d   1     -41.534-123.817 -50.675  0.00  0.00     0.007 C 
ATOM      8  C   UNL d   1     -41.123-122.863 -52.239  0.00  0.00     0.001 C 
BRANCH   3   9
ATOM      9  N   UNL d   1     -43.268-121.487 -50.801  0.00  0.00    -0.201 NA
ATOM     10  C   UNL d   1     -43.761-121.622 -50.153  0.00  0.00     0.280 C 
ATOM     11  O   UNL d   1     -44.350-121.059 -49.950  0.00  0.00    -0.265 OA
BRANCH  10  12
ATOM     12  C   UNL d   1     -43.669-122.306 -49.715  0.00  0.00     0.058 A 
ATOM     13  C   UNL d   1     -44.034-122.994 -49.955  0.00  0.00     0.005 A 
ATOM     14  C   UNL d   1     -43.944-123.675 -49.522  0.00  0.00     0.000 A 
ATOM     15  C   UNL d   1     -43.491-123.676 -48.849  0.00  0.00     0.000 A 
ATOM     16  C   UNL d   1     -43.119-122.986 -48.599  0.00  0.00     0.000 A 
ATOM     17  C   UNL d   1     -43.206-122.295 -49.032  0.00  0.00     0.005 A 
ENDBRANCH  10  12
ENDBRANCH   3   9
ENDBRANCH   1   2
BRANCH   1  18
ATOM     18  N   UNL d   1     -41.892-120.717 -52.174  0.00  0.00    -0.301 N 
ATOM     19  C   UNL d   1     -41.365-120.538 -51.539  0.00  0.00     0.100 A 
ATOM     20  C   UNL d   1     -41.123-119.739 -51.432  0.00  0.00     0.100 A 
ATOM     21  N   UNL d   1     -41.380-119.129 -51.924  0.00  0.00    -0.299 N 
ATOM     22  C   UNL d   1     -41.907-119.308 -52.560  0.00  0.00     0.100 A 
ATOM     23  C   UNL d   1     -41.124-118.345 -51.796  0.00  0.00     0.100 C 
ATOM     24  C   UNL d   1     -42.152-120.090 -52.674  0.00  0.00     0.100 A 
ENDBRANCH   1  18
BRANCH   1  25
ATOM     25  C   UNL d   1     -42.349-121.729 -53.072  0.00  0.00     0.016 A 
ATOM     26  C   UNL d   1     -43.119-121.634 -53.333  0.00  0.00     0.004 A 
ATOM     27  C   UNL d   1     -43.339-121.857 -54.086  0.00  0.00     0.025 A 
ATOM     28  C   UNL d   1     -42.783-122.188 -54.611  0.00  0.00     0.100 A 
ATOM     29  C   UNL d   1     -41.977-122.294 -54.356  0.00  0.00     0.025 A 
ATOM     30  C   UNL d   1     -41.765-122.059 -53.574  0.00  0.00     0.004 A 
BRANCH  28  31
ATOM     31  O   UNL d   1     -43.005-122.413 -55.370  0.00  0.00    -0.305 OA
BRANCH  31  32
ATOM     32  C   UNL d   1     -42.559-122.171 -56.030  0.00  0.00     0.123 C 
ATOM     33  C   UNL d   1     -42.909-121.729 -56.635  0.00  0.00     0.029 C 
ENDBRANCH  31  32
ENDBRANCH  28  31
ENDBRANCH   1  25
TORSDOF 7
ENDMDL
