MODEL 1
REMARK VINA RESULT:      -8.1      0.000      0.000
REMARK  4 active torsions:
REMARK  status: ('A' for Active; 'I' for Inactive)
REMARK    1  A    between atoms: C_2  and  C_1 
REMARK    2  A    between atoms: C_7  and  O_14 
REMARK       I    between atoms: N_12  and  C_7 
REMARK    3  A    between atoms: O_14  and  C_11 
REMARK    4  A    between atoms: C_24  and  C_18 
ROOT
ATOM      1  C   UNL d   1      51.425  33.959  53.291  0.00  0.00     0.099 A 
ATOM      2  C   UNL d   1      51.024  34.004  52.573  0.00  0.00     0.202 A 
ATOM      3  C   UNL d   1      50.291  34.395  52.527  0.00  0.00     0.062 A 
ATOM      4  C   UNL d   1      51.098  34.305  53.973  0.00  0.00     0.129 A 
ATOM      5  C   UNL d   1      49.966  34.738  53.205  0.00  0.00     0.105 A 
ATOM      6  O   UNL d   1      50.365  34.695  53.927  0.00  0.00    -0.305 OA
ATOM      7  C   UNL d   1      48.848  35.166  52.443  0.00  0.00     0.107 A 
ATOM      8  C   UNL d   1      49.889  34.440  51.808  0.00  0.00     0.007 A 
ATOM      9  C   UNL d   1      49.240  35.127  53.163  0.00  0.00     0.050 A 
ATOM     10  C   UNL d   1      49.170  34.826  51.772  0.00  0.00     0.023 A 
ATOM     11  O   UNL d   1      51.347  33.663  51.899  0.00  0.00    -0.286 OA
ENDROOT
BRANCH   1  12
ATOM     12  C   UNL d   1      52.153  33.571  53.338  0.00  0.00     0.168 A 
ATOM     13  N   UNL d   1      52.881  33.924  53.491  0.00  0.00    -0.225 NA
ATOM     14  C   UNL d   1      53.461  33.326  53.487  0.00  0.00     0.101 A 
ATOM     15  C   UNL d   1      54.271  33.345  53.603  0.00  0.00     0.021 A 
ATOM     16  C   UNL d   1      53.083  32.610  53.331  0.00  0.00     0.101 A 
ATOM     17  C   UNL d   1      54.718  32.653  53.567  0.00  0.00     0.002 A 
ATOM     18  C   UNL d   1      54.332  31.933  53.410  0.00  0.00     0.002 A 
ATOM     19  C   UNL d   1      53.514  31.913  53.292  0.00  0.00     0.021 A 
ATOM     20  N   UNL d   1      52.274  32.764  53.240  0.00  0.00    -0.225 NA
ENDBRANCH   1  12
BRANCH  10  21
ATOM     21  C   UNL d   1      48.761  34.873  51.049  0.00  0.00     0.002 C 
ATOM     22  C   UNL d   1      48.513  34.182  50.672  0.00  0.00     0.000 C 
ENDBRANCH  10  21
BRANCH   7  23
ATOM     23  O   UNL d   1      48.112  35.560  52.404  0.00  0.00    -0.259 OA
BRANCH  23  24
ATOM     24  C   UNL d   1      47.868  36.048  53.024  0.00  0.00     0.378 C 
ATOM     25  N   UNL d   1      47.065  36.134  53.192  0.00  0.00    -0.247 N 
ATOM     26  C   UNL d   1      46.829  36.623  53.814  0.00  0.00     0.112 A 
ATOM     27  C   UNL d   1      46.507  35.730  52.738  0.00  0.00     0.112 A 
ATOM     28  C   UNL d   1      46.030  36.709  53.982  0.00  0.00     0.142 A 
ATOM     29  O   UNL d   1      45.466  36.308  53.531  0.00  0.00    -0.300 OA
ATOM     30  C   UNL d   1      45.703  35.818  52.909  0.00  0.00     0.142 A 
ATOM     31  O   UNL d   1      48.427  36.451  53.478  0.00  0.00    -0.237 OA
ENDBRANCH  23  24
ENDBRANCH   7  23
TORSDOF 4
ENDMDL
MODEL 2
REMARK VINA RESULT:      -7.9      1.645      6.105
REMARK  4 active torsions:
REMARK  status: ('A' for Active; 'I' for Inactive)
REMARK    1  A    between atoms: C_2  and  C_1 
REMARK    2  A    between atoms: C_7  and  O_14 
REMARK       I    between atoms: N_12  and  C_7 
REMARK    3  A    between atoms: O_14  and  C_11 
REMARK    4  A    between atoms: C_24  and  C_18 
ROOT
ATOM      1  C   UNL d   1      49.755  34.471  52.869  0.00  0.00     0.099 A 
ATOM      2  C   UNL d   1      50.483  34.761  53.122  0.00  0.00     0.202 A 
ATOM      3  C   UNL d   1      51.133  34.248  53.201  0.00  0.00     0.062 A 
ATOM      4  C   UNL d   1      49.667  33.664  52.692  0.00  0.00     0.129 A 
ATOM      5  C   UNL d   1      51.046  33.446  53.025  0.00  0.00     0.105 A 
ATOM      6  O   UNL d   1      50.317  33.151  52.770  0.00  0.00    -0.305 OA
ATOM      7  C   UNL d   1      52.409  33.233  53.355  0.00  0.00     0.107 A 
ATOM      8  C   UNL d   1      51.862  34.538  53.454  0.00  0.00     0.007 A 
ATOM      9  C   UNL d   1      51.688  32.934  53.102  0.00  0.00     0.050 A 
ATOM     10  C   UNL d   1      52.496  34.028  53.529  0.00  0.00     0.023 A 
ATOM     11  O   UNL d   1      50.570  35.560  53.298  0.00  0.00    -0.286 OA
ENDROOT
BRANCH   1  12
ATOM     12  C   UNL d   1      49.108  34.980  52.790  0.00  0.00     0.168 A 
ATOM     13  N   UNL d   1      48.722  35.169  52.088  0.00  0.00    -0.225 NA
ATOM     14  C   UNL d   1      48.106  35.699  52.268  0.00  0.00     0.101 A 
ATOM     15  C   UNL d   1      47.546  36.069  51.801  0.00  0.00     0.021 A 
ATOM     16  C   UNL d   1      48.118  35.832  53.082  0.00  0.00     0.101 A 
ATOM     17  C   UNL d   1      46.989  36.578  52.135  0.00  0.00     0.002 A 
ATOM     18  C   UNL d   1      47.006  36.709  52.956  0.00  0.00     0.002 A 
ATOM     19  C   UNL d   1      47.572  36.334  53.429  0.00  0.00     0.021 A 
ATOM     20  N   UNL d   1      48.739  35.386  53.403  0.00  0.00    -0.225 NA
ENDBRANCH   1  12
BRANCH  10  21
ATOM     21  C   UNL d   1      53.233  34.317  53.785  0.00  0.00     0.002 C 
ATOM     22  C   UNL d   1      53.287  35.077  54.103  0.00  0.00     0.000 C 
ENDBRANCH  10  21
BRANCH   7  23
ATOM     23  O   UNL d   1      53.058  32.712  53.432  0.00  0.00    -0.259 OA
BRANCH  23  24
ATOM     24  C   UNL d   1      53.069  31.997  53.018  0.00  0.00     0.378 C 
ATOM     25  N   UNL d   1      53.267  31.298  53.406  0.00  0.00    -0.247 N 
ATOM     26  C   UNL d   1      53.276  30.587  52.986  0.00  0.00     0.112 A 
ATOM     27  C   UNL d   1      53.455  31.314  54.210  0.00  0.00     0.112 A 
ATOM     28  C   UNL d   1      53.474  29.889  53.371  0.00  0.00     0.142 A 
ATOM     29  O   UNL d   1      53.662  29.899  54.175  0.00  0.00    -0.300 OA
ATOM     30  C   UNL d   1      53.653  30.610  54.596  0.00  0.00     0.142 A 
ATOM     31  O   UNL d   1      52.882  31.981  52.214  0.00  0.00    -0.237 OA
ENDBRANCH  23  24
ENDBRANCH   7  23
TORSDOF 4
ENDMDL
MODEL 3
REMARK VINA RESULT:      -7.7      1.229      2.206
REMARK  4 active torsions:
REMARK  status: ('A' for Active; 'I' for Inactive)
REMARK    1  A    between atoms: C_2  and  C_1 
REMARK    2  A    between atoms: C_7  and  O_14 
REMARK       I    between atoms: N_12  and  C_7 
REMARK    3  A    between atoms: O_14  and  C_11 
REMARK    4  A    between atoms: C_24  and  C_18 
ROOT
ATOM      1  C   UNL d   1      50.460  34.309  52.514  0.00  0.00     0.099 A 
ATOM      2  C   UNL d   1      50.021  34.781  53.027  0.00  0.00     0.202 A 
ATOM      3  C   UNL d   1      49.290  35.096  52.783  0.00  0.00     0.062 A 
ATOM      4  C   UNL d   1      50.175  34.145  51.751  0.00  0.00     0.129 A 
ATOM      5  C   UNL d   1      49.007  34.933  52.025  0.00  0.00     0.105 A 
ATOM      6  O   UNL d   1      49.444  34.460  51.508  0.00  0.00    -0.305 OA
ATOM      7  C   UNL d   1      47.853  35.712  52.298  0.00  0.00     0.107 A 
ATOM      8  C   UNL d   1      48.850  35.568  53.296  0.00  0.00     0.007 A 
ATOM      9  C   UNL d   1      48.283  35.243  51.780  0.00  0.00     0.050 A 
ATOM     10  C   UNL d   1      48.134  35.873  53.049  0.00  0.00     0.023 A 
ATOM     11  O   UNL d   1      50.303  34.943  53.782  0.00  0.00    -0.286 OA
ENDROOT
BRANCH   1  12
ATOM     12  C   UNL d   1      51.186  33.996  52.755  0.00  0.00     0.168 A 
ATOM     13  N   UNL d   1      51.335  33.209  52.947  0.00  0.00    -0.225 NA
ATOM     14  C   UNL d   1      52.138  33.145  53.158  0.00  0.00     0.101 A 
ATOM     15  C   UNL d   1      52.594  32.509  53.396  0.00  0.00     0.021 A 
ATOM     16  C   UNL d   1      52.476  33.894  53.094  0.00  0.00     0.101 A 
ATOM     17  C   UNL d   1      53.393  32.607  53.575  0.00  0.00     0.002 A 
ATOM     18  C   UNL d   1      53.730  33.365  53.509  0.00  0.00     0.002 A 
ATOM     19  C   UNL d   1      53.269  34.008  53.268  0.00  0.00     0.021 A 
ATOM     20  N   UNL d   1      51.886  34.419  52.845  0.00  0.00    -0.225 NA
ENDBRANCH   1  12
BRANCH  10  21
ATOM     21  C   UNL d   1      47.687  36.350  53.564  0.00  0.00     0.002 C 
ATOM     22  C   UNL d   1      48.038  36.661  54.244  0.00  0.00     0.000 C 
ENDBRANCH  10  21
BRANCH   7  23
ATOM     23  O   UNL d   1      47.119  36.025  52.047  0.00  0.00    -0.259 OA
BRANCH  23  24
ATOM     24  C   UNL d   1      46.663  35.620  51.490  0.00  0.00     0.378 C 
ATOM     25  N   UNL d   1      45.879  35.838  51.360  0.00  0.00    -0.247 N 
ATOM     26  C   UNL d   1      45.429  35.428  50.802  0.00  0.00     0.112 A 
ATOM     27  C   UNL d   1      45.551  36.462  51.789  0.00  0.00     0.112 A 
ATOM     28  C   UNL d   1      44.648  35.644  50.672  0.00  0.00     0.142 A 
ATOM     29  O   UNL d   1      44.314  36.268  51.098  0.00  0.00    -0.300 OA
ATOM     30  C   UNL d   1      44.764  36.678  51.656  0.00  0.00     0.142 A 
ATOM     31  O   UNL d   1      46.991  34.996  51.061  0.00  0.00    -0.237 OA
ENDBRANCH  23  24
ENDBRANCH   7  23
TORSDOF 4
ENDMDL
MODEL 4
REMARK VINA RESULT:      -7.1      1.842      6.044
REMARK  4 active torsions:
REMARK  status: ('A' for Active; 'I' for Inactive)
REMARK    1  A    between atoms: C_2  and  C_1 
REMARK    2  A    between atoms: C_7  and  O_14 
REMARK       I    between atoms: N_12  and  C_7 
REMARK    3  A    between atoms: O_14  and  C_11 
REMARK    4  A    between atoms: C_24  and  C_18 
ROOT
ATOM      1  C   UNL d   1      50.452  34.400  52.743  0.00  0.00     0.099 A 
ATOM      2  C   UNL d   1      50.655  33.603  52.693  0.00  0.00     0.202 A 
ATOM      3  C   UNL d   1      51.386  33.339  52.990  0.00  0.00     0.062 A 
ATOM      4  C   UNL d   1      50.976  34.943  53.090  0.00  0.00     0.129 A 
ATOM      5  C   UNL d   1      51.907  33.879  53.335  0.00  0.00     0.105 A 
ATOM      6  O   UNL d   1      51.707  34.679  53.387  0.00  0.00    -0.305 OA
ATOM      7  C   UNL d   1      52.826  32.825  53.577  0.00  0.00     0.107 A 
ATOM      8  C   UNL d   1      51.591  32.542  52.941  0.00  0.00     0.007 A 
ATOM      9  C   UNL d   1      52.633  33.621  53.631  0.00  0.00     0.050 A 
ATOM     10  C   UNL d   1      52.310  32.290  53.235  0.00  0.00     0.023 A 
ATOM     11  O   UNL d   1      50.137  33.066  52.350  0.00  0.00    -0.286 OA
ENDROOT
BRANCH   1  12
ATOM     12  C   UNL d   1      49.726  34.663  52.448  0.00  0.00     0.168 A 
ATOM     13  N   UNL d   1      49.450  34.563  51.679  0.00  0.00    -0.225 NA
ATOM     14  C   UNL d   1      48.696  34.914  51.629  0.00  0.00     0.101 A 
ATOM     15  C   UNL d   1      48.163  34.985  51.012  0.00  0.00     0.021 A 
ATOM     16  C   UNL d   1      48.516  35.228  52.370  0.00  0.00     0.101 A 
ATOM     17  C   UNL d   1      47.442  35.370  51.122  0.00  0.00     0.002 A 
ATOM     18  C   UNL d   1      47.264  35.686  51.871  0.00  0.00     0.002 A 
ATOM     19  C   UNL d   1      47.803  35.613  52.494  0.00  0.00     0.021 A 
ATOM     20  N   UNL d   1      49.154  35.072  52.875  0.00  0.00    -0.225 NA
ENDBRANCH   1  12
BRANCH  10  21
ATOM     21  C   UNL d   1      52.520  31.487  53.187  0.00  0.00     0.002 C 
ATOM     22  C   UNL d   1      51.942  30.906  53.290  0.00  0.00     0.000 C 
ENDBRANCH  10  21
BRANCH   7  23
ATOM     23  O   UNL d   1      53.562  32.567  53.878  0.00  0.00    -0.259 OA
BRANCH  23  24
ATOM     24  C   UNL d   1      54.239  33.030  53.777  0.00  0.00     0.378 C 
ATOM     25  N   UNL d   1      54.658  33.299  54.434  0.00  0.00    -0.247 N 
ATOM     26  C   UNL d   1      55.333  33.762  54.326  0.00  0.00     0.112 A 
ATOM     27  C   UNL d   1      54.399  33.103  55.193  0.00  0.00     0.112 A 
ATOM     28  C   UNL d   1      55.751  34.030  54.980  0.00  0.00     0.142 A 
ATOM     29  O   UNL d   1      55.496  33.837  55.742  0.00  0.00    -0.300 OA
ATOM     30  C   UNL d   1      54.821  33.374  55.850  0.00  0.00     0.142 A 
ATOM     31  O   UNL d   1      54.497  33.226  53.018  0.00  0.00    -0.237 OA
ENDBRANCH  23  24
ENDBRANCH   7  23
TORSDOF 4
ENDMDL
MODEL 5
REMARK VINA RESULT:      -5.5      1.265      5.945
REMARK  4 active torsions:
REMARK  status: ('A' for Active; 'I' for Inactive)
REMARK    1  A    between atoms: C_2  and  C_1 
REMARK    2  A    between atoms: C_7  and  O_14 
REMARK       I    between atoms: N_12  and  C_7 
REMARK    3  A    between atoms: O_14  and  C_11 
REMARK    4  A    between atoms: C_24  and  C_18 
ROOT
ATOM      1  C   UNL d   1      48.196  35.597  52.933  0.00  0.00     0.099 A 
ATOM      2  C   UNL d   1      48.653  35.195  52.379  0.00  0.00     0.202 A 
ATOM      3  C   UNL d   1      49.420  34.940  52.576  0.00  0.00     0.062 A 
ATOM      4  C   UNL d   1      48.499  35.750  53.692  0.00  0.00     0.129 A 
ATOM      5  C   UNL d   1      49.722  35.092  53.330  0.00  0.00     0.105 A 
ATOM      6  O   UNL d   1      49.266  35.495  53.889  0.00  0.00    -0.305 OA
ATOM      7  C   UNL d   1      50.930  34.440  52.969  0.00  0.00     0.107 A 
ATOM      8  C   UNL d   1      49.878  34.537  52.021  0.00  0.00     0.007 A 
ATOM      9  C   UNL d   1      50.482  34.840  53.529  0.00  0.00     0.050 A 
ATOM     10  C   UNL d   1      50.631  34.290  52.222  0.00  0.00     0.023 A 
ATOM     11  O   UNL d   1      48.353  35.044  51.629  0.00  0.00    -0.286 OA
ENDROOT
BRANCH   1  12
ATOM     12  C   UNL d   1      47.434  35.851  52.739  0.00  0.00     0.168 A 
ATOM     13  N   UNL d   1      47.165  36.046  51.985  0.00  0.00    -0.225 NA
ATOM     14  C   UNL d   1      46.366  36.271  52.049  0.00  0.00     0.101 A 
ATOM     15  C   UNL d   1      45.819  36.517  51.492  0.00  0.00     0.021 A 
ATOM     16  C   UNL d   1      46.150  36.213  52.842  0.00  0.00     0.101 A 
ATOM     17  C   UNL d   1      45.049  36.709  51.715  0.00  0.00     0.002 A 
ATOM     18  C   UNL d   1      44.835  36.649  52.518  0.00  0.00     0.002 A 
ATOM     19  C   UNL d   1      45.388  36.400  53.080  0.00  0.00     0.021 A 
ATOM     20  N   UNL d   1      46.812  35.953  53.267  0.00  0.00    -0.225 NA
ENDBRANCH   1  12
BRANCH  10  21
ATOM     21  C   UNL d   1      51.096  33.883  51.666  0.00  0.00     0.002 C 
ATOM     22  C   UNL d   1      51.072  34.105  50.870  0.00  0.00     0.000 C 
ENDBRANCH  10  21
BRANCH   7  23
ATOM     23  O   UNL d   1      51.699  34.187  53.173  0.00  0.00    -0.259 OA
BRANCH  23  24
ATOM     24  C   UNL d   1      52.148  34.616  53.718  0.00  0.00     0.378 C 
ATOM     25  N   UNL d   1      52.761  34.249  54.129  0.00  0.00    -0.247 N 
ATOM     26  C   UNL d   1      53.205  34.685  54.673  0.00  0.00     0.112 A 
ATOM     27  C   UNL d   1      52.926  33.452  53.994  0.00  0.00     0.112 A 
ATOM     28  C   UNL d   1      53.816  34.322  55.082  0.00  0.00     0.142 A 
ATOM     29  O   UNL d   1      53.986  33.524  54.952  0.00  0.00    -0.300 OA
ATOM     30  C   UNL d   1      53.542  33.088  54.408  0.00  0.00     0.142 A 
ATOM     31  O   UNL d   1      51.983  35.413  53.853  0.00  0.00    -0.237 OA
ENDBRANCH  23  24
ENDBRANCH   7  23
TORSDOF 4
ENDMDL
