MODEL 1
REMARK VINA RESULT:      -7.5      0.000      0.000
REMARK  6 active torsions:
REMARK  status: ('A' for Active; 'I' for Inactive)
REMARK    1  A    between atoms: C_4  and  C_1 
REMARK    2  A    between atoms: C_7  and  C_4 
REMARK    3  A    between atoms: N_10  and  C_7 
REMARK    4  A    between atoms: C_13  and  N_10 
REMARK    5  A    between atoms: O_18  and  C_11 
REMARK    6  A    between atoms: O_20  and  C_15 
ROOT
ATOM      1  C   UNL d   1      51.747  34.016  52.717  0.00  0.00     0.122 C 
ATOM      2  C   UNL d   1      52.264  34.632  52.890  0.00  0.00     0.106 C 
ATOM      3  N   UNL d   1      52.782  35.249  53.064  0.00  0.00    -0.191 NA
ENDROOT
BRANCH   1   4
ATOM      4  C   UNL d   1      51.022  34.173  52.358  0.00  0.00     0.159 A 
ATOM      5  N   UNL d   1      50.858  34.128  51.549  0.00  0.00    -0.226 NA
ATOM      6  C   UNL d   1      50.071  34.330  51.437  0.00  0.00     0.099 A 
ATOM      7  C   UNL d   1      49.601  34.382  50.755  0.00  0.00     0.021 A 
ATOM      8  C   UNL d   1      49.743  34.501  52.174  0.00  0.00     0.083 A 
ATOM      9  C   UNL d   1      48.807  34.605  50.821  0.00  0.00     0.002 A 
ATOM     10  C   UNL d   1      48.480  34.776  51.557  0.00  0.00     0.002 A 
ATOM     11  C   UNL d   1      48.942  34.726  52.237  0.00  0.00     0.019 A 
ATOM     12  N   UNL d   1      50.326  34.406  52.744  0.00  0.00    -0.287 N 
ATOM     13  C   UNL d   1      50.244  34.519  53.563  0.00  0.00     0.101 C 
ENDBRANCH   1   4
BRANCH   1  14
ATOM     14  C   UNL d   1      51.956  33.241  52.903  0.00  0.00     0.112 C 
BRANCH  14  15
ATOM     15  N   UNL d   1      52.712  33.073  53.185  0.00  0.00    -0.241 NA
BRANCH  15  16
ATOM     16  C   UNL d   1      52.946  32.292  53.302  0.00  0.00     0.104 A 
ATOM     17  C   UNL d   1      53.520  32.112  53.866  0.00  0.00     0.114 A 
ATOM     18  C   UNL d   1      53.753  31.331  53.982  0.00  0.00     0.050 A 
ATOM     19  C   UNL d   1      53.412  30.727  53.534  0.00  0.00     0.096 A 
ATOM     20  C   UNL d   1      52.838  30.911  52.971  0.00  0.00     0.026 A 
ATOM     21  C   UNL d   1      52.604  31.691  52.854  0.00  0.00     0.023 A 
BRANCH  17  22
ATOM     22  O   UNL d   1      53.861  32.712  54.313  0.00  0.00    -0.327 OA
ATOM     23  C   UNL d   1      54.183  32.544  55.054  0.00  0.00     0.181 C 
ENDBRANCH  17  22
BRANCH  19  24
ATOM     24  O   UNL d   1      53.645  29.945  53.650  0.00  0.00    -0.328 OA
ATOM     25  C   UNL d   1      53.102  29.385  53.936  0.00  0.00     0.181 C 
ENDBRANCH  19  24
ENDBRANCH  15  16
ENDBRANCH  14  15
ENDBRANCH   1  14
TORSDOF 6
ENDMDL
MODEL 2
REMARK VINA RESULT:      -7.3      1.639      4.950
REMARK  6 active torsions:
REMARK  status: ('A' for Active; 'I' for Inactive)
REMARK    1  A    between atoms: C_4  and  C_1 
REMARK    2  A    between atoms: C_7  and  C_4 
REMARK    3  A    between atoms: N_10  and  C_7 
REMARK    4  A    between atoms: C_13  and  N_10 
REMARK    5  A    between atoms: O_18  and  C_11 
REMARK    6  A    between atoms: O_20  and  C_15 
ROOT
ATOM      1  C   UNL d   1      53.525  31.973  53.458  0.00  0.00     0.122 C 
ATOM      2  C   UNL d   1      54.267  32.315  53.368  0.00  0.00     0.106 C 
ATOM      3  N   UNL d   1      55.011  32.658  53.277  0.00  0.00    -0.191 NA
ENDROOT
BRANCH   1   4
ATOM      4  C   UNL d   1      53.457  31.205  53.751  0.00  0.00     0.159 A 
ATOM      5  N   UNL d   1      53.510  30.978  54.544  0.00  0.00    -0.226 NA
ATOM      6  C   UNL d   1      53.410  30.166  54.585  0.00  0.00     0.099 A 
ATOM      7  C   UNL d   1      53.409  29.635  55.223  0.00  0.00     0.021 A 
ATOM      8  C   UNL d   1      53.294  29.884  53.818  0.00  0.00     0.083 A 
ATOM      9  C   UNL d   1      53.291  28.829  55.085  0.00  0.00     0.002 A 
ATOM     10  C   UNL d   1      53.175  28.547  54.319  0.00  0.00     0.002 A 
ATOM     11  C   UNL d   1      53.175  29.069  53.683  0.00  0.00     0.019 A 
ATOM     12  N   UNL d   1      53.322  30.522  53.302  0.00  0.00    -0.287 N 
ATOM     13  C   UNL d   1      53.233  30.497  52.476  0.00  0.00     0.101 C 
ENDBRANCH   1   4
BRANCH   1  14
ATOM     14  C   UNL d   1      52.849  32.399  53.257  0.00  0.00     0.112 C 
BRANCH  14  15
ATOM     15  N   UNL d   1      52.793  33.199  53.448  0.00  0.00    -0.241 NA
BRANCH  15  16
ATOM     16  C   UNL d   1      52.087  33.605  53.325  0.00  0.00     0.104 A 
ATOM     17  C   UNL d   1      52.046  34.416  53.466  0.00  0.00     0.114 A 
ATOM     18  C   UNL d   1      51.340  34.821  53.342  0.00  0.00     0.050 A 
ATOM     19  C   UNL d   1      50.671  34.415  53.077  0.00  0.00     0.096 A 
ATOM     20  C   UNL d   1      50.716  33.603  52.937  0.00  0.00     0.026 A 
ATOM     21  C   UNL d   1      51.422  33.197  53.060  0.00  0.00     0.023 A 
BRANCH  17  22
ATOM     22  O   UNL d   1      52.711  34.823  53.730  0.00  0.00    -0.327 OA
ATOM     23  C   UNL d   1      52.627  35.460  54.247  0.00  0.00     0.181 C 
ENDBRANCH  17  22
BRANCH  19  24
ATOM     24  O   UNL d   1      49.965  34.819  52.953  0.00  0.00    -0.328 OA
ATOM     25  C   UNL d   1      49.508  34.666  52.277  0.00  0.00     0.181 C 
ENDBRANCH  19  24
ENDBRANCH  15  16
ENDBRANCH  14  15
ENDBRANCH   1  14
TORSDOF 6
ENDMDL
MODEL 3
REMARK VINA RESULT:      -6.9      1.895      4.982
REMARK  6 active torsions:
REMARK  status: ('A' for Active; 'I' for Inactive)
REMARK    1  A    between atoms: C_4  and  C_1 
REMARK    2  A    between atoms: C_7  and  C_4 
REMARK    3  A    between atoms: N_10  and  C_7 
REMARK    4  A    between atoms: C_13  and  N_10 
REMARK    5  A    between atoms: O_18  and  C_11 
REMARK    6  A    between atoms: O_20  and  C_15 
ROOT
ATOM      1  C   UNL d   1      52.077  33.758  52.934  0.00  0.00     0.122 C 
ATOM      2  C   UNL d   1      52.563  34.373  52.684  0.00  0.00     0.106 C 
ATOM      3  N   UNL d   1      53.050  34.989  52.434  0.00  0.00    -0.191 NA
ENDROOT
BRANCH   1   4
ATOM      4  C   UNL d   1      52.394  33.008  53.068  0.00  0.00     0.159 A 
ATOM      5  N   UNL d   1      52.248  32.329  52.621  0.00  0.00    -0.226 NA
ATOM      6  C   UNL d   1      52.675  31.711  52.948  0.00  0.00     0.099 A 
ATOM      7  C   UNL d   1      52.746  30.910  52.739  0.00  0.00     0.021 A 
ATOM      8  C   UNL d   1      53.089  32.003  53.599  0.00  0.00     0.083 A 
ATOM      9  C   UNL d   1      53.231  30.412  53.187  0.00  0.00     0.002 A 
ATOM     10  C   UNL d   1      53.644  30.703  53.838  0.00  0.00     0.002 A 
ATOM     11  C   UNL d   1      53.577  31.496  54.048  0.00  0.00     0.019 A 
ATOM     12  N   UNL d   1      52.918  32.802  53.676  0.00  0.00    -0.287 N 
ATOM     13  C   UNL d   1      53.212  33.319  54.256  0.00  0.00     0.101 C 
ENDBRANCH   1   4
BRANCH   1  14
ATOM     14  C   UNL d   1      51.273  33.891  53.050  0.00  0.00     0.112 C 
BRANCH  14  15
ATOM     15  N   UNL d   1      50.811  34.191  52.436  0.00  0.00    -0.241 NA
BRANCH  15  16
ATOM     16  C   UNL d   1      50.104  34.578  52.601  0.00  0.00     0.104 A 
ATOM     17  C   UNL d   1      49.534  34.669  52.012  0.00  0.00     0.114 A 
ATOM     18  C   UNL d   1      48.827  35.057  52.179  0.00  0.00     0.050 A 
ATOM     19  C   UNL d   1      48.687  35.356  52.937  0.00  0.00     0.096 A 
ATOM     20  C   UNL d   1      49.260  35.263  53.523  0.00  0.00     0.026 A 
ATOM     21  C   UNL d   1      49.967  34.876  53.358  0.00  0.00     0.023 A 
BRANCH  17  22
ATOM     22  O   UNL d   1      49.670  34.372  51.257  0.00  0.00    -0.327 OA
ATOM     23  C   UNL d   1      49.092  34.445  50.674  0.00  0.00     0.181 C 
ENDBRANCH  17  22
BRANCH  19  24
ATOM     24  O   UNL d   1      47.980  35.743  53.104  0.00  0.00    -0.328 OA
ATOM     25  C   UNL d   1      47.974  36.401  53.611  0.00  0.00     0.181 C 
ENDBRANCH  19  24
ENDBRANCH  15  16
ENDBRANCH  14  15
ENDBRANCH   1  14
TORSDOF 6
ENDMDL
MODEL 4
REMARK VINA RESULT:      -6.7      2.160      5.243
REMARK  6 active torsions:
REMARK  status: ('A' for Active; 'I' for Inactive)
REMARK    1  A    between atoms: C_4  and  C_1 
REMARK    2  A    between atoms: C_7  and  C_4 
REMARK    3  A    between atoms: N_10  and  C_7 
REMARK    4  A    between atoms: C_13  and  N_10 
REMARK    5  A    between atoms: O_18  and  C_11 
REMARK    6  A    between atoms: O_20  and  C_15 
ROOT
ATOM      1  C   UNL d   1      51.668  34.203  52.769  0.00  0.00     0.122 C 
ATOM      2  C   UNL d   1      51.857  34.279  51.972  0.00  0.00     0.106 C 
ATOM      3  N   UNL d   1      52.045  34.355  51.173  0.00  0.00    -0.191 NA
ENDROOT
BRANCH   1   4
ATOM      4  C   UNL d   1      52.223  33.899  53.298  0.00  0.00     0.159 A 
ATOM      5  N   UNL d   1      52.374  33.099  53.440  0.00  0.00    -0.226 NA
ATOM      6  C   UNL d   1      52.965  33.047  54.005  0.00  0.00     0.099 A 
ATOM      7  C   UNL d   1      53.341  32.398  54.362  0.00  0.00     0.021 A 
ATOM      8  C   UNL d   1      53.185  33.814  54.215  0.00  0.00     0.083 A 
ATOM      9  C   UNL d   1      53.932  32.527  54.926  0.00  0.00     0.002 A 
ATOM     10  C   UNL d   1      54.152  33.293  55.136  0.00  0.00     0.002 A 
ATOM     11  C   UNL d   1      53.782  33.939  54.785  0.00  0.00     0.019 A 
ATOM     12  N   UNL d   1      52.730  34.341  53.782  0.00  0.00    -0.287 N 
ATOM     13  C   UNL d   1      52.763  35.171  53.814  0.00  0.00     0.101 C 
ENDBRANCH   1   4
BRANCH   1  14
ATOM     14  C   UNL d   1      50.924  34.431  53.038  0.00  0.00     0.112 C 
BRANCH  14  15
ATOM     15  N   UNL d   1      50.280  34.430  52.523  0.00  0.00    -0.241 NA
BRANCH  15  16
ATOM     16  C   UNL d   1      49.591  34.835  52.721  0.00  0.00     0.104 A 
ATOM     17  C   UNL d   1      48.975  34.895  52.176  0.00  0.00     0.114 A 
ATOM     18  C   UNL d   1      48.287  35.301  52.375  0.00  0.00     0.050 A 
ATOM     19  C   UNL d   1      48.212  35.648  53.121  0.00  0.00     0.096 A 
ATOM     20  C   UNL d   1      48.831  35.585  53.664  0.00  0.00     0.026 A 
ATOM     21  C   UNL d   1      49.519  35.180  53.466  0.00  0.00     0.023 A 
BRANCH  17  22
ATOM     22  O   UNL d   1      49.047  34.551  51.432  0.00  0.00    -0.327 OA
ATOM     23  C   UNL d   1      48.445  34.639  50.875  0.00  0.00     0.181 C 
ENDBRANCH  17  22
BRANCH  19  24
ATOM     24  O   UNL d   1      47.524  36.054  53.320  0.00  0.00    -0.328 OA
ATOM     25  C   UNL d   1      47.558  36.709  53.829  0.00  0.00     0.181 C 
ENDBRANCH  19  24
ENDBRANCH  15  16
ENDBRANCH  14  15
ENDBRANCH   1  14
TORSDOF 6
ENDMDL
MODEL 5
REMARK VINA RESULT:      -5.8      1.518      2.578
REMARK  6 active torsions:
REMARK  status: ('A' for Active; 'I' for Inactive)
REMARK    1  A    between atoms: C_4  and  C_1 
REMARK    2  A    between atoms: C_7  and  C_4 
REMARK    3  A    between atoms: N_10  and  C_7 
REMARK    4  A    between atoms: C_13  and  N_10 
REMARK    5  A    between atoms: O_18  and  C_11 
REMARK    6  A    between atoms: O_20  and  C_15 
ROOT
ATOM      1  C   UNL d   1      53.617  32.710  53.567  0.00  0.00     0.122 C 
ATOM      2  C   UNL d   1      54.374  32.986  53.404  0.00  0.00     0.106 C 
ATOM      3  N   UNL d   1      55.133  33.262  53.241  0.00  0.00    -0.191 NA
ENDROOT
BRANCH   1   4
ATOM      4  C   UNL d   1      52.958  33.157  53.350  0.00  0.00     0.159 A 
ATOM      5  N   UNL d   1      52.546  33.104  52.636  0.00  0.00    -0.226 NA
ATOM      6  C   UNL d   1      51.933  33.647  52.654  0.00  0.00     0.099 A 
ATOM      7  C   UNL d   1      51.344  33.842  52.102  0.00  0.00     0.021 A 
ATOM      8  C   UNL d   1      51.961  34.040  53.379  0.00  0.00     0.083 A 
ATOM      9  C   UNL d   1      50.790  34.429  52.285  0.00  0.00     0.002 A 
ATOM     10  C   UNL d   1      50.818  34.821  53.009  0.00  0.00     0.002 A 
ATOM     11  C   UNL d   1      51.400  34.631  53.559  0.00  0.00     0.019 A 
ATOM     12  N   UNL d   1      52.591  33.740  53.811  0.00  0.00    -0.287 N 
ATOM     13  C   UNL d   1      52.828  33.973  54.572  0.00  0.00     0.101 C 
ENDBRANCH   1   4
BRANCH   1  14
ATOM     14  C   UNL d   1      53.516  31.986  53.947  0.00  0.00     0.112 C 
BRANCH  14  15
ATOM     15  N   UNL d   1      53.611  31.282  53.527  0.00  0.00    -0.241 NA
BRANCH  15  16
ATOM     16  C   UNL d   1      53.501  30.559  53.903  0.00  0.00     0.104 A 
ATOM     17  C   UNL d   1      53.286  29.893  53.465  0.00  0.00     0.114 A 
ATOM     18  C   UNL d   1      53.176  29.170  53.843  0.00  0.00     0.050 A 
ATOM     19  C   UNL d   1      53.280  29.109  54.660  0.00  0.00     0.096 A 
ATOM     20  C   UNL d   1      53.495  29.777  55.095  0.00  0.00     0.026 A 
ATOM     21  C   UNL d   1      53.606  30.500  54.718  0.00  0.00     0.023 A 
BRANCH  17  22
ATOM     22  O   UNL d   1      53.182  29.952  52.652  0.00  0.00    -0.327 OA
ATOM     23  C   UNL d   1      52.683  29.424  52.260  0.00  0.00     0.181 C 
ENDBRANCH  17  22
BRANCH  19  24
ATOM     24  O   UNL d   1      53.170  28.386  55.038  0.00  0.00    -0.328 OA
ATOM     25  C   UNL d   1      53.271  28.323  55.859  0.00  0.00     0.181 C 
ENDBRANCH  19  24
ENDBRANCH  15  16
ENDBRANCH  14  15
ENDBRANCH   1  14
TORSDOF 6
ENDMDL
MODEL 6
REMARK VINA RESULT:      -5.8      2.075      5.180
REMARK  6 active torsions:
REMARK  status: ('A' for Active; 'I' for Inactive)
REMARK    1  A    between atoms: C_4  and  C_1 
REMARK    2  A    between atoms: C_7  and  C_4 
REMARK    3  A    between atoms: N_10  and  C_7 
REMARK    4  A    between atoms: C_13  and  N_10 
REMARK    5  A    between atoms: O_18  and  C_11 
REMARK    6  A    between atoms: O_20  and  C_15 
ROOT
ATOM      1  C   UNL d   1      52.098  33.389  53.207  0.00  0.00     0.122 C 
ATOM      2  C   UNL d   1      52.063  32.763  52.674  0.00  0.00     0.106 C 
ATOM      3  N   UNL d   1      52.027  32.137  52.141  0.00  0.00    -0.191 NA
ENDROOT
BRANCH   1   4
ATOM      4  C   UNL d   1      52.739  33.458  53.722  0.00  0.00     0.159 A 
ATOM      5  N   UNL d   1      52.942  32.928  54.322  0.00  0.00    -0.226 NA
ATOM      6  C   UNL d   1      53.614  33.210  54.696  0.00  0.00     0.099 A 
ATOM      7  C   UNL d   1      54.065  32.917  55.329  0.00  0.00     0.021 A 
ATOM      8  C   UNL d   1      53.833  33.916  54.330  0.00  0.00     0.083 A 
ATOM      9  C   UNL d   1      54.730  33.337  55.586  0.00  0.00     0.002 A 
ATOM     10  C   UNL d   1      54.948  34.042  55.220  0.00  0.00     0.002 A 
ATOM     11  C   UNL d   1      54.504  34.336  54.593  0.00  0.00     0.019 A 
ATOM     12  N   UNL d   1      53.296  34.072  53.729  0.00  0.00    -0.287 N 
ATOM     13  C   UNL d   1      53.300  34.725  53.215  0.00  0.00     0.101 C 
ENDBRANCH   1   4
BRANCH   1  14
ATOM     14  C   UNL d   1      51.493  33.948  53.226  0.00  0.00     0.112 C 
BRANCH  14  15
ATOM     15  N   UNL d   1      50.867  33.896  52.691  0.00  0.00    -0.241 NA
BRANCH  15  16
ATOM     16  C   UNL d   1      50.216  34.393  52.768  0.00  0.00     0.104 A 
ATOM     17  C   UNL d   1      49.724  34.535  52.121  0.00  0.00     0.114 A 
ATOM     18  C   UNL d   1      49.073  35.032  52.199  0.00  0.00     0.050 A 
ATOM     19  C   UNL d   1      48.911  35.391  52.925  0.00  0.00     0.096 A 
ATOM     20  C   UNL d   1      49.405  35.248  53.570  0.00  0.00     0.026 A 
ATOM     21  C   UNL d   1      50.057  34.750  53.493  0.00  0.00     0.023 A 
BRANCH  17  22
ATOM     22  O   UNL d   1      49.883  34.178  51.396  0.00  0.00    -0.327 OA
ATOM     23  C   UNL d   1      49.367  34.283  50.762  0.00  0.00     0.181 C 
ENDBRANCH  17  22
BRANCH  19  24
ATOM     24  O   UNL d   1      48.260  35.889  53.004  0.00  0.00    -0.328 OA
ATOM     25  C   UNL d   1      47.988  36.106  53.758  0.00  0.00     0.181 C 
ENDBRANCH  19  24
ENDBRANCH  15  16
ENDBRANCH  14  15
ENDBRANCH   1  14
TORSDOF 6
ENDMDL
MODEL 7
REMARK VINA RESULT:      -5.0      1.157      2.281
REMARK  6 active torsions:
REMARK  status: ('A' for Active; 'I' for Inactive)
REMARK    1  A    between atoms: C_4  and  C_1 
REMARK    2  A    between atoms: C_7  and  C_4 
REMARK    3  A    between atoms: N_10  and  C_7 
REMARK    4  A    between atoms: C_13  and  N_10 
REMARK    5  A    between atoms: O_18  and  C_11 
REMARK    6  A    between atoms: O_20  and  C_15 
ROOT
ATOM      1  C   UNL d   1      50.739  34.341  52.475  0.00  0.00     0.122 C 
ATOM      2  C   UNL d   1      51.035  34.337  51.707  0.00  0.00     0.106 C 
ATOM      3  N   UNL d   1      51.331  34.333  50.938  0.00  0.00    -0.191 NA
ENDROOT
BRANCH   1   4
ATOM      4  C   UNL d   1      50.024  34.718  52.640  0.00  0.00     0.159 A 
ATOM      5  N   UNL d   1      49.860  35.183  53.304  0.00  0.00    -0.226 NA
ATOM      6  C   UNL d   1      49.086  35.446  53.245  0.00  0.00     0.099 A 
ATOM      7  C   UNL d   1      48.621  35.925  53.739  0.00  0.00     0.021 A 
ATOM      8  C   UNL d   1      48.767  35.147  52.546  0.00  0.00     0.083 A 
ATOM      9  C   UNL d   1      47.841  36.097  53.525  0.00  0.00     0.002 A 
ATOM     10  C   UNL d   1      47.521  35.798  52.827  0.00  0.00     0.002 A 
ATOM     11  C   UNL d   1      47.978  35.323  52.334  0.00  0.00     0.019 A 
ATOM     12  N   UNL d   1      49.342  34.697  52.171  0.00  0.00    -0.287 N 
ATOM     13  C   UNL d   1      49.264  34.291  51.450  0.00  0.00     0.101 C 
ENDBRANCH   1   4
BRANCH   1  14
ATOM     14  C   UNL d   1      51.159  33.969  53.078  0.00  0.00     0.112 C 
BRANCH  14  15
ATOM     15  N   UNL d   1      51.738  33.411  52.895  0.00  0.00    -0.241 NA
BRANCH  15  16
ATOM     16  C   UNL d   1      52.340  33.250  53.432  0.00  0.00     0.104 A 
ATOM     17  C   UNL d   1      52.741  32.529  53.400  0.00  0.00     0.114 A 
ATOM     18  C   UNL d   1      53.344  32.369  53.938  0.00  0.00     0.050 A 
ATOM     19  C   UNL d   1      53.547  32.929  54.510  0.00  0.00     0.096 A 
ATOM     20  C   UNL d   1      53.144  33.648  54.539  0.00  0.00     0.026 A 
ATOM     21  C   UNL d   1      52.542  33.810  54.002  0.00  0.00     0.023 A 
BRANCH  17  22
ATOM     22  O   UNL d   1      52.540  31.971  52.831  0.00  0.00    -0.327 OA
ATOM     23  C   UNL d   1      52.858  31.210  52.868  0.00  0.00     0.181 C 
ENDBRANCH  17  22
BRANCH  19  24
ATOM     24  O   UNL d   1      54.150  32.768  55.048  0.00  0.00    -0.328 OA
ATOM     25  C   UNL d   1      54.740  33.334  55.195  0.00  0.00     0.181 C 
ENDBRANCH  19  24
ENDBRANCH  15  16
ENDBRANCH  14  15
ENDBRANCH   1  14
TORSDOF 6
ENDMDL
