MODEL 1
REMARK VINA RESULT:      -8.9      0.000      0.000
REMARK  8 active torsions:
REMARK  status: ('A' for Active; 'I' for Inactive)
REMARK    1  A    between atoms: S_13  and  C_4 
REMARK    2  A    between atoms: C_5  and  N_10 
REMARK    3  A    between atoms: C_20  and  N_6 
REMARK       I    between atoms: N_10  and  C_14 
REMARK    4  A    between atoms: C_19  and  S_13 
REMARK    5  A    between atoms: C_14  and  C_19 
REMARK    6  A    between atoms: C_22  and  C_20 
REMARK    7  A    between atoms: C_28  and  C_22 
REMARK    8  A    between atoms: N_25  and  C_28 
ROOT
ATOM      1  N   UNL d   1      48.636  34.907  51.807  0.00  0.00    -0.185 NA
ATOM      2  C   UNL d   1      47.937  35.144  51.439  0.00  0.00     0.354 A 
ATOM      3  C   UNL d   1      48.334  35.751  52.921  0.00  0.00     0.040 A 
ATOM      4  C   UNL d   1      48.835  35.210  52.549  0.00  0.00     0.117 A 
ATOM      5  N   UNL d   1      47.437  35.684  51.811  0.00  0.00    -0.258 N 
ATOM      6  C   UNL d   1      47.636  35.988  52.553  0.00  0.00     0.070 A 
ATOM      7  O   UNL d   1      47.731  34.842  50.693  0.00  0.00    -0.244 OA
ATOM      8  C   UNL d   1      48.379  36.142  53.642  0.00  0.00     0.004 A 
ATOM      9  C   UNL d   1      47.254  36.524  53.048  0.00  0.00     0.018 A 
ATOM     10  C   UNL d   1      47.707  36.620  53.716  0.00  0.00     0.002 A 
ENDROOT
BRANCH   4  11
ATOM     11  S   UNL d   1      49.534  34.973  52.918  0.00  0.00    -0.062 SA
BRANCH  11  12
ATOM     12  C   UNL d   1      50.072  34.513  52.514  0.00  0.00     0.099 C 
BRANCH  12  13
ATOM     13  C   UNL d   1      50.721  34.192  52.911  0.00  0.00     0.288 C 
ATOM     14  N   UNL d   1      51.470  34.513  52.802  0.00  0.00    -0.182 NA
ATOM     15  O   UNL d   1      50.618  33.550  53.418  0.00  0.00    -0.265 OA
BRANCH  14  16
ATOM     16  C   UNL d   1      52.119  34.193  53.198  0.00  0.00     0.197 A 
ATOM     17  N   UNL d   1      52.571  33.602  52.840  0.00  0.00    -0.221 NA
ATOM     18  C   UNL d   1      53.177  33.396  53.370  0.00  0.00     0.090 A 
ATOM     19  C   UNL d   1      53.789  32.847  53.317  0.00  0.00     0.020 A 
ATOM     20  C   UNL d   1      53.096  33.852  54.040  0.00  0.00     0.050 A 
ATOM     21  C   UNL d   1      54.316  32.761  53.940  0.00  0.00     0.002 A 
ATOM     22  C   UNL d   1      54.235  33.220  54.615  0.00  0.00     0.001 A 
ATOM     23  C   UNL d   1      53.626  33.767  54.670  0.00  0.00     0.008 A 
ATOM     24  C   UNL d   1      54.782  33.120  55.242  0.00  0.00     0.000 C 
ATOM     25  S   UNL d   1      52.441  34.350  53.942  0.00  0.00    -0.047 SA
ENDBRANCH  14  16
ENDBRANCH  12  13
ENDBRANCH  11  12
ENDBRANCH   4  11
BRANCH   5  26
ATOM     26  C   UNL d   1      46.738  35.921  51.443  0.00  0.00     0.086 C 
BRANCH  26  27
ATOM     27  C   UNL d   1      46.070  35.452  51.484  0.00  0.00     0.038 C 
BRANCH  27  28
ATOM     28  C   UNL d   1      45.341  35.742  51.230  0.00  0.00     0.082 C 
BRANCH  28  29
ATOM     29  N   UNL d   1      44.662  35.289  51.323  0.00  0.00    -0.300 N 
ATOM     30  C   UNL d   1      44.327  34.908  50.672  0.00  0.00     0.100 C 
ATOM     31  C   UNL d   1      44.314  35.214  52.067  0.00  0.00     0.100 C 
ENDBRANCH  28  29
ENDBRANCH  27  28
ENDBRANCH  26  27
ENDBRANCH   5  26
TORSDOF 8
ENDMDL
MODEL 2
REMARK VINA RESULT:      -7.8      1.842      6.842
REMARK  8 active torsions:
REMARK  status: ('A' for Active; 'I' for Inactive)
REMARK    1  A    between atoms: S_13  and  C_4 
REMARK    2  A    between atoms: C_5  and  N_10 
REMARK    3  A    between atoms: C_20  and  N_6 
REMARK       I    between atoms: N_10  and  C_14 
REMARK    4  A    between atoms: C_19  and  S_13 
REMARK    5  A    between atoms: C_14  and  C_19 
REMARK    6  A    between atoms: C_22  and  C_20 
REMARK    7  A    between atoms: C_28  and  C_22 
REMARK    8  A    between atoms: N_25  and  C_28 
ROOT
ATOM      1  N   UNL d   1      52.305  32.610  52.792  0.00  0.00    -0.185 NA
ATOM      2  C   UNL d   1      52.739  31.914  52.881  0.00  0.00     0.354 A 
ATOM      3  C   UNL d   1      53.013  33.192  53.890  0.00  0.00     0.040 A 
ATOM      4  C   UNL d   1      52.441  33.249  53.297  0.00  0.00     0.117 A 
ATOM      5  N   UNL d   1      53.310  31.858  53.474  0.00  0.00    -0.258 N 
ATOM      6  C   UNL d   1      53.447  32.496  53.979  0.00  0.00     0.070 A 
ATOM      7  O   UNL d   1      52.607  31.268  52.377  0.00  0.00    -0.244 OA
ATOM      8  C   UNL d   1      53.270  33.719  54.465  0.00  0.00     0.004 A 
ATOM      9  C   UNL d   1      53.970  32.599  54.607  0.00  0.00     0.018 A 
ATOM     10  C   UNL d   1      53.863  33.347  54.907  0.00  0.00     0.002 A 
ENDROOT
BRANCH   4  11
ATOM     11  S   UNL d   1      52.007  33.945  53.208  0.00  0.00    -0.062 SA
BRANCH  11  12
ATOM     12  C   UNL d   1      51.499  34.031  52.576  0.00  0.00     0.099 C 
BRANCH  12  13
ATOM     13  C   UNL d   1      50.815  34.485  52.656  0.00  0.00     0.288 C 
ATOM     14  N   UNL d   1      50.128  34.268  52.260  0.00  0.00    -0.182 NA
ATOM     15  O   UNL d   1      50.820  35.158  53.133  0.00  0.00    -0.265 OA
BRANCH  14  16
ATOM     16  C   UNL d   1      49.444  34.722  52.339  0.00  0.00     0.197 A 
ATOM     17  N   UNL d   1      48.958  34.854  51.685  0.00  0.00    -0.221 NA
ATOM     18  C   UNL d   1      48.321  35.325  51.937  0.00  0.00     0.090 A 
ATOM     19  C   UNL d   1      47.670  35.629  51.535  0.00  0.00     0.020 A 
ATOM     20  C   UNL d   1      48.416  35.478  52.732  0.00  0.00     0.050 A 
ATOM     21  C   UNL d   1      47.118  36.085  51.935  0.00  0.00     0.002 A 
ATOM     22  C   UNL d   1      47.213  36.239  52.735  0.00  0.00     0.001 A 
ATOM     23  C   UNL d   1      47.861  35.937  53.138  0.00  0.00     0.008 A 
ATOM     24  C   UNL d   1      46.641  36.707  53.130  0.00  0.00     0.000 C 
ATOM     25  S   UNL d   1      49.111  35.107  52.989  0.00  0.00    -0.047 SA
ENDBRANCH  14  16
ENDBRANCH  12  13
ENDBRANCH  11  12
ENDBRANCH   4  11
BRANCH   5  26
ATOM     26  C   UNL d   1      53.745  31.162  53.563  0.00  0.00     0.086 C 
BRANCH  26  27
ATOM     27  C   UNL d   1      53.368  30.461  53.754  0.00  0.00     0.038 C 
BRANCH  27  28
ATOM     28  C   UNL d   1      53.809  29.790  53.943  0.00  0.00     0.082 C 
BRANCH  28  29
ATOM     29  N   UNL d   1      53.442  29.139  54.285  0.00  0.00    -0.300 N 
ATOM     30  C   UNL d   1      53.470  29.030  55.102  0.00  0.00     0.100 C 
ATOM     31  C   UNL d   1      53.044  28.594  53.810  0.00  0.00     0.100 C 
ENDBRANCH  28  29
ENDBRANCH  27  28
ENDBRANCH  26  27
ENDBRANCH   5  26
TORSDOF 8
ENDMDL
MODEL 3
REMARK VINA RESULT:      -7.4      1.443      7.001
REMARK  8 active torsions:
REMARK  status: ('A' for Active; 'I' for Inactive)
REMARK    1  A    between atoms: S_13  and  C_4 
REMARK    2  A    between atoms: C_5  and  N_10 
REMARK    3  A    between atoms: C_20  and  N_6 
REMARK       I    between atoms: N_10  and  C_14 
REMARK    4  A    between atoms: C_19  and  S_13 
REMARK    5  A    between atoms: C_14  and  C_19 
REMARK    6  A    between atoms: C_22  and  C_20 
REMARK    7  A    between atoms: C_28  and  C_22 
REMARK    8  A    between atoms: N_25  and  C_28 
ROOT
ATOM      1  N   UNL d   1      51.630  34.746  53.204  0.00  0.00    -0.185 NA
ATOM      2  C   UNL d   1      52.426  34.582  53.344  0.00  0.00     0.354 A 
ATOM      3  C   UNL d   1      51.374  33.351  53.022  0.00  0.00     0.040 A 
ATOM      4  C   UNL d   1      51.103  34.131  53.043  0.00  0.00     0.117 A 
ATOM      5  N   UNL d   1      52.695  33.802  53.323  0.00  0.00    -0.258 N 
ATOM      6  C   UNL d   1      52.170  33.187  53.162  0.00  0.00     0.070 A 
ATOM      7  O   UNL d   1      52.960  35.196  53.507  0.00  0.00    -0.244 OA
ATOM      8  C   UNL d   1      50.994  32.637  52.880  0.00  0.00     0.004 A 
ATOM      9  C   UNL d   1      52.277  32.372  53.106  0.00  0.00     0.018 A 
ATOM     10  C   UNL d   1      51.558  32.032  52.933  0.00  0.00     0.002 A 
ENDROOT
BRANCH   4  11
ATOM     11  S   UNL d   1      50.307  34.296  52.902  0.00  0.00    -0.062 SA
BRANCH  11  12
ATOM     12  C   UNL d   1      50.004  35.031  53.083  0.00  0.00     0.099 C 
BRANCH  12  13
ATOM     13  C   UNL d   1      49.212  35.200  52.928  0.00  0.00     0.288 C 
ATOM     14  N   UNL d   1      48.816  35.764  53.376  0.00  0.00    -0.182 NA
ATOM     15  O   UNL d   1      48.816  34.803  52.322  0.00  0.00    -0.265 OA
BRANCH  14  16
ATOM     16  C   UNL d   1      48.023  35.934  53.222  0.00  0.00     0.197 A 
ATOM     17  N   UNL d   1      47.473  35.932  53.837  0.00  0.00    -0.221 NA
ATOM     18  C   UNL d   1      46.732  36.120  53.512  0.00  0.00     0.090 A 
ATOM     19  C   UNL d   1      45.986  36.200  53.852  0.00  0.00     0.020 A 
ATOM     20  C   UNL d   1      46.828  36.235  52.710  0.00  0.00     0.050 A 
ATOM     21  C   UNL d   1      45.342  36.394  53.384  0.00  0.00     0.002 A 
ATOM     22  C   UNL d   1      45.437  36.510  52.577  0.00  0.00     0.001 A 
ATOM     23  C   UNL d   1      46.180  36.431  52.236  0.00  0.00     0.008 A 
ATOM     24  C   UNL d   1      44.769  36.708  52.113  0.00  0.00     0.000 C 
ATOM     25  S   UNL d   1      47.627  36.121  52.522  0.00  0.00    -0.047 SA
ENDBRANCH  14  16
ENDBRANCH  12  13
ENDBRANCH  11  12
ENDBRANCH   4  11
BRANCH   5  26
ATOM     26  C   UNL d   1      53.491  33.638  53.464  0.00  0.00     0.086 C 
BRANCH  26  27
ATOM     27  C   UNL d   1      53.791  33.663  54.224  0.00  0.00     0.038 C 
BRANCH  27  28
ATOM     28  C   UNL d   1      54.518  33.315  54.398  0.00  0.00     0.082 C 
BRANCH  28  29
ATOM     29  N   UNL d   1      54.891  33.474  55.112  0.00  0.00    -0.300 N 
ATOM     30  C   UNL d   1      54.590  33.163  55.815  0.00  0.00     0.100 C 
ATOM     31  C   UNL d   1      55.568  33.946  55.127  0.00  0.00     0.100 C 
ENDBRANCH  28  29
ENDBRANCH  27  28
ENDBRANCH  26  27
ENDBRANCH   5  26
TORSDOF 8
ENDMDL
MODEL 4
REMARK VINA RESULT:      -6.5      1.790      2.344
REMARK  8 active torsions:
REMARK  status: ('A' for Active; 'I' for Inactive)
REMARK    1  A    between atoms: S_13  and  C_4 
REMARK    2  A    between atoms: C_5  and  N_10 
REMARK    3  A    between atoms: C_20  and  N_6 
REMARK       I    between atoms: N_10  and  C_14 
REMARK    4  A    between atoms: C_19  and  S_13 
REMARK    5  A    between atoms: C_14  and  C_19 
REMARK    6  A    between atoms: C_22  and  C_20 
REMARK    7  A    between atoms: C_28  and  C_22 
REMARK    8  A    between atoms: N_25  and  C_28 
ROOT
ATOM      1  N   UNL d   1      48.289  35.996  53.636  0.00  0.00    -0.185 NA
ATOM      2  C   UNL d   1      47.597  36.347  53.915  0.00  0.00     0.354 A 
ATOM      3  C   UNL d   1      47.620  35.638  52.424  0.00  0.00     0.040 A 
ATOM      4  C   UNL d   1      48.301  35.641  52.891  0.00  0.00     0.117 A 
ATOM      5  N   UNL d   1      46.916  36.344  53.448  0.00  0.00    -0.258 N 
ATOM      6  C   UNL d   1      46.927  35.989  52.703  0.00  0.00     0.070 A 
ATOM      7  O   UNL d   1      47.578  36.705  54.663  0.00  0.00    -0.244 OA
ATOM      8  C   UNL d   1      47.462  35.337  51.677  0.00  0.00     0.004 A 
ATOM      9  C   UNL d   1      46.346  35.902  52.126  0.00  0.00     0.018 A 
ATOM     10  C   UNL d   1      46.670  35.503  51.496  0.00  0.00     0.002 A 
ENDROOT
BRANCH   4  11
ATOM     11  S   UNL d   1      48.994  35.290  52.612  0.00  0.00    -0.062 SA
BRANCH  11  12
ATOM     12  C   UNL d   1      49.666  35.292  53.073  0.00  0.00     0.099 C 
BRANCH  12  13
ATOM     13  C   UNL d   1      50.202  34.666  53.025  0.00  0.00     0.288 C 
ATOM     14  N   UNL d   1      50.898  34.685  53.460  0.00  0.00    -0.182 NA
ATOM     15  O   UNL d   1      50.037  34.020  52.538  0.00  0.00    -0.265 OA
BRANCH  14  16
ATOM     16  C   UNL d   1      51.434  34.059  53.411  0.00  0.00     0.197 A 
ATOM     17  N   UNL d   1      52.176  34.122  53.767  0.00  0.00    -0.221 NA
ATOM     18  C   UNL d   1      52.584  33.413  53.624  0.00  0.00     0.090 A 
ATOM     19  C   UNL d   1      53.337  33.158  53.841  0.00  0.00     0.020 A 
ATOM     20  C   UNL d   1      52.099  32.924  53.188  0.00  0.00     0.050 A 
ATOM     21  C   UNL d   1      53.597  32.413  53.616  0.00  0.00     0.002 A 
ATOM     22  C   UNL d   1      53.109  31.921  53.178  0.00  0.00     0.001 A 
ATOM     23  C   UNL d   1      52.358  32.172  52.961  0.00  0.00     0.008 A 
ATOM     24  C   UNL d   1      53.390  31.163  52.957  0.00  0.00     0.000 C 
ATOM     25  S   UNL d   1      51.382  33.318  53.052  0.00  0.00    -0.047 SA
ENDBRANCH  14  16
ENDBRANCH  12  13
ENDBRANCH  11  12
ENDBRANCH   4  11
BRANCH   5  26
ATOM     26  C   UNL d   1      46.223  36.695  53.727  0.00  0.00     0.086 C 
BRANCH  26  27
ATOM     27  C   UNL d   1      45.845  36.394  54.387  0.00  0.00     0.038 C 
BRANCH  27  28
ATOM     28  C   UNL d   1      45.123  36.709  54.632  0.00  0.00     0.082 C 
BRANCH  28  29
ATOM     29  N   UNL d   1      44.702  36.351  55.241  0.00  0.00    -0.300 N 
ATOM     30  C   UNL d   1      44.317  35.633  55.110  0.00  0.00     0.100 C 
ATOM     31  C   UNL d   1      44.665  36.709  55.983  0.00  0.00     0.100 C 
ENDBRANCH  28  29
ENDBRANCH  27  28
ENDBRANCH  26  27
ENDBRANCH   5  26
TORSDOF 8
ENDMDL
