MODEL 1
REMARK VINA RESULT:      -6.0      0.000      0.000
REMARK  0 active torsions:
REMARK  status: ('A' for Active; 'I' for Inactive)
REMARK       I    between atoms: C_3  and  N_1 
REMARK       I    between atoms: N_6  and  C_3 
ROOT
ATOM      1  N   UNL d   1      57.077  -0.605  31.441  0.00  0.00    -0.160 N 
ATOM      2  N   UNL d   1      57.025  -1.415  31.420  0.00  0.00    -0.056 NA
ATOM      3  C   UNL d   1      57.557  -0.149  30.909  0.00  0.00     0.357 C 
ATOM      4  N   UNL d   1      56.508  -1.645  32.020  0.00  0.00    -0.128 NA
ATOM      5  C   UNL d   1      56.604  -0.326  32.041  0.00  0.00     0.108 A 
ATOM      6  N   UNL d   1      58.006  -0.516  30.328  0.00  0.00    -0.252 N 
ATOM      7  C   UNL d   1      56.250  -0.971  32.402  0.00  0.00     0.122 A 
ATOM      8  O   UNL d   1      57.555   0.681  30.997  0.00  0.00    -0.244 OA
ATOM      9  O   UNL d   1      58.907  -1.252  29.163  0.00  0.00    -0.300 OA
ATOM     10  C   UNL d   1      56.449   0.427  32.307  0.00  0.00     0.021 A 
ATOM     11  C   UNL d   1      57.992  -1.351  30.259  0.00  0.00     0.111 A 
ATOM     12  C   UNL d   1      58.463  -0.074  29.822  0.00  0.00     0.111 A 
ATOM     13  C   UNL d   1      55.730  -0.864  33.041  0.00  0.00     0.022 A 
ATOM     14  C   UNL d   1      58.445  -1.722  29.673  0.00  0.00     0.142 A 
ATOM     15  C   UNL d   1      58.914  -0.443  29.239  0.00  0.00     0.142 A 
ATOM     16  C   UNL d   1      55.933   0.545  32.941  0.00  0.00     0.002 A 
ATOM     17  C   UNL d   1      55.573  -0.091  33.310  0.00  0.00     0.002 A 
ENDROOT
TORSDOF 0
ENDMDL
MODEL 2
REMARK VINA RESULT:      -5.7      0.926      1.450
REMARK  0 active torsions:
REMARK  status: ('A' for Active; 'I' for Inactive)
REMARK       I    between atoms: C_3  and  N_1 
REMARK       I    between atoms: N_6  and  C_3 
ROOT
ATOM      1  N   UNL d   1      57.275  -0.396  31.386  0.00  0.00    -0.160 N 
ATOM      2  N   UNL d   1      57.458   0.388  31.487  0.00  0.00    -0.056 NA
ATOM      3  C   UNL d   1      57.595  -0.880  30.766  0.00  0.00     0.357 C 
ATOM      4  N   UNL d   1      57.039   0.657  32.144  0.00  0.00    -0.128 NA
ATOM      5  C   UNL d   1      56.750  -0.621  31.967  0.00  0.00     0.108 A 
ATOM      6  N   UNL d   1      58.122  -0.569  30.219  0.00  0.00    -0.252 N 
ATOM      7  C   UNL d   1      56.603   0.033  32.438  0.00  0.00     0.122 A 
ATOM      8  O   UNL d   1      57.354  -1.679  30.732  0.00  0.00    -0.244 OA
ATOM      9  O   UNL d   1      59.180   0.055  29.123  0.00  0.00    -0.300 OA
ATOM     10  C   UNL d   1      56.388  -1.331  32.128  0.00  0.00     0.021 A 
ATOM     11  C   UNL d   1      58.348   0.237  30.274  0.00  0.00     0.111 A 
ATOM     12  C   UNL d   1      58.424  -1.037  29.629  0.00  0.00     0.111 A 
ATOM     13  C   UNL d   1      56.084  -0.021  33.084  0.00  0.00     0.022 A 
ATOM     14  C   UNL d   1      58.881   0.551  29.722  0.00  0.00     0.142 A 
ATOM     15  C   UNL d   1      58.954  -0.724  29.079  0.00  0.00     0.142 A 
ATOM     16  C   UNL d   1      55.870  -1.396  32.768  0.00  0.00     0.002 A 
ATOM     17  C   UNL d   1      55.714  -0.751  33.247  0.00  0.00     0.002 A 
ENDROOT
TORSDOF 0
ENDMDL
MODEL 3
REMARK VINA RESULT:      -4.9      1.143      3.674
REMARK  0 active torsions:
REMARK  status: ('A' for Active; 'I' for Inactive)
REMARK       I    between atoms: C_3  and  N_1 
REMARK       I    between atoms: N_6  and  C_3 
ROOT
ATOM      1  N   UNL d   1      57.381  -0.385  31.076  0.00  0.00    -0.160 N 
ATOM      2  N   UNL d   1      57.375   0.427  31.082  0.00  0.00    -0.056 NA
ATOM      3  C   UNL d   1      56.942  -0.864  31.622  0.00  0.00     0.357 C 
ATOM      4  N   UNL d   1      57.866   0.682  30.470  0.00  0.00    -0.128 NA
ATOM      5  C   UNL d   1      57.865  -0.641  30.473  0.00  0.00     0.108 A 
ATOM      6  N   UNL d   1      56.475  -0.520  32.203  0.00  0.00    -0.252 N 
ATOM      7  C   UNL d   1      58.168   0.022  30.096  0.00  0.00     0.122 A 
ATOM      8  O   UNL d   1      57.003  -1.694  31.548  0.00  0.00    -0.244 OA
ATOM      9  O   UNL d   1      55.539   0.171  33.367  0.00  0.00    -0.300 OA
ATOM     10  C   UNL d   1      58.070  -1.385  30.219  0.00  0.00     0.021 A 
ATOM     11  C   UNL d   1      56.431   0.316  32.257  0.00  0.00     0.111 A 
ATOM     12  C   UNL d   1      56.058  -0.984  32.723  0.00  0.00     0.111 A 
ATOM     13  C   UNL d   1      58.685  -0.060  29.452  0.00  0.00     0.022 A 
ATOM     14  C   UNL d   1      55.959   0.664  32.843  0.00  0.00     0.142 A 
ATOM     15  C   UNL d   1      55.589  -0.638  33.306  0.00  0.00     0.142 A 
ATOM     16  C   UNL d   1      58.585  -1.477  29.579  0.00  0.00     0.002 A 
ATOM     17  C   UNL d   1      58.894  -0.824  29.194  0.00  0.00     0.002 A 
ENDROOT
TORSDOF 0
ENDMDL
MODEL 4
REMARK VINA RESULT:      -4.4      1.226      3.420
REMARK  0 active torsions:
REMARK  status: ('A' for Active; 'I' for Inactive)
REMARK       I    between atoms: C_3  and  N_1 
REMARK       I    between atoms: N_6  and  C_3 
ROOT
ATOM      1  N   UNL d   1      57.522  -0.384  31.396  0.00  0.00    -0.160 N 
ATOM      2  N   UNL d   1      57.162  -1.056  31.114  0.00  0.00    -0.056 NA
ATOM      3  C   UNL d   1      57.315  -0.010  32.129  0.00  0.00     0.357 C 
ATOM      4  N   UNL d   1      57.517  -1.243  30.394  0.00  0.00    -0.128 NA
ATOM      5  C   UNL d   1      58.093  -0.149  30.865  0.00  0.00     0.108 A 
ATOM      6  N   UNL d   1      56.722  -0.317  32.606  0.00  0.00    -0.252 N 
ATOM      7  C   UNL d   1      58.091  -0.682  30.242  0.00  0.00     0.122 A 
ATOM      8  O   UNL d   1      57.735   0.679  32.346  0.00  0.00    -0.244 OA
ATOM      9  O   UNL d   1      55.532  -0.933  33.562  0.00  0.00    -0.300 OA
ATOM     10  C   UNL d   1      58.613   0.476  30.867  0.00  0.00     0.021 A 
ATOM     11  C   UNL d   1      56.315  -1.010  32.366  0.00  0.00     0.111 A 
ATOM     12  C   UNL d   1      56.529   0.047  33.306  0.00  0.00     0.111 A 
ATOM     13  C   UNL d   1      58.617  -0.590  29.607  0.00  0.00     0.022 A 
ATOM     14  C   UNL d   1      55.716  -1.320  32.848  0.00  0.00     0.142 A 
ATOM     15  C   UNL d   1      55.933  -0.262  33.785  0.00  0.00     0.142 A 
ATOM     16  C   UNL d   1      59.141   0.577  30.239  0.00  0.00     0.002 A 
ATOM     17  C   UNL d   1      59.149   0.052  29.611  0.00  0.00     0.002 A 
ENDROOT
TORSDOF 0
ENDMDL
MODEL 5
REMARK VINA RESULT:      -3.7      2.263      4.239
REMARK  0 active torsions:
REMARK  status: ('A' for Active; 'I' for Inactive)
REMARK       I    between atoms: C_3  and  N_1 
REMARK       I    between atoms: N_6  and  C_3 
ROOT
ATOM      1  N   UNL d   1      56.801   0.650  32.988  0.00  0.00    -0.160 N 
ATOM      2  N   UNL d   1      57.369   0.670  33.568  0.00  0.00    -0.056 NA
ATOM      3  C   UNL d   1      55.967   0.639  33.144  0.00  0.00     0.357 C 
ATOM      4  N   UNL d   1      58.104   0.675  33.195  0.00  0.00    -0.128 NA
ATOM      5  C   UNL d   1      57.167   0.643  32.261  0.00  0.00     0.108 A 
ATOM      6  N   UNL d   1      55.682   0.649  33.914  0.00  0.00    -0.252 N 
ATOM      7  C   UNL d   1      57.977   0.658  32.388  0.00  0.00     0.122 A 
ATOM      8  O   UNL d   1      55.448   0.619  32.489  0.00  0.00    -0.244 OA
ATOM      9  O   UNL d   1      55.113   0.668  35.458  0.00  0.00    -0.300 OA
ATOM     10  C   UNL d   1      56.873   0.624  31.503  0.00  0.00     0.021 A 
ATOM     11  C   UNL d   1      56.223   0.670  34.555  0.00  0.00     0.111 A 
ATOM     12  C   UNL d   1      54.883   0.638  34.056  0.00  0.00     0.111 A 
ATOM     13  C   UNL d   1      58.505   0.655  31.747  0.00  0.00     0.022 A 
ATOM     14  C   UNL d   1      55.936   0.679  35.332  0.00  0.00     0.142 A 
ATOM     15  C   UNL d   1      54.597   0.648  34.830  0.00  0.00     0.142 A 
ATOM     16  C   UNL d   1      57.389   0.620  30.858  0.00  0.00     0.002 A 
ATOM     17  C   UNL d   1      58.199   0.636  30.972  0.00  0.00     0.002 A 
ENDROOT
TORSDOF 0
ENDMDL
