MODEL 1
REMARK VINA RESULT:      19.7      0.000      0.000
REMARK  4 active torsions:
REMARK  status: ('A' for Active; 'I' for Inactive)
REMARK    1  A    between atoms: C_5  and  C_3 
REMARK    2  A    between atoms: S_6  and  C_4 
REMARK    3  A    between atoms: C_10  and  S_6 
REMARK    4  A    between atoms: C_12  and  C_10 
ROOT
ATOM      1  N   UNL d   1      12.977  11.824  -2.973  0.00  0.00    -0.148 NA
ATOM      2  N   UNL d   1      13.051  11.807  -2.152  0.00  0.00    -0.141 NA
ATOM      3  C   UNL d   1      13.651  11.910  -3.449  0.00  0.00     0.104 A 
ATOM      4  C   UNL d   1      13.786  11.874  -1.797  0.00  0.00     0.132 A 
ATOM      5  C   UNL d   1      14.395  11.978  -3.094  0.00  0.00     0.023 A 
ATOM      6  C   UNL d   1      14.465  11.960  -2.274  0.00  0.00     0.029 A 
ENDROOT
BRANCH   4   7
ATOM      7  S   UNL d   1      13.859  11.856  -0.976  0.00  0.00    -0.066 SA
BRANCH   7   8
ATOM      8  C   UNL d   1      14.594  11.954  -0.622  0.00  0.00     0.037 C 
BRANCH   8   9
ATOM      9  C   UNL d   1      14.850  12.714  -0.419  0.00  0.00     0.006 A 
ATOM     10  C   UNL d   1      14.299  13.294  -0.227  0.00  0.00     0.001 A 
ATOM     11  C   UNL d   1      14.546  14.047  -0.024  0.00  0.00     0.000 A 
ATOM     12  C   UNL d   1      15.360  14.220  -0.014  0.00  0.00     0.000 A 
ATOM     13  C   UNL d   1      15.901  13.638  -0.207  0.00  0.00     0.000 A 
ATOM     14  C   UNL d   1      15.640  12.881  -0.410  0.00  0.00     0.001 A 
ENDBRANCH   8   9
ENDBRANCH   7   8
ENDBRANCH   4   7
BRANCH   3  15
ATOM     15  C   UNL d   1      13.578  11.927  -4.270  0.00  0.00     0.039 A 
ATOM     16  C   UNL d   1      14.232  11.795  -4.737  0.00  0.00     0.101 A 
ATOM     17  N   UNL d   1      14.164  11.811  -5.552  0.00  0.00    -0.242 NA
ATOM     18  C   UNL d   1      13.424  11.963  -5.902  0.00  0.00     0.099 A 
ATOM     19  C   UNL d   1      12.770  12.096  -5.430  0.00  0.00     0.021 A 
ATOM     20  C   UNL d   1      12.834  12.080  -4.606  0.00  0.00     0.005 A 
ENDBRANCH   3  15
TORSDOF 4
ENDMDL
