MODEL 1
REMARK VINA RESULT:      43.7      0.000      0.000
REMARK  2 active torsions:
REMARK  status: ('A' for Active; 'I' for Inactive)
REMARK    1  A    between atoms: C_10  and  C_5 
REMARK    2  A    between atoms: O_22  and  C_15 
ROOT
ATOM      1  C   UNL d   1      13.850  14.613  -3.452  0.00  0.00     0.120 A 
ATOM      2  C   UNL d   1      14.140  14.209  -2.794  0.00  0.00     0.058 A 
ATOM      3  N   UNL d   1      14.059  15.406  -3.370  0.00  0.00    -0.195 NA
ATOM      4  S   UNL d   1      13.439  14.211  -4.035  0.00  0.00    -0.072 SA
ATOM      5  C   UNL d   1      14.017  13.405  -2.721  0.00  0.00     0.005 A 
ATOM      6  C   UNL d   1      13.315  13.406  -3.962  0.00  0.00     0.009 A 
ATOM      7  C   UNL d   1      13.604  12.998  -3.304  0.00  0.00    -0.015 A 
ATOM      8  C   UNL d   1      14.478  15.495  -2.661  0.00  0.00     0.311 A 
ATOM      9  S   UNL d   1      14.526  14.746  -2.305  0.00  0.00    -0.024 SA
ATOM     10  C   UNL d   1      13.479  12.185  -3.232  0.00  0.00     0.045 A 
ATOM     11  C   UNL d   1      12.901  13.000  -4.548  0.00  0.00     0.050 A 
ATOM     12  C   UNL d   1      13.268  12.821  -3.834  0.00  0.00     0.018 A 
ATOM     13  O   UNL d   1      14.794  16.197  -2.356  0.00  0.00    -0.258 OA
ATOM     14  C   UNL d   1      13.065  11.780  -3.818  0.00  0.00    -0.026 A 
ATOM     15  C   UNL d   1      12.775  12.187  -4.477  0.00  0.00    -0.026 A 
ENDROOT
BRANCH   5  16
ATOM     16  C   UNL d   1      14.303  13.003  -2.070  0.00  0.00     0.002 A 
ATOM     17  C   UNL d   1      13.852  12.949  -1.389  0.00  0.00     0.028 A 
ATOM     18  C   UNL d   1      14.138  12.545  -0.733  0.00  0.00     0.133 A 
ATOM     19  C   UNL d   1      14.886  12.190  -0.758  0.00  0.00     0.218 A 
ATOM     20  C   UNL d   1      15.343  12.246  -1.449  0.00  0.00     0.044 A 
ATOM     21  O   UNL d   1      15.177  11.783  -0.101  0.00  0.00    -0.284 OA
ATOM     22  C   UNL d   1      15.055  12.650  -2.103  0.00  0.00     0.003 A 
BRANCH  18  23
ATOM     23  O   UNL d   1      13.682  12.491  -0.047  0.00  0.00    -0.325 OA
ATOM     24  C   UNL d   1      12.967  12.076  -0.055  0.00  0.00     0.181 C 
ENDBRANCH  18  23
ENDBRANCH   5  16
TORSDOF 2
ENDMDL
