MODEL 1
REMARK VINA RESULT:      -4.3      0.000      0.000
REMARK  4 active torsions:
REMARK  status: ('A' for Active; 'I' for Inactive)
REMARK    1  A    between atoms: C_3  and  N_1 
REMARK    2  A    between atoms: C_2  and  C_7 
REMARK       I    between atoms: N_4  and  C_2 
REMARK    3  A    between atoms: C_15  and  N_4 
REMARK    4  A    between atoms: C_8  and  C_15 
ROOT
ATOM      1  C   UNL d   1     -42.231-123.004 -49.822  0.00  0.00     0.127 A 
ATOM      2  C   UNL d   1     -41.641-122.046 -51.022  0.00  0.00     0.058 A 
ATOM      3  C   UNL d   1     -42.732-122.506 -50.255  0.00  0.00     0.024 A 
ATOM      4  C   UNL d   1     -41.398-123.011 -50.011  0.00  0.00     0.024 A 
ATOM      5  C   UNL d   1     -41.123-122.533 -50.605  0.00  0.00     0.006 A 
ATOM      6  C   UNL d   1     -42.429-122.039 -50.844  0.00  0.00     0.006 A 
ENDROOT
BRANCH   2   7
ATOM      7  C   UNL d   1     -41.321-121.568 -51.627  0.00  0.00     0.279 C 
ATOM      8  N   UNL d   1     -41.195-121.868 -52.391  0.00  0.00    -0.200 NA
ATOM      9  O   UNL d   1     -41.124-120.793 -51.475  0.00  0.00    -0.265 OA
BRANCH   8  10
ATOM     10  C   UNL d   1     -41.397-122.670 -52.553  0.00  0.00     0.172 C 
BRANCH  10  11
ATOM     11  C   UNL d   1     -41.319-122.969 -53.308  0.00  0.00     0.231 C 
ATOM     12  O   UNL d   1     -41.149-122.450 -53.941  0.00  0.00    -0.643 OA
ATOM     13  O   UNL d   1     -41.406-123.763 -53.437  0.00  0.00    -0.643 OA
ENDBRANCH  10  11
ENDBRANCH   8  10
ENDBRANCH   2   7
BRANCH   1  14
ATOM     14  N   UNL d   1     -42.524-123.500 -49.203  0.00  0.00    -0.114 N 
ATOM     15  O   UNL d   1     -42.055-123.683 -48.531  0.00  0.00    -0.532 OA
ATOM     16  O   UNL d   1     -43.291-123.810 -49.267  0.00  0.00    -0.532 OA
ENDBRANCH   1  14
TORSDOF 4
ENDMDL
MODEL 2
REMARK VINA RESULT:      -3.7      1.109      3.978
REMARK  4 active torsions:
REMARK  status: ('A' for Active; 'I' for Inactive)
REMARK    1  A    between atoms: C_3  and  N_1 
REMARK    2  A    between atoms: C_2  and  C_7 
REMARK       I    between atoms: N_4  and  C_2 
REMARK    3  A    between atoms: C_15  and  N_4 
REMARK    4  A    between atoms: C_8  and  C_15 
ROOT
ATOM      1  C   UNL d   1     -41.804-122.479 -51.158  0.00  0.00     0.127 A 
ATOM      2  C   UNL d   1     -42.694-123.152 -49.948  0.00  0.00     0.058 A 
ATOM      3  C   UNL d   1     -41.585-123.203 -50.820  0.00  0.00     0.024 A 
ATOM      4  C   UNL d   1     -42.504-122.086 -50.866  0.00  0.00     0.024 A 
ATOM      5  C   UNL d   1     -42.932-122.430 -50.269  0.00  0.00     0.006 A 
ATOM      6  C   UNL d   1     -42.032-123.524 -50.224  0.00  0.00     0.006 A 
ENDROOT
BRANCH   2   7
ATOM      7  C   UNL d   1     -43.160-123.475 -49.336  0.00  0.00     0.279 C 
ATOM      8  N   UNL d   1     -42.905-123.456 -48.546  0.00  0.00    -0.200 NA
ATOM      9  O   UNL d   1     -43.878-123.817 -49.506  0.00  0.00    -0.265 OA
BRANCH   8  10
ATOM     10  C   UNL d   1     -42.162-123.103 -48.365  0.00  0.00     0.172 C 
BRANCH  10  11
ATOM     11  C   UNL d   1     -41.896-123.077 -47.594  0.00  0.00     0.231 C 
ATOM     12  O   UNL d   1     -41.407-123.691 -47.306  0.00  0.00    -0.643 OA
ATOM     13  O   UNL d   1     -42.106-122.459 -47.117  0.00  0.00    -0.643 OA
ENDBRANCH  10  11
ENDBRANCH   8  10
ENDBRANCH   2   7
BRANCH   1  14
ATOM     14  N   UNL d   1     -41.354-122.125 -51.779  0.00  0.00    -0.114 N 
ATOM     15  O   UNL d   1     -41.123-122.563 -52.457  0.00  0.00    -0.532 OA
ATOM     16  O   UNL d   1     -41.138-121.326 -51.712  0.00  0.00    -0.532 OA
ENDBRANCH   1  14
TORSDOF 4
ENDMDL
MODEL 3
REMARK VINA RESULT:      -3.5      1.059      3.540
REMARK  4 active torsions:
REMARK  status: ('A' for Active; 'I' for Inactive)
REMARK    1  A    between atoms: C_3  and  N_1 
REMARK    2  A    between atoms: C_2  and  C_7 
REMARK       I    between atoms: N_4  and  C_2 
REMARK    3  A    between atoms: C_15  and  N_4 
REMARK    4  A    between atoms: C_8  and  C_15 
ROOT
ATOM      1  C   UNL d   1     -41.599-122.550 -53.474  0.00  0.00     0.127 A 
ATOM      2  C   UNL d   1     -41.479-122.080 -51.902  0.00  0.00     0.058 A 
ATOM      3  C   UNL d   1     -41.175-123.003 -52.925  0.00  0.00     0.024 A 
ATOM      4  C   UNL d   1     -41.975-121.830 -53.208  0.00  0.00     0.024 A 
ATOM      5  C   UNL d   1     -41.906-121.612 -52.430  0.00  0.00     0.006 A 
ATOM      6  C   UNL d   1     -41.123-122.760 -52.153  0.00  0.00     0.006 A 
ENDROOT
BRANCH   2   7
ATOM      7  C   UNL d   1     -41.431-121.822 -51.109  0.00  0.00     0.279 C 
ATOM      8  N   UNL d   1     -41.663-122.314 -50.482  0.00  0.00    -0.200 NA
ATOM      9  O   UNL d   1     -41.152-121.077 -50.938  0.00  0.00    -0.265 OA
BRANCH   8  10
ATOM     10  C   UNL d   1     -41.952-123.087 -50.655  0.00  0.00     0.172 C 
BRANCH  10  11
ATOM     11  C   UNL d   1     -42.238-123.562 -50.057  0.00  0.00     0.231 C 
ATOM     12  O   UNL d   1     -41.728-123.798 -49.438  0.00  0.00    -0.643 OA
ATOM     13  O   UNL d   1     -43.011-123.801 -50.068  0.00  0.00    -0.643 OA
ENDBRANCH  10  11
ENDBRANCH   8  10
ENDBRANCH   2   7
BRANCH   1  14
ATOM     14  N   UNL d   1     -41.667-122.783 -54.283  0.00  0.00    -0.114 N 
ATOM     15  O   UNL d   1     -41.200-122.424 -54.882  0.00  0.00    -0.532 OA
ATOM     16  O   UNL d   1     -42.209-123.379 -54.485  0.00  0.00    -0.532 OA
ENDBRANCH   1  14
TORSDOF 4
ENDMDL
MODEL 4
REMARK VINA RESULT:      -3.2      1.537      2.519
REMARK  4 active torsions:
REMARK  status: ('A' for Active; 'I' for Inactive)
REMARK    1  A    between atoms: C_3  and  N_1 
REMARK    2  A    between atoms: C_2  and  C_7 
REMARK       I    between atoms: N_4  and  C_2 
REMARK    3  A    between atoms: C_15  and  N_4 
REMARK    4  A    between atoms: C_8  and  C_15 
ROOT
ATOM      1  C   UNL d   1     -41.502-122.346 -51.468  0.00  0.00     0.127 A 
ATOM      2  C   UNL d   1     -41.491-122.848 -53.034  0.00  0.00     0.058 A 
ATOM      3  C   UNL d   1     -41.132-121.896 -52.056  0.00  0.00     0.024 A 
ATOM      4  C   UNL d   1     -41.880-123.080 -51.689  0.00  0.00     0.024 A 
ATOM      5  C   UNL d   1     -41.866-123.313 -52.466  0.00  0.00     0.006 A 
ATOM      6  C   UNL d   1     -41.133-122.154 -52.825  0.00  0.00     0.006 A 
ENDROOT
BRANCH   2   7
ATOM      7  C   UNL d   1     -41.497-123.122 -53.823  0.00  0.00     0.279 C 
ATOM      8  N   UNL d   1     -41.881-122.696 -54.423  0.00  0.00    -0.200 NA
ATOM      9  O   UNL d   1     -41.123-123.817 -54.017  0.00  0.00    -0.265 OA
BRANCH   8  10
ATOM     10  C   UNL d   1     -42.270-121.974 -54.227  0.00  0.00     0.172 C 
BRANCH  10  11
ATOM     11  C   UNL d   1     -42.658-121.547 -54.803  0.00  0.00     0.231 C 
ATOM     12  O   UNL d   1     -42.369-120.794 -55.022  0.00  0.00    -0.643 OA
ATOM     13  O   UNL d   1     -43.318-121.855 -55.156  0.00  0.00    -0.643 OA
ENDBRANCH  10  11
ENDBRANCH   8  10
ENDBRANCH   2   7
BRANCH   1  14
ATOM     14  N   UNL d   1     -41.514-122.097 -50.660  0.00  0.00    -0.114 N 
ATOM     15  O   UNL d   1     -41.533-122.653 -50.031  0.00  0.00    -0.532 OA
ATOM     16  O   UNL d   1     -41.506-121.284 -50.491  0.00  0.00    -0.532 OA
ENDBRANCH   1  14
TORSDOF 4
ENDMDL
MODEL 5
REMARK VINA RESULT:      -3.0      1.301      2.004
REMARK  4 active torsions:
REMARK  status: ('A' for Active; 'I' for Inactive)
REMARK    1  A    between atoms: C_3  and  N_1 
REMARK    2  A    between atoms: C_2  and  C_7 
REMARK       I    between atoms: N_4  and  C_2 
REMARK    3  A    between atoms: C_15  and  N_4 
REMARK    4  A    between atoms: C_8  and  C_15 
ROOT
ATOM      1  C   UNL d   1     -42.028-122.972 -48.804  0.00  0.00     0.127 A 
ATOM      2  C   UNL d   1     -42.023-123.079 -50.446  0.00  0.00     0.058 A 
ATOM      3  C   UNL d   1     -41.346-123.203 -49.213  0.00  0.00     0.024 A 
ATOM      4  C   UNL d   1     -42.733-122.789 -49.252  0.00  0.00     0.024 A 
ATOM      5  C   UNL d   1     -42.714-122.847 -50.060  0.00  0.00     0.006 A 
ATOM      6  C   UNL d   1     -41.356-123.251 -50.023  0.00  0.00     0.006 A 
ENDROOT
BRANCH   2   7
ATOM      7  C   UNL d   1     -42.042-123.126 -51.279  0.00  0.00     0.279 C 
ATOM      8  N   UNL d   1     -41.831-122.477 -51.752  0.00  0.00    -0.200 NA
ATOM      9  O   UNL d   1     -42.271-123.816 -51.644  0.00  0.00    -0.265 OA
BRANCH   8  10
ATOM     10  C   UNL d   1     -41.593-121.760 -51.379  0.00  0.00     0.172 C 
BRANCH  10  11
ATOM     11  C   UNL d   1     -41.289-121.147 -51.822  0.00  0.00     0.231 C 
ATOM     12  O   UNL d   1     -41.153-121.257 -52.639  0.00  0.00    -0.643 OA
ATOM     13  O   UNL d   1     -41.123-120.438 -51.468  0.00  0.00    -0.643 OA
ENDBRANCH  10  11
ENDBRANCH   8  10
ENDBRANCH   2   7
BRANCH   1  14
ATOM     14  N   UNL d   1     -42.043-122.914 -47.961  0.00  0.00    -0.114 N 
ATOM     15  O   UNL d   1     -41.528-123.373 -47.482  0.00  0.00    -0.532 OA
ATOM     16  O   UNL d   1     -42.579-122.390 -47.604  0.00  0.00    -0.532 OA
ENDBRANCH   1  14
TORSDOF 4
ENDMDL
MODEL 6
REMARK VINA RESULT:      -2.4      0.952      3.470
REMARK  4 active torsions:
REMARK  status: ('A' for Active; 'I' for Inactive)
REMARK    1  A    between atoms: C_3  and  N_1 
REMARK    2  A    between atoms: C_2  and  C_7 
REMARK       I    between atoms: N_4  and  C_2 
REMARK    3  A    between atoms: C_15  and  N_4 
REMARK    4  A    between atoms: C_8  and  C_15 
ROOT
ATOM      1  C   UNL d   1     -41.554-122.223 -52.113  0.00  0.00     0.127 A 
ATOM      2  C   UNL d   1     -41.683-122.495 -50.496  0.00  0.00     0.058 A 
ATOM      3  C   UNL d   1     -41.811-121.626 -51.601  0.00  0.00     0.024 A 
ATOM      4  C   UNL d   1     -41.355-122.987 -51.786  0.00  0.00     0.024 A 
ATOM      5  C   UNL d   1     -41.424-123.105 -50.987  0.00  0.00     0.006 A 
ATOM      6  C   UNL d   1     -41.871-121.772 -50.805  0.00  0.00     0.006 A 
ENDROOT
BRANCH   2   7
ATOM      7  C   UNL d   1     -41.741-122.654 -49.679  0.00  0.00     0.279 C 
ATOM      8  N   UNL d   1     -42.421-123.004 -49.355  0.00  0.00    -0.200 NA
ATOM      9  O   UNL d   1     -41.125-122.468 -49.181  0.00  0.00    -0.265 OA
BRANCH   8  10
ATOM     10  C   UNL d   1     -43.061-123.200 -49.867  0.00  0.00     0.172 C 
BRANCH  10  11
ATOM     11  C   UNL d   1     -43.744-123.528 -49.564  0.00  0.00     0.231 C 
ATOM     12  O   UNL d   1     -43.750-123.816 -48.780  0.00  0.00    -0.643 OA
ATOM     13  O   UNL d   1     -44.408-123.571 -50.025  0.00  0.00    -0.643 OA
ENDBRANCH  10  11
ENDBRANCH   8  10
ENDBRANCH   2   7
BRANCH   1  14
ATOM     14  N   UNL d   1     -41.484-122.095 -52.946  0.00  0.00    -0.114 N 
ATOM     15  O   UNL d   1     -41.134-121.396 -53.253  0.00  0.00    -0.532 OA
ATOM     16  O   UNL d   1     -41.770-122.675 -53.466  0.00  0.00    -0.532 OA
ENDBRANCH   1  14
TORSDOF 4
ENDMDL
