MODEL 1
REMARK VINA RESULT:      14.9      0.000      0.000
REMARK  2 active torsions:
REMARK  status: ('A' for Active; 'I' for Inactive)
REMARK    1  A    between atoms: C_6  and  C_1 
REMARK    2  A    between atoms: O_10  and  C_6 
ROOT
ATOM      1  C   UNL d   1      58.900  49.698  50.418  0.00  0.00     0.096 A 
ATOM      2  S   UNL d   1      58.458  49.700  51.125  0.00  0.00    -0.040 SA
ATOM      3  C   UNL d   1      57.629  49.703  51.092  0.00  0.00     0.226 A 
ATOM      4  C   UNL d   1      58.509  49.698  49.687  0.00  0.00     0.012 A 
ATOM      5  C   UNL d   1      57.686  49.701  49.658  0.00  0.00     0.004 A 
ATOM      6  C   UNL d   1      57.248  49.703  50.357  0.00  0.00     0.045 A 
ATOM      7  O   UNL d   1      57.191  49.705  51.792  0.00  0.00    -0.279 OA
ATOM      8  C   UNL d   1      57.301  49.701  48.931  0.00  0.00     0.000 A 
ATOM      9  C   UNL d   1      56.421  49.706  50.336  0.00  0.00     0.004 A 
ATOM     10  C   UNL d   1      56.478  49.704  48.902  0.00  0.00     0.000 A 
ATOM     11  C   UNL d   1      56.035  49.706  49.609  0.00  0.00     0.000 A 
ENDROOT
BRANCH   1  12
ATOM     12  C   UNL d   1      59.722  49.695  50.456  0.00  0.00     0.302 C 
ATOM     13  O   UNL d   1      60.160  49.699  49.757  0.00  0.00    -0.259 OA
BRANCH  12  14
ATOM     14  O   UNL d   1      60.112  49.689  51.177  0.00  0.00    -0.295 OA
ATOM     15  C   UNL d   1      60.946  49.703  51.194  0.00  0.00     0.185 C 
ENDBRANCH  12  14
ENDBRANCH   1  12
TORSDOF 2
ENDMDL
MODEL 2
REMARK VINA RESULT:      17.8      0.940      3.541
REMARK  2 active torsions:
REMARK  status: ('A' for Active; 'I' for Inactive)
REMARK    1  A    between atoms: C_6  and  C_1 
REMARK    2  A    between atoms: O_10  and  C_6 
ROOT
ATOM      1  C   UNL d   1      58.499  49.659  50.506  0.00  0.00     0.096 A 
ATOM      2  S   UNL d   1      58.995  49.668  49.837  0.00  0.00    -0.040 SA
ATOM      3  C   UNL d   1      59.819  49.678  49.935  0.00  0.00     0.226 A 
ATOM      4  C   UNL d   1      58.831  49.659  51.266  0.00  0.00     0.012 A 
ATOM      5  C   UNL d   1      59.649  49.669  51.360  0.00  0.00     0.004 A 
ATOM      6  C   UNL d   1      60.141  49.679  50.698  0.00  0.00     0.045 A 
ATOM      7  O   UNL d   1      60.311  49.688  49.272  0.00  0.00    -0.279 OA
ATOM      8  C   UNL d   1      59.976  49.669  52.115  0.00  0.00     0.000 A 
ATOM      9  C   UNL d   1      60.963  49.689  50.784  0.00  0.00     0.004 A 
ATOM     10  C   UNL d   1      60.794  49.679  52.209  0.00  0.00     0.000 A 
ATOM     11  C   UNL d   1      61.291  49.689  51.540  0.00  0.00     0.000 A 
ENDROOT
BRANCH   1  12
ATOM     12  C   UNL d   1      57.682  49.649  50.404  0.00  0.00     0.302 C 
ATOM     13  O   UNL d   1      57.191  49.584  51.064  0.00  0.00    -0.259 OA
BRANCH  12  14
ATOM     14  O   UNL d   1      57.349  49.703  49.657  0.00  0.00    -0.295 OA
ATOM     15  C   UNL d   1      56.522  49.642  49.570  0.00  0.00     0.185 C 
ENDBRANCH  12  14
ENDBRANCH   1  12
TORSDOF 2
ENDMDL
