MODEL 1
REMARK VINA RESULT:      13.1      0.000      0.000
REMARK  2 active torsions:
REMARK  status: ('A' for Active; 'I' for Inactive)
REMARK    1  A    between atoms: C_9  and  N_1 
REMARK    2  A    between atoms: C_11  and  C_9 
ROOT
ATOM      1  N   UNL d   1     -54.745-102.182 -37.322  0.00  0.00    -0.287 N 
ATOM      2  N   UNL d   1     -54.791-102.422 -35.990  0.00  0.00    -0.224 NA
ATOM      3  C   UNL d   1     -54.754-101.441 -36.923  0.00  0.00     0.083 A 
ATOM      4  C   UNL d   1     -54.768-102.785 -36.743  0.00  0.00     0.183 A 
ATOM      5  C   UNL d   1     -54.782-101.591 -36.105  0.00  0.00     0.099 A 
ATOM      6  C   UNL d   1     -54.740-100.663 -37.200  0.00  0.00     0.019 A 
ATOM      7  C   UNL d   1     -54.796-100.961 -35.572  0.00  0.00     0.021 A 
ATOM      8  C   UNL d   1     -54.754-100.036 -36.666  0.00  0.00     0.002 A 
ATOM      9  C   UNL d   1     -54.783-100.186 -35.848  0.00  0.00     0.002 A 
ATOM     10  C   UNL d   1     -54.740 -99.256 -36.942  0.00  0.00     0.000 C 
ATOM     11  C   UNL d   1     -54.797 -99.556 -35.318  0.00  0.00     0.000 C 
ENDROOT
BRANCH   1  12
ATOM     12  C   UNL d   1     -54.720-102.459 -38.096  0.00  0.00     0.082 C 
BRANCH  12  13
ATOM     13  C   UNL d   1     -55.408-102.735 -38.456  0.00  0.00     0.018 C 
ATOM     14  C   UNL d   1     -56.085-102.874 -38.003  0.00  0.00     0.002 C 
ATOM     15  C   UNL d   1     -55.422-102.874 -39.270  0.00  0.00     0.002 C 
ENDBRANCH  12  13
ENDBRANCH   1  12
TORSDOF 2
ENDMDL
