MODEL 1
REMARK VINA RESULT:      21.0      0.000      0.000
REMARK  4 active torsions:
REMARK  status: ('A' for Active; 'I' for Inactive)
REMARK    1  A    between atoms: C_5  and  C_1 
REMARK       I    between atoms: N_7  and  C_5 
REMARK    2  A    between atoms: C_9  and  N_7 
REMARK    3  A    between atoms: C_8  and  C_9 
REMARK    4  A    between atoms: O_13  and  C_11 
ROOT
ATOM      1  C   UNL d   1      13.870  11.994  -2.537  0.00  0.00     0.299 C 
ATOM      2  N   UNL d   1      13.123  12.123  -2.876  0.00  0.00    -0.205 NA
ATOM      3  O   UNL d   1      14.507  11.779  -3.012  0.00  0.00    -0.263 OA
ENDROOT
BRANCH   1   4
ATOM      4  C   UNL d   1      13.973  12.083  -1.719  0.00  0.00     0.162 A 
ATOM      5  N   UNL d   1      13.477  11.779  -1.137  0.00  0.00    -0.143 NA
ATOM      6  N   UNL d   1      13.783  11.997  -0.390  0.00  0.00    -0.148 NA
ATOM      7  C   UNL d   1      14.479  12.441  -0.531  0.00  0.00     0.105 A 
ATOM      8  C   UNL d   1      14.593  12.493  -1.351  0.00  0.00     0.044 A 
ATOM      9  C   UNL d   1      15.007  12.796  -0.015  0.00  0.00     0.021 A 
ATOM     10  C   UNL d   1      15.246  12.905  -1.643  0.00  0.00     0.003 A 
ATOM     11  C   UNL d   1      15.771  13.258  -1.130  0.00  0.00     0.000 A 
ATOM     12  C   UNL d   1      15.655  13.205  -0.319  0.00  0.00     0.002 A 
ENDBRANCH   1   4
BRANCH   2  13
ATOM     13  C   UNL d   1      13.022  12.034  -3.692  0.00  0.00     0.104 C 
BRANCH  13  14
ATOM     14  C   UNL d   1      13.028  12.686  -4.194  0.00  0.00     0.042 A 
ATOM     15  C   UNL d   1      13.288  12.608  -4.978  0.00  0.00     0.096 A 
ATOM     16  C   UNL d   1      13.290  13.260  -5.467  0.00  0.00     0.024 A 
ATOM     17  C   UNL d   1      13.036  13.994  -5.188  0.00  0.00     0.002 A 
ATOM     18  C   UNL d   1      12.777  14.083  -4.418  0.00  0.00     0.000 A 
ATOM     19  C   UNL d   1      12.771  13.425  -3.910  0.00  0.00     0.004 A 
BRANCH  15  20
ATOM     20  O   UNL d   1      13.545  11.876  -5.268  0.00  0.00    -0.328 OA
ATOM     21  C   UNL d   1      13.817  11.792  -6.037  0.00  0.00     0.181 C 
ENDBRANCH  15  20
ENDBRANCH  13  14
ENDBRANCH   2  13
TORSDOF 4
ENDMDL
MODEL 2
REMARK VINA RESULT:      22.9      1.211      4.257
REMARK  4 active torsions:
REMARK  status: ('A' for Active; 'I' for Inactive)
REMARK    1  A    between atoms: C_5  and  C_1 
REMARK       I    between atoms: N_7  and  C_5 
REMARK    2  A    between atoms: C_9  and  N_7 
REMARK    3  A    between atoms: C_8  and  C_9 
REMARK    4  A    between atoms: O_13  and  C_11 
ROOT
ATOM      1  C   UNL d   1      13.346  12.272  -2.710  0.00  0.00     0.299 C 
ATOM      2  N   UNL d   1      13.890  12.658  -2.216  0.00  0.00    -0.205 NA
ATOM      3  O   UNL d   1      12.770  11.782  -2.386  0.00  0.00    -0.263 OA
ENDROOT
BRANCH   1   4
ATOM      4  C   UNL d   1      13.386  12.380  -3.532  0.00  0.00     0.162 A 
ATOM      5  N   UNL d   1      13.483  11.784  -4.091  0.00  0.00    -0.143 NA
ATOM      6  N   UNL d   1      13.493  12.133  -4.850  0.00  0.00    -0.148 NA
ATOM      7  C   UNL d   1      13.401  12.959  -4.741  0.00  0.00     0.105 A 
ATOM      8  C   UNL d   1      13.335  13.107  -3.927  0.00  0.00     0.044 A 
ATOM      9  C   UNL d   1      13.370  13.575  -5.279  0.00  0.00     0.021 A 
ATOM     10  C   UNL d   1      13.238  13.884  -3.665  0.00  0.00     0.003 A 
ATOM     11  C   UNL d   1      13.207  14.497  -4.200  0.00  0.00     0.000 A 
ATOM     12  C   UNL d   1      13.273  14.346  -5.004  0.00  0.00     0.002 A 
ENDBRANCH   1   4
BRANCH   2  13
ATOM     13  C   UNL d   1      13.849  12.549  -1.397  0.00  0.00     0.104 C 
BRANCH  13  14
ATOM     14  C   UNL d   1      14.532  12.515  -0.939  0.00  0.00     0.042 A 
ATOM     15  C   UNL d   1      14.775  13.177  -0.501  0.00  0.00     0.096 A 
ATOM     16  C   UNL d   1      15.452  13.133  -0.051  0.00  0.00     0.024 A 
ATOM     17  C   UNL d   1      15.896  12.438  -0.026  0.00  0.00     0.002 A 
ATOM     18  C   UNL d   1      15.666  11.779  -0.453  0.00  0.00     0.000 A 
ATOM     19  C   UNL d   1      14.977  11.812  -0.916  0.00  0.00     0.004 A 
BRANCH  15  20
ATOM     20  O   UNL d   1      14.337  13.880  -0.519  0.00  0.00    -0.328 OA
ATOM     21  C   UNL d   1      14.620  14.568  -0.173  0.00  0.00     0.181 C 
ENDBRANCH  15  20
ENDBRANCH  13  14
ENDBRANCH   2  13
TORSDOF 4
ENDMDL
