MODEL 1
REMARK VINA RESULT:      13.4      0.000      0.000
REMARK  5 active torsions:
REMARK  status: ('A' for Active; 'I' for Inactive)
REMARK    1  A    between atoms: N_2  and  C_1 
REMARK    2  A    between atoms: N_3  and  C_1 
REMARK       I    between atoms: C_6  and  N_3 
REMARK    3  A    between atoms: C_12  and  C_6 
REMARK    4  A    between atoms: O_11  and  C_12 
REMARK    5  A    between atoms: C_13  and  O_11 
ROOT
ATOM      1  C   UNL d   1      46.052 -17.057  44.119  0.00  0.00     0.209 C 
ATOM      2  S   UNL d   1      46.600 -16.515  43.845  0.00  0.00    -0.038 SA
ENDROOT
BRANCH   1   3
ATOM      3  N   UNL d   1      46.245 -17.863  44.114  0.00  0.00    -0.282 N 
ATOM      4  C   UNL d   1      46.333 -18.340  43.453  0.00  0.00     0.066 A 
ATOM      5  C   UNL d   1      46.525 -19.099  43.702  0.00  0.00     0.018 A 
ATOM      6  C   UNL d   1      46.262 -18.174  42.646  0.00  0.00     0.018 A 
ATOM      7  C   UNL d   1      46.646 -19.696  43.147  0.00  0.00     0.002 A 
ATOM      8  C   UNL d   1      46.556 -19.093  44.519  0.00  0.00     0.021 A 
ATOM      9  C   UNL d   1      46.576 -19.538  42.329  0.00  0.00     0.000 A 
ATOM     10  C   UNL d   1      46.384 -18.779  42.079  0.00  0.00     0.002 A 
ATOM     11  C   UNL d   1      46.383 -18.329  44.778  0.00  0.00     0.082 A 
ENDBRANCH   1   3
BRANCH   1  12
ATOM     12  N   UNL d   1      45.324 -16.808  44.394  0.00  0.00    -0.178 NA
ATOM     13  C   UNL d   1      45.198 -16.009  44.571  0.00  0.00     0.306 C 
ATOM     14  O   UNL d   1      44.462 -15.762  44.848  0.00  0.00    -0.263 OA
BRANCH  13  15
ATOM     15  C   UNL d   1      45.802 -15.470  44.471  0.00  0.00     0.185 C 
BRANCH  15  16
ATOM     16  O   UNL d   1      45.826 -14.791  44.939  0.00  0.00    -0.300 OA
BRANCH  16  17
ATOM     17  C   UNL d   1      45.746 -14.046  44.582  0.00  0.00     0.100 A 
ATOM     18  C   UNL d   1      46.074 -13.388  44.940  0.00  0.00     0.025 A 
ATOM     19  C   UNL d   1      45.997 -12.645  44.589  0.00  0.00     0.002 A 
ATOM     20  C   UNL d   1      45.588 -12.568  43.874  0.00  0.00     0.000 A 
ATOM     21  C   UNL d   1      45.259 -13.232  43.516  0.00  0.00     0.002 A 
ATOM     22  C   UNL d   1      45.336 -13.975  43.867  0.00  0.00     0.025 A 
ENDBRANCH  16  17
ENDBRANCH  15  16
ENDBRANCH  13  15
ENDBRANCH   1  12
TORSDOF 5
ENDMDL
