MODEL 1
REMARK VINA RESULT:      -3.7      0.000      0.000
REMARK  4 active torsions:
REMARK  status: ('A' for Active; 'I' for Inactive)
REMARK    1  A    between atoms: S_11  and  C_4 
REMARK       I    between atoms: N_8  and  C_10 
REMARK    2  A    between atoms: C_20  and  N_9 
REMARK    3  A    between atoms: C_10  and  C_15 
REMARK    4  A    between atoms: C_15  and  S_11 
ROOT
ATOM      1  N   UNL d   1      33.005  20.126 -22.853  0.00  0.00    -0.269 N 
ATOM      2  N   UNL d   1      33.004  21.287 -21.688  0.00  0.00    -0.301 N 
ATOM      3  C   UNL d   1      33.006  19.544 -23.438  0.00  0.00     0.272 C 
ATOM      4  C   UNL d   1      32.770  19.938 -22.085  0.00  0.00     0.102 A 
ATOM      5  C   UNL d   1      33.240  20.895 -23.038  0.00  0.00     0.102 A 
ATOM      6  C   UNL d   1      33.239  21.475 -22.457  0.00  0.00     0.100 A 
ATOM      7  C   UNL d   1      32.769  20.518 -21.503  0.00  0.00     0.100 A 
ATOM      8  O   UNL d   1      33.241  19.731 -24.207  0.00  0.00    -0.266 OA
ENDROOT
BRANCH   3   9
ATOM      9  C   UNL d   1      32.771  18.774 -23.254  0.00  0.00     0.099 C 
BRANCH   9  10
ATOM     10  S   UNL d   1      32.792  18.186 -23.834  0.00  0.00    -0.044 SA
BRANCH  10  11
ATOM     11  C   UNL d   1      32.212  17.588 -23.835  0.00  0.00     0.182 A 
ATOM     12  N   UNL d   1      31.438  17.760 -24.090  0.00  0.00    -0.222 NA
ATOM     13  C   UNL d   1      30.872  17.175 -24.091  0.00  0.00     0.095 A 
ATOM     14  C   UNL d   1      31.059  16.411 -23.840  0.00  0.00     0.104 A 
ATOM     15  C   UNL d   1      30.077  17.186 -24.310  0.00  0.00     0.026 A 
ATOM     16  C   UNL d   1      31.812  16.233 -23.589  0.00  0.00     0.274 A 
ATOM     17  S   UNL d   1      30.380  15.951 -23.904  0.00  0.00    -0.081 SA
ATOM     18  N   UNL d   1      32.399  16.824 -23.584  0.00  0.00    -0.251 N 
ATOM     19  O   UNL d   1      31.999  15.470 -23.338  0.00  0.00    -0.266 OA
ATOM     20  C   UNL d   1      33.170  16.647 -23.328  0.00  0.00     0.104 C 
ATOM     21  C   UNL d   1      29.774  16.436 -24.196  0.00  0.00     0.031 A 
ATOM     22  C   UNL d   1      28.995  16.210 -24.348  0.00  0.00     0.007 C 
ENDBRANCH  10  11
ENDBRANCH   9  10
ENDBRANCH   3   9
BRANCH   2  23
ATOM     23  C   UNL d   1      33.003  21.870 -21.104  0.00  0.00     0.064 A 
ATOM     24  C   UNL d   1      32.782  22.643 -21.291  0.00  0.00     0.018 A 
ATOM     25  C   UNL d   1      32.781  23.225 -20.707  0.00  0.00     0.002 A 
ATOM     26  C   UNL d   1      33.002  23.034 -19.935  0.00  0.00     0.000 A 
ATOM     27  C   UNL d   1      33.224  22.262 -19.747  0.00  0.00     0.002 A 
ATOM     28  C   UNL d   1      33.225  21.680 -20.331  0.00  0.00     0.018 A 
ENDBRANCH   2  23
TORSDOF 4
ENDMDL
MODEL 2
REMARK VINA RESULT:      -2.8      1.243      5.890
REMARK  4 active torsions:
REMARK  status: ('A' for Active; 'I' for Inactive)
REMARK    1  A    between atoms: S_11  and  C_4 
REMARK       I    between atoms: N_8  and  C_10 
REMARK    2  A    between atoms: C_20  and  N_9 
REMARK    3  A    between atoms: C_10  and  C_15 
REMARK    4  A    between atoms: C_15  and  S_11 
ROOT
ATOM      1  N   UNL d   1      31.623  17.418 -23.693  0.00  0.00    -0.269 N 
ATOM      2  N   UNL d   1      30.210  16.634 -24.004  0.00  0.00    -0.301 N 
ATOM      3  C   UNL d   1      32.331  17.811 -23.537  0.00  0.00     0.272 C 
ATOM      4  C   UNL d   1      30.910  17.833 -23.683  0.00  0.00     0.102 A 
ATOM      5  C   UNL d   1      31.628  16.609 -23.859  0.00  0.00     0.102 A 
ATOM      6  C   UNL d   1      30.923  16.218 -24.015  0.00  0.00     0.100 A 
ATOM      7  C   UNL d   1      30.205  17.442 -23.838  0.00  0.00     0.100 A 
ATOM      8  O   UNL d   1      33.045  17.396 -23.547  0.00  0.00    -0.266 OA
ENDROOT
BRANCH   3   9
ATOM      9  C   UNL d   1      32.326  18.620 -23.370  0.00  0.00     0.099 C 
BRANCH   9  10
ATOM     10  S   UNL d   1      33.039  19.023 -23.263  0.00  0.00    -0.044 SA
BRANCH  10  11
ATOM     11  C   UNL d   1      33.035  19.777 -22.907  0.00  0.00     0.182 A 
ATOM     12  N   UNL d   1      32.930  19.846 -22.083  0.00  0.00    -0.222 NA
ATOM     13  C   UNL d   1      32.927  20.583 -21.736  0.00  0.00     0.095 A 
ATOM     14  C   UNL d   1      33.028  21.262 -22.194  0.00  0.00     0.104 A 
ATOM     15  C   UNL d   1      32.837  20.814 -20.950  0.00  0.00     0.026 A 
ATOM     16  C   UNL d   1      33.131  21.204 -22.999  0.00  0.00     0.274 A 
ATOM     17  S   UNL d   1      32.999  21.912 -21.690  0.00  0.00    -0.081 SA
ATOM     18  N   UNL d   1      33.136  20.456 -23.365  0.00  0.00    -0.251 N 
ATOM     19  O   UNL d   1      33.231  21.883 -23.457  0.00  0.00    -0.266 OA
ATOM     20  C   UNL d   1      33.241  20.393 -24.187  0.00  0.00     0.104 C 
ATOM     21  C   UNL d   1      32.880  21.629 -20.920  0.00  0.00     0.031 A 
ATOM     22  C   UNL d   1      32.816  22.084 -20.235  0.00  0.00     0.007 C 
ENDBRANCH  10  11
ENDBRANCH   9  10
ENDBRANCH   3   9
BRANCH   2  23
ATOM     23  C   UNL d   1      29.502  16.240 -24.161  0.00  0.00     0.064 A 
ATOM     24  C   UNL d   1      29.046  15.947 -23.538  0.00  0.00     0.018 A 
ATOM     25  C   UNL d   1      28.338  15.554 -23.694  0.00  0.00     0.002 A 
ATOM     26  C   UNL d   1      28.086  15.454 -24.473  0.00  0.00     0.000 A 
ATOM     27  C   UNL d   1      28.541  15.746 -25.096  0.00  0.00     0.002 A 
ATOM     28  C   UNL d   1      29.249  16.139 -24.940  0.00  0.00     0.018 A 
ENDBRANCH   2  23
TORSDOF 4
ENDMDL
MODEL 3
REMARK VINA RESULT:      -2.6      1.798      5.826
REMARK  4 active torsions:
REMARK  status: ('A' for Active; 'I' for Inactive)
REMARK    1  A    between atoms: S_11  and  C_4 
REMARK       I    between atoms: N_8  and  C_10 
REMARK    2  A    between atoms: C_20  and  N_9 
REMARK    3  A    between atoms: C_10  and  C_15 
REMARK    4  A    between atoms: C_15  and  S_11 
ROOT
ATOM      1  N   UNL d   1      32.667  19.154 -24.200  0.00  0.00    -0.269 N 
ATOM      2  N   UNL d   1      31.958  17.679 -24.036  0.00  0.00    -0.301 N 
ATOM      3  C   UNL d   1      33.023  19.894 -24.282  0.00  0.00     0.272 C 
ATOM      4  C   UNL d   1      32.529  18.844 -23.447  0.00  0.00     0.102 A 
ATOM      5  C   UNL d   1      32.449  18.725 -24.870  0.00  0.00     0.102 A 
ATOM      6  C   UNL d   1      32.095  17.988 -24.788  0.00  0.00     0.100 A 
ATOM      7  C   UNL d   1      32.175  18.108 -23.366  0.00  0.00     0.100 A 
ATOM      8  O   UNL d   1      33.161  20.204 -25.034  0.00  0.00    -0.266 OA
ENDROOT
BRANCH   3   9
ATOM      9  C   UNL d   1      33.241  20.324 -23.612  0.00  0.00     0.099 C 
BRANCH   9  10
ATOM     10  S   UNL d   1      33.238  21.149 -23.632  0.00  0.00    -0.044 SA
BRANCH  10  11
ATOM     11  C   UNL d   1      33.236  21.579 -22.917  0.00  0.00     0.182 A 
ATOM     12  N   UNL d   1      33.240  21.173 -22.189  0.00  0.00    -0.222 NA
ATOM     13  C   UNL d   1      33.238  21.593 -21.491  0.00  0.00     0.095 A 
ATOM     14  C   UNL d   1      33.233  22.418 -21.500  0.00  0.00     0.104 A 
ATOM     15  C   UNL d   1      33.240  21.344 -20.706  0.00  0.00     0.026 A 
ATOM     16  C   UNL d   1      33.230  22.823 -22.206  0.00  0.00     0.274 A 
ATOM     17  S   UNL d   1      33.232  22.678 -20.720  0.00  0.00    -0.081 SA
ATOM     18  N   UNL d   1      33.231  22.403 -22.926  0.00  0.00    -0.251 N 
ATOM     19  O   UNL d   1      33.224  23.648 -22.215  0.00  0.00    -0.266 OA
ATOM     20  C   UNL d   1      33.228  22.813 -23.649  0.00  0.00     0.104 C 
ATOM     21  C   UNL d   1      33.237  22.009 -20.231  0.00  0.00     0.031 A 
ATOM     22  C   UNL d   1      33.238  22.004 -19.406  0.00  0.00     0.007 C 
ENDBRANCH  10  11
ENDBRANCH   9  10
ENDBRANCH   3   9
BRANCH   2  23
ATOM     23  C   UNL d   1      31.602  16.939 -23.954  0.00  0.00     0.064 A 
ATOM     24  C   UNL d   1      32.067  16.268 -23.833  0.00  0.00     0.018 A 
ATOM     25  C   UNL d   1      31.711  15.528 -23.751  0.00  0.00     0.002 A 
ATOM     26  C   UNL d   1      30.890  15.459 -23.790  0.00  0.00     0.000 A 
ATOM     27  C   UNL d   1      30.424  16.130 -23.911  0.00  0.00     0.002 A 
ATOM     28  C   UNL d   1      30.780  16.869 -23.993  0.00  0.00     0.018 A 
ENDBRANCH   2  23
TORSDOF 4
ENDMDL
