MODEL 1
REMARK VINA RESULT:      24.8      0.000      0.000
REMARK  4 active torsions:
REMARK  status: ('A' for Active; 'I' for Inactive)
REMARK    1  A    between atoms: C_2  and  C_1 
REMARK    2  A    between atoms: C_6  and  C_2 
REMARK    3  A    between atoms: C_9  and  C_6 
REMARK    4  A    between atoms: O_18  and  C_12 
ROOT
ATOM      1  C   UNL d   1     -56.947 -98.784 -43.957  0.00  0.00     0.199 C 
ATOM      2  O   UNL d   1     -57.084 -98.757 -43.182  0.00  0.00    -0.286 OA
ENDROOT
BRANCH   1   3
ATOM      3  C   UNL d   1     -57.699 -98.776 -44.465  0.00  0.00     0.078 A 
ATOM      4  C   UNL d   1     -58.419 -98.779 -44.062  0.00  0.00     0.202 A 
ATOM      5  C   UNL d   1     -59.161 -98.772 -44.534  0.00  0.00     0.084 A 
ATOM      6  O   UNL d   1     -58.442 -98.788 -43.240  0.00  0.00    -0.286 OA
ATOM      7  C   UNL d   1     -59.123 -98.762 -45.378  0.00  0.00     0.199 A 
ATOM      8  C   UNL d   1     -58.395 -98.760 -45.748  0.00  0.00     0.042 A 
ATOM      9  O   UNL d   1     -59.854 -98.756 -45.823  0.00  0.00    -0.286 OA
ATOM     10  C   UNL d   1     -57.662 -98.767 -45.289  0.00  0.00     0.010 A 
ENDBRANCH   1   3
BRANCH   1  11
ATOM     11  C   UNL d   1     -56.298 -98.812 -44.275  0.00  0.00     0.042 C 
BRANCH  11  12
ATOM     12  C   UNL d   1     -55.915 -99.518 -44.320  0.00  0.00     0.003 A 
ATOM     13  C   UNL d   1     -55.123 -99.558 -44.198  0.00  0.00     0.002 A 
ATOM     14  C   UNL d   1     -54.718-100.297 -44.244  0.00  0.00     0.024 A 
ATOM     15  C   UNL d   1     -55.119-100.992 -44.414  0.00  0.00     0.094 A 
ATOM     16  C   UNL d   1     -55.919-100.957 -44.539  0.00  0.00     0.024 A 
ATOM     17  C   UNL d   1     -56.328-100.246 -44.497  0.00  0.00     0.002 A 
BRANCH  15  18
ATOM     18  O   UNL d   1     -54.712-101.741 -44.462  0.00  0.00    -0.328 OA
ATOM     19  C   UNL d   1     -54.924-102.298 -45.028  0.00  0.00     0.181 C 
ENDBRANCH  15  18
ENDBRANCH  11  12
ENDBRANCH   1  11
TORSDOF 4
ENDMDL
MODEL 2
REMARK VINA RESULT:      25.8      0.897      1.614
REMARK  4 active torsions:
REMARK  status: ('A' for Active; 'I' for Inactive)
REMARK    1  A    between atoms: C_2  and  C_1 
REMARK    2  A    between atoms: C_6  and  C_2 
REMARK    3  A    between atoms: C_9  and  C_6 
REMARK    4  A    between atoms: O_18  and  C_12 
ROOT
ATOM      1  C   UNL d   1     -57.320 -98.821 -45.031  0.00  0.00     0.199 C 
ATOM      2  O   UNL d   1     -57.622 -98.911 -45.753  0.00  0.00    -0.286 OA
ENDROOT
BRANCH   1   3
ATOM      3  C   UNL d   1     -57.941 -98.804 -44.371  0.00  0.00     0.078 A 
ATOM      4  C   UNL d   1     -58.732 -98.797 -44.606  0.00  0.00     0.202 A 
ATOM      5  C   UNL d   1     -59.352 -98.780 -43.981  0.00  0.00     0.084 A 
ATOM      6  O   UNL d   1     -58.935 -98.805 -45.403  0.00  0.00    -0.286 OA
ATOM      7  C   UNL d   1     -59.129 -98.772 -43.166  0.00  0.00     0.199 A 
ATOM      8  C   UNL d   1     -58.338 -98.780 -42.966  0.00  0.00     0.042 A 
ATOM      9  O   UNL d   1     -59.744 -98.756 -42.572  0.00  0.00    -0.286 OA
ATOM     10  C   UNL d   1     -57.724 -98.797 -43.575  0.00  0.00     0.010 A 
ENDBRANCH   1   3
BRANCH   1  11
ATOM     11  C   UNL d   1     -56.619 -98.755 -44.868  0.00  0.00     0.042 C 
BRANCH  11  12
ATOM     12  C   UNL d   1     -56.189 -99.417 -44.712  0.00  0.00     0.003 A 
ATOM     13  C   UNL d   1     -56.498-100.144 -44.852  0.00  0.00     0.002 A 
ATOM     14  C   UNL d   1     -56.049-100.840 -44.689  0.00  0.00     0.024 A 
ATOM     15  C   UNL d   1     -55.288-100.795 -44.385  0.00  0.00     0.094 A 
ATOM     16  C   UNL d   1     -54.972-100.062 -44.242  0.00  0.00     0.024 A 
ATOM     17  C   UNL d   1     -55.395 -99.376 -44.395  0.00  0.00     0.002 A 
BRANCH  15  18
ATOM     18  O   UNL d   1     -54.832-101.497 -44.219  0.00  0.00    -0.328 OA
ATOM     19  C   UNL d   1     -54.758-102.092 -44.781  0.00  0.00     0.181 C 
ENDBRANCH  15  18
ENDBRANCH  11  12
ENDBRANCH   1  11
TORSDOF 4
ENDMDL
