MODEL 1
REMARK VINA RESULT:      51.1      0.000      0.000
REMARK  10 active torsions:
REMARK  status: ('A' for Active; 'I' for Inactive)
REMARK    1  A    between atoms: C_5  and  C_1 
REMARK    2  A    between atoms: N_6  and  C_2 
REMARK    3  A    between atoms: C_7  and  C_5 
REMARK    4  A    between atoms: C_8  and  C_5 
REMARK    5  A    between atoms: O_18  and  C_7 
REMARK    6  A    between atoms: C_22  and  O_18 
REMARK    7  A    between atoms: C_23  and  C_22 
REMARK    8  A    between atoms: C_26  and  C_23 
REMARK    9  A    between atoms: C_24  and  C_25 
REMARK   10  A    between atoms: C_25  and  C_26 
ROOT
ATOM      1  C   UNL d   1      45.866 -17.560  42.469  0.00  0.00     0.122 A 
ATOM      2  C   UNL d   1      46.232 -18.295  42.369  0.00  0.00     0.166 A 
ATOM      3  N   UNL d   1      46.489 -18.515  41.617  0.00  0.00    -0.225 NA
ATOM      4  N   UNL d   1      45.759 -17.051  41.825  0.00  0.00    -0.241 NA
ATOM      5  C   UNL d   1      46.386 -18.017  40.975  0.00  0.00     0.101 A 
ATOM      6  C   UNL d   1      46.018 -17.279  41.079  0.00  0.00     0.099 A 
ATOM      7  C   UNL d   1      45.914 -16.778  40.437  0.00  0.00     0.021 A 
ATOM      8  C   UNL d   1      46.647 -18.244  40.221  0.00  0.00     0.021 A 
ATOM      9  C   UNL d   1      46.539 -17.735  39.576  0.00  0.00     0.002 A 
ATOM     10  C   UNL d   1      46.174 -17.005  39.684  0.00  0.00     0.002 A 
ENDROOT
BRANCH   1  11
ATOM     11  C   UNL d   1      45.600 -17.322  43.225  0.00  0.00     0.105 C 
BRANCH  11  12
ATOM     12  C   UNL d   1      45.529 -16.524  43.415  0.00  0.00     0.303 C 
ATOM     13  O   UNL d   1      44.805 -16.139  43.306  0.00  0.00    -0.259 OA
BRANCH  12  14
ATOM     14  O   UNL d   1      46.177 -16.113  43.711  0.00  0.00    -0.271 OA
BRANCH  14  15
ATOM     15  C   UNL d   1      46.065 -15.576  44.335  0.00  0.00     0.126 C 
BRANCH  15  16
ATOM     16  C   UNL d   1      46.487 -14.871  44.344  0.00  0.00     0.027 C 
BRANCH  16  17
ATOM     17  C   UNL d   1      46.140 -14.184  44.053  0.00  0.00     0.002 C 
BRANCH  17  18
ATOM     18  C   UNL d   1      45.773 -13.663  44.571  0.00  0.00     0.000 C 
BRANCH  18  19
ATOM     19  C   UNL d   1      45.333 -13.029  44.278  0.00  0.00     0.000 C 
ATOM     20  C   UNL d   1      45.719 -12.379  43.968  0.00  0.00     0.000 C 
ENDBRANCH  18  19
ENDBRANCH  17  18
ENDBRANCH  16  17
ENDBRANCH  15  16
ENDBRANCH  14  15
ENDBRANCH  12  14
ENDBRANCH  11  12
BRANCH  11  21
ATOM     21  C   UNL d   1      45.402 -17.904  43.797  0.00  0.00     0.129 C 
ATOM     22  N   UNL d   1      44.740 -17.761  44.468  0.00  0.00    -0.146 N 
ENDBRANCH  11  21
ENDBRANCH   1  11
BRANCH   2  23
ATOM     23  N   UNL d   1      46.336 -18.797  43.016  0.00  0.00    -0.285 N 
ATOM     24  C   UNL d   1      46.253 -19.617  42.915  0.00  0.00     0.101 A 
ATOM     25  C   UNL d   1      46.354 -20.127  43.552  0.00  0.00     0.100 A 
ATOM     26  N   UNL d   1      46.540 -19.816  44.298  0.00  0.00    -0.299 N 
ATOM     27  C   UNL d   1      46.623 -18.997  44.399  0.00  0.00     0.100 A 
ATOM     28  C   UNL d   1      46.645 -20.329  44.952  0.00  0.00     0.100 C 
ATOM     29  C   UNL d   1      46.520 -18.486  43.754  0.00  0.00     0.101 A 
ENDBRANCH   2  23
TORSDOF 10
ENDMDL
MODEL 2
REMARK VINA RESULT:      53.5      1.389      4.348
REMARK  10 active torsions:
REMARK  status: ('A' for Active; 'I' for Inactive)
REMARK    1  A    between atoms: C_5  and  C_1 
REMARK    2  A    between atoms: N_6  and  C_2 
REMARK    3  A    between atoms: C_7  and  C_5 
REMARK    4  A    between atoms: C_8  and  C_5 
REMARK    5  A    between atoms: O_18  and  C_7 
REMARK    6  A    between atoms: C_22  and  O_18 
REMARK    7  A    between atoms: C_23  and  C_22 
REMARK    8  A    between atoms: C_26  and  C_23 
REMARK    9  A    between atoms: C_24  and  C_25 
REMARK   10  A    between atoms: C_25  and  C_26 
ROOT
ATOM      1  C   UNL d   1      46.207 -17.666  43.067  0.00  0.00     0.122 A 
ATOM      2  C   UNL d   1      46.083 -17.406  43.842  0.00  0.00     0.166 A 
ATOM      3  N   UNL d   1      46.132 -17.951  44.459  0.00  0.00    -0.225 NA
ATOM      4  N   UNL d   1      46.378 -18.461  42.911  0.00  0.00    -0.241 NA
ATOM      5  C   UNL d   1      46.301 -18.739  44.313  0.00  0.00     0.101 A 
ATOM      6  C   UNL d   1      46.425 -18.997  43.533  0.00  0.00     0.099 A 
ATOM      7  C   UNL d   1      46.595 -19.786  43.383  0.00  0.00     0.021 A 
ATOM      8  C   UNL d   1      46.350 -19.282  44.938  0.00  0.00     0.021 A 
ATOM      9  C   UNL d   1      46.521 -20.078  44.781  0.00  0.00     0.002 A 
ATOM     10  C   UNL d   1      46.644 -20.328  44.007  0.00  0.00     0.002 A 
ENDROOT
BRANCH   1  11
ATOM     11  C   UNL d   1      46.160 -17.127  42.430  0.00  0.00     0.105 C 
BRANCH  11  12
ATOM     12  C   UNL d   1      45.658 -17.269  41.794  0.00  0.00     0.303 C 
ATOM     13  O   UNL d   1      44.840 -17.191  41.890  0.00  0.00    -0.259 OA
BRANCH  12  14
ATOM     14  O   UNL d   1      45.970 -17.486  41.064  0.00  0.00    -0.271 OA
BRANCH  14  15
ATOM     15  C   UNL d   1      45.454 -17.724  40.458  0.00  0.00     0.126 C 
BRANCH  15  16
ATOM     16  C   UNL d   1      45.565 -17.435  39.696  0.00  0.00     0.027 C 
BRANCH  16  17
ATOM     17  C   UNL d   1      44.911 -17.252  39.231  0.00  0.00     0.002 C 
BRANCH  17  18
ATOM     18  C   UNL d   1      44.998 -16.750  38.586  0.00  0.00     0.000 C 
BRANCH  18  19
ATOM     19  C   UNL d   1      44.551 -16.872  37.903  0.00  0.00     0.000 C 
ATOM     20  C   UNL d   1      44.514 -16.285  37.335  0.00  0.00     0.000 C 
ENDBRANCH  18  19
ENDBRANCH  17  18
ENDBRANCH  16  17
ENDBRANCH  15  16
ENDBRANCH  14  15
ENDBRANCH  12  14
ENDBRANCH  11  12
BRANCH  11  21
ATOM     21  C   UNL d   1      46.632 -16.432  42.440  0.00  0.00     0.129 C 
ATOM     22  N   UNL d   1      46.635 -15.804  41.724  0.00  0.00    -0.146 N 
ENDBRANCH  11  21
ENDBRANCH   1  11
BRANCH   2  23
ATOM     23  N   UNL d   1      45.912 -16.613  43.991  0.00  0.00    -0.285 N 
ATOM     24  C   UNL d   1      45.123 -16.375  44.087  0.00  0.00     0.101 A 
ATOM     25  C   UNL d   1      44.941 -15.587  44.235  0.00  0.00     0.100 A 
ATOM     26  N   UNL d   1      45.553 -15.029  44.289  0.00  0.00    -0.299 N 
ATOM     27  C   UNL d   1      46.342 -15.267  44.192  0.00  0.00     0.100 A 
ATOM     28  C   UNL d   1      45.376 -14.225  44.439  0.00  0.00     0.100 C 
ATOM     29  C   UNL d   1      46.521 -16.063  44.043  0.00  0.00     0.101 A 
ENDBRANCH   2  23
TORSDOF 10
ENDMDL
