MODEL 1
REMARK VINA RESULT:      -3.7      0.000      0.000
REMARK  5 active torsions:
REMARK  status: ('A' for Active; 'I' for Inactive)
REMARK    1  A    between atoms: C_4  and  S_1 
REMARK    2  A    between atoms: N_5  and  S_1 
REMARK    3  A    between atoms: C_2  and  C_9 
REMARK       I    between atoms: N_3  and  C_2 
REMARK    4  A    between atoms: C_14  and  N_5 
REMARK    5  A    between atoms: C_15  and  C_14 
ROOT
ATOM      1  C   UNL d   1      32.705  17.797 -23.775  0.00  0.00     0.057 A 
ATOM      2  C   UNL d   1      32.751  18.509 -24.195  0.00  0.00     0.005 A 
ATOM      3  C   UNL d   1      32.814  17.791 -22.958  0.00  0.00     0.005 A 
ATOM      4  C   UNL d   1      33.017  19.208 -22.977  0.00  0.00     0.020 A 
ATOM      5  C   UNL d   1      32.908  19.215 -23.793  0.00  0.00     0.002 A 
ATOM      6  C   UNL d   1      32.972  18.502 -22.557  0.00  0.00     0.002 A 
ENDROOT
BRANCH   4   7
ATOM      7  C   UNL d   1      33.175  19.914 -22.570  0.00  0.00     0.112 C 
BRANCH   7   8
ATOM      8  N   UNL d   1      32.621  20.198 -22.027  0.00  0.00    -0.157 NA
BRANCH   8   9
ATOM      9  S   UNL d   1      32.718  20.960 -21.696  0.00  0.00     0.285 S 
ATOM     10  O   UNL d   1      33.220  21.167 -22.326  0.00  0.00    -0.198 OA
ATOM     11  O   UNL d   1      32.217  20.749 -21.068  0.00  0.00    -0.198 OA
BRANCH   9  12
ATOM     12  C   UNL d   1      32.816  21.718 -21.368  0.00  0.00     0.106 A 
ATOM     13  C   UNL d   1      32.883  21.803 -20.549  0.00  0.00     0.024 A 
ATOM     14  C   UNL d   1      32.981  22.553 -20.217  0.00  0.00     0.059 A 
ATOM     15 CL   UNL d   1      33.049  22.644 -19.397  0.00  0.00    -0.082 Cl
ATOM     16  C   UNL d   1      33.010  23.215 -20.707  0.00  0.00     0.011 A 
ATOM     17  C   UNL d   1      32.943  23.128 -21.523  0.00  0.00     0.002 A 
ATOM     18  C   UNL d   1      32.846  22.379 -21.850  0.00  0.00     0.013 A 
ENDBRANCH   9  12
ENDBRANCH   8   9
ENDBRANCH   7   8
ENDBRANCH   4   7
BRANCH   1  19
ATOM     19  C   UNL d   1      32.546  17.077 -24.178  0.00  0.00     0.265 C 
ATOM     20  N   UNL d   1      31.762  16.868 -24.352  0.00  0.00    -0.272 N 
ATOM     21  C   UNL d   1      31.142  17.363 -24.132  0.00  0.00     0.083 A 
ATOM     22  C   UNL d   1      31.604  16.160 -24.750  0.00  0.00     0.083 A 
ATOM     23  C   UNL d   1      30.371  17.153 -24.306  0.00  0.00     0.019 A 
ATOM     24  C   UNL d   1      30.217  16.451 -24.699  0.00  0.00     0.003 A 
ATOM     25  C   UNL d   1      30.824  15.950 -24.924  0.00  0.00     0.019 A 
ATOM     26  O   UNL d   1      33.175  16.576 -24.402  0.00  0.00    -0.267 OA
ENDBRANCH   1  19
TORSDOF 5
ENDMDL
MODEL 2
REMARK VINA RESULT:      -1.3      2.121      5.708
REMARK  5 active torsions:
REMARK  status: ('A' for Active; 'I' for Inactive)
REMARK    1  A    between atoms: C_4  and  S_1 
REMARK    2  A    between atoms: N_5  and  S_1 
REMARK    3  A    between atoms: C_2  and  C_9 
REMARK       I    between atoms: N_3  and  C_2 
REMARK    4  A    between atoms: C_14  and  N_5 
REMARK    5  A    between atoms: C_15  and  C_14 
ROOT
ATOM      1  C   UNL d   1      32.901  20.849 -21.372  0.00  0.00     0.057 A 
ATOM      2  C   UNL d   1      32.599  20.126 -21.104  0.00  0.00     0.005 A 
ATOM      3  C   UNL d   1      33.220  20.909 -22.130  0.00  0.00     0.005 A 
ATOM      4  C   UNL d   1      32.940  19.523 -22.355  0.00  0.00     0.020 A 
ATOM      5  C   UNL d   1      32.620  19.463 -21.598  0.00  0.00     0.002 A 
ATOM      6  C   UNL d   1      33.240  20.241 -22.624  0.00  0.00     0.002 A 
ENDROOT
BRANCH   4   7
ATOM      7  C   UNL d   1      32.962  18.861 -22.854  0.00  0.00     0.112 C 
BRANCH   7   8
ATOM      8  N   UNL d   1      32.421  18.806 -23.477  0.00  0.00    -0.157 NA
BRANCH   8   9
ATOM      9  S   UNL d   1      32.205  18.054 -23.773  0.00  0.00     0.285 S 
ATOM     10  O   UNL d   1      32.928  17.743 -23.505  0.00  0.00    -0.198 OA
ATOM     11  O   UNL d   1      31.484  18.369 -24.039  0.00  0.00    -0.198 OA
BRANCH   9  12
ATOM     12  C   UNL d   1      31.991  17.306 -24.067  0.00  0.00     0.106 A 
ATOM     13  C   UNL d   1      31.521  16.806 -23.606  0.00  0.00     0.024 A 
ATOM     14  C   UNL d   1      31.305  16.062 -23.893  0.00  0.00     0.059 A 
ATOM     15 CL   UNL d   1      30.835  15.557 -23.437  0.00  0.00    -0.082 Cl
ATOM     16  C   UNL d   1      31.561  15.823 -24.639  0.00  0.00     0.011 A 
ATOM     17  C   UNL d   1      32.029  16.323 -25.096  0.00  0.00     0.002 A 
ATOM     18  C   UNL d   1      32.242  17.063 -24.807  0.00  0.00     0.013 A 
ENDBRANCH   9  12
ENDBRANCH   8   9
ENDBRANCH   7   8
ENDBRANCH   4   7
BRANCH   1  19
ATOM     19  C   UNL d   1      32.882  21.526 -20.874  0.00  0.00     0.265 C 
ATOM     20  N   UNL d   1      32.631  22.255 -21.181  0.00  0.00    -0.272 N 
ATOM     21  C   UNL d   1      32.401  22.316 -21.969  0.00  0.00     0.083 A 
ATOM     22  C   UNL d   1      32.612  22.922 -20.691  0.00  0.00     0.083 A 
ATOM     23  C   UNL d   1      32.154  23.037 -22.266  0.00  0.00     0.019 A 
ATOM     24  C   UNL d   1      32.136  23.696 -21.780  0.00  0.00     0.003 A 
ATOM     25  C   UNL d   1      32.362  23.649 -20.995  0.00  0.00     0.019 A 
ATOM     26  O   UNL d   1      33.116  21.462 -20.075  0.00  0.00    -0.267 OA
ENDBRANCH   1  19
TORSDOF 5
ENDMDL
