MODEL 1
REMARK VINA RESULT:      68.1      0.000      0.000
REMARK  6 active torsions:
REMARK  status: ('A' for Active; 'I' for Inactive)
REMARK       I    between atoms: C_6  and  N_1 
REMARK    1  A    between atoms: C_7  and  C_3 
REMARK    2  A    between atoms: C_14  and  C_4 
REMARK    3  A    between atoms: C_20  and  C_6 
REMARK    4  A    between atoms: C_11  and  C_22 
REMARK    5  A    between atoms: C_21  and  C_20 
REMARK    6  A    between atoms: C_22  and  C_21 
ROOT
ATOM      1  N   UNL d   1      13.883  14.332  -3.453  0.00  0.00    -0.195 N 
ATOM      2  N   UNL d   1      14.019  15.027  -3.907  0.00  0.00    -0.163 NA
ATOM      3  C   UNL d   1      14.271  14.419  -2.744  0.00  0.00     0.088 A 
ATOM      4  C   UNL d   1      14.497  15.529  -3.453  0.00  0.00     0.103 A 
ATOM      5  C   UNL d   1      14.646  15.134  -2.728  0.00  0.00     0.040 A 
ATOM      6  C   UNL d   1      13.409  13.664  -3.725  0.00  0.00     0.280 C 
ATOM      7  O   UNL d   1      13.055  13.689  -4.482  0.00  0.00    -0.265 OA
ENDROOT
BRANCH   3   8
ATOM      8  C   UNL d   1      14.280  13.859  -2.135  0.00  0.00     0.019 A 
ATOM      9  C   UNL d   1      14.950  13.459  -1.950  0.00  0.00     0.022 A 
ATOM     10  C   UNL d   1      14.959  12.899  -1.340  0.00  0.00     0.099 A 
ATOM     11  N   UNL d   1      15.633  12.518  -1.179  0.00  0.00    -0.241 NA
ATOM     12  C   UNL d   1      14.269  12.746  -0.910  0.00  0.00     0.099 A 
ATOM     13  C   UNL d   1      15.642  11.938  -0.547  0.00  0.00     0.120 A 
ATOM     14  C   UNL d   1      14.976  11.780  -0.121  0.00  0.00     0.120 A 
ATOM     15  N   UNL d   1      14.277  12.206  -0.322  0.00  0.00    -0.241 NA
ATOM     16  C   UNL d   1      13.597  13.166  -1.116  0.00  0.00     0.021 A 
ATOM     17  C   UNL d   1      13.588  13.706  -1.704  0.00  0.00     0.003 A 
ENDBRANCH   3   8
BRANCH   6  18
ATOM     18  C   UNL d   1      13.323  13.026  -3.227  0.00  0.00     0.063 C 
BRANCH  18  19
ATOM     19  C   UNL d   1      12.959  12.333  -3.514  0.00  0.00     0.011 C 
BRANCH  19  20
ATOM     20  C   UNL d   1      12.769  12.305  -4.313  0.00  0.00     0.070 C 
BRANCH  20  21
ATOM     21  C   UNL d   1      13.281  11.984  -4.868  0.00  0.00     0.211 C 
ATOM     22  O   UNL d   1      14.052  11.782  -4.636  0.00  0.00    -0.644 OA
ATOM     23  O   UNL d   1      13.048  11.860  -5.646  0.00  0.00    -0.644 OA
ENDBRANCH  20  21
ENDBRANCH  19  20
ENDBRANCH  18  19
ENDBRANCH   6  18
BRANCH   4  24
ATOM     24  C   UNL d   1      14.775  16.293  -3.688  0.00  0.00     0.019 A 
ATOM     25  C   UNL d   1      14.777  16.898  -3.161  0.00  0.00     0.002 A 
ATOM     26  C   UNL d   1      15.045  17.649  -3.376  0.00  0.00     0.000 A 
ATOM     27  C   UNL d   1      15.311  17.772  -4.138  0.00  0.00     0.000 A 
ATOM     28  C   UNL d   1      15.308  17.148  -4.679  0.00  0.00     0.000 A 
ATOM     29  C   UNL d   1      15.040  16.398  -4.464  0.00  0.00     0.002 A 
ENDBRANCH   4  24
TORSDOF 6
ENDMDL
MODEL 2
REMARK VINA RESULT:      70.9      2.159      4.384
REMARK  6 active torsions:
REMARK  status: ('A' for Active; 'I' for Inactive)
REMARK       I    between atoms: C_6  and  N_1 
REMARK    1  A    between atoms: C_7  and  C_3 
REMARK    2  A    between atoms: C_14  and  C_4 
REMARK    3  A    between atoms: C_20  and  C_6 
REMARK    4  A    between atoms: C_11  and  C_22 
REMARK    5  A    between atoms: C_21  and  C_20 
REMARK    6  A    between atoms: C_22  and  C_21 
ROOT
ATOM      1  N   UNL d   1      14.255  15.253  -4.212  0.00  0.00    -0.195 N 
ATOM      2  N   UNL d   1      13.948  14.579  -4.611  0.00  0.00    -0.163 NA
ATOM      3  C   UNL d   1      14.233  15.101  -3.413  0.00  0.00     0.088 A 
ATOM      4  C   UNL d   1      13.743  14.023  -4.033  0.00  0.00     0.103 A 
ATOM      5  C   UNL d   1      13.927  14.364  -3.289  0.00  0.00     0.040 A 
ATOM      6  C   UNL d   1      14.535  15.964  -4.613  0.00  0.00     0.280 C 
ATOM      7  O   UNL d   1      14.508  16.006  -5.447  0.00  0.00    -0.265 OA
ENDROOT
BRANCH   3   8
ATOM      8  C   UNL d   1      14.485  15.621  -2.822  0.00  0.00     0.019 A 
ATOM      9  C   UNL d   1      14.769  15.348  -2.124  0.00  0.00     0.022 A 
ATOM     10  C   UNL d   1      15.022  15.869  -1.532  0.00  0.00     0.099 A 
ATOM     11  N   UNL d   1      15.298  15.573  -0.852  0.00  0.00    -0.241 NA
ATOM     12  C   UNL d   1      14.983  16.686  -1.657  0.00  0.00     0.099 A 
ATOM     13  C   UNL d   1      15.559  16.112  -0.239  0.00  0.00     0.120 A 
ATOM     14  C   UNL d   1      15.527  16.910  -0.349  0.00  0.00     0.120 A 
ATOM     15  N   UNL d   1      15.227  17.188  -1.086  0.00  0.00    -0.241 NA
ATOM     16  C   UNL d   1      14.690  16.942  -2.377  0.00  0.00     0.021 A 
ATOM     17  C   UNL d   1      14.447  16.440  -2.948  0.00  0.00     0.003 A 
ENDBRANCH   3   8
BRANCH   6  18
ATOM     18  C   UNL d   1      14.819  16.576  -4.156  0.00  0.00     0.063 C 
BRANCH  18  19
ATOM     19  C   UNL d   1      15.222  17.204  -4.526  0.00  0.00     0.011 C 
BRANCH  19  20
ATOM     20  C   UNL d   1      14.788  17.873  -4.727  0.00  0.00     0.070 C 
BRANCH  20  21
ATOM     21  C   UNL d   1      15.143  18.536  -5.054  0.00  0.00     0.211 C 
ATOM     22  O   UNL d   1      15.970  18.561  -5.118  0.00  0.00    -0.644 OA
ATOM     23  O   UNL d   1      14.697  19.174  -5.319  0.00  0.00    -0.644 OA
ENDBRANCH  20  21
ENDBRANCH  19  20
ENDBRANCH  18  19
ENDBRANCH   6  18
BRANCH   4  24
ATOM     24  C   UNL d   1      13.410  13.257  -4.179  0.00  0.00     0.019 A 
ATOM     25  C   UNL d   1      13.305  13.004  -4.933  0.00  0.00     0.002 A 
ATOM     26  C   UNL d   1      12.982  12.261  -5.090  0.00  0.00     0.000 A 
ATOM     27  C   UNL d   1      12.769  11.780  -4.465  0.00  0.00     0.000 A 
ATOM     28  C   UNL d   1      12.879  12.043  -3.690  0.00  0.00     0.000 A 
ATOM     29  C   UNL d   1      13.201  12.786  -3.532  0.00  0.00     0.002 A 
ENDBRANCH   4  24
TORSDOF 6
ENDMDL
