MODEL 1
REMARK VINA RESULT:      73.6      0.000      0.000
REMARK  7 active torsions:
REMARK  status: ('A' for Active; 'I' for Inactive)
REMARK    1  A    between atoms: S_2  and  C_1 
REMARK    2  A    between atoms: N_7  and  S_2 
REMARK    3  A    between atoms: C_8  and  C_3 
REMARK    4  A    between atoms: C_10  and  C_6 
REMARK    5  A    between atoms: O_21  and  C_8 
REMARK    6  A    between atoms: C_17  and  N_9 
REMARK    7  A    between atoms: O_22  and  C_10 
ROOT
ATOM      1  S   UNL d   1     -47.998  29.277  34.640  0.00  0.00     0.277 S 
ATOM      2  O   UNL d   1     -47.653  28.528  34.671  0.00  0.00    -0.199 OA
ATOM      3  O   UNL d   1     -47.238  29.361  34.883  0.00  0.00    -0.199 OA
ENDROOT
BRANCH   1   4
ATOM      4  C   UNL d   1     -47.854  30.088  34.766  0.00  0.00     0.139 A 
ATOM      5  C   UNL d   1     -47.534  30.333  35.466  0.00  0.00     0.082 A 
ATOM      6  C   UNL d   1     -47.457  31.146  35.431  0.00  0.00     0.018 A 
ATOM      7  C   UNL d   1     -47.146  31.670  36.034  0.00  0.00     0.001 C 
ATOM      8  C   UNL d   1     -47.732  31.401  34.704  0.00  0.00     0.093 A 
ATOM      9  S   UNL d   1     -47.985  30.746  34.274  0.00  0.00    -0.069 SA
BRANCH   5  10
ATOM     10  C   UNL d   1     -47.297  29.864  36.159  0.00  0.00     0.297 C 
ATOM     11  O   UNL d   1     -46.601  29.410  36.139  0.00  0.00    -0.259 OA
BRANCH  10  12
ATOM     12  O   UNL d   1     -47.784  29.884  36.833  0.00  0.00    -0.296 OA
ATOM     13  C   UNL d   1     -47.477  29.640  37.574  0.00  0.00     0.185 C 
ENDBRANCH  10  12
ENDBRANCH   5  10
BRANCH   8  14
ATOM     14  C   UNL d   1     -47.748  32.199  34.451  0.00  0.00     0.302 C 
ATOM     15  O   UNL d   1     -47.652  32.805  34.995  0.00  0.00    -0.259 OA
BRANCH  14  16
ATOM     16  O   UNL d   1     -47.864  32.354  33.633  0.00  0.00    -0.295 OA
ATOM     17  C   UNL d   1     -47.938  33.119  33.344  0.00  0.00     0.185 C 
ENDBRANCH  14  16
ENDBRANCH   8  14
ENDBRANCH   1   4
BRANCH   1  18
ATOM     18  N   UNL d   1     -48.582  28.717  34.404  0.00  0.00    -0.226 N 
ATOM     19  C   UNL d   1     -49.233  28.927  33.900  0.00  0.00     0.111 A 
ATOM     20  C   UNL d   1     -49.796  28.366  33.678  0.00  0.00     0.100 A 
ATOM     21  N   UNL d   1     -49.745  27.589  33.936  0.00  0.00    -0.301 N 
ATOM     22  C   UNL d   1     -49.114  27.386  34.424  0.00  0.00     0.100 A 
ATOM     23  C   UNL d   1     -48.531  27.940  34.662  0.00  0.00     0.111 A 
BRANCH  21  24
ATOM     24  C   UNL d   1     -50.279  27.032  33.732  0.00  0.00     0.064 A 
ATOM     25  C   UNL d   1     -51.081  27.193  33.664  0.00  0.00     0.018 A 
ATOM     26  C   UNL d   1     -51.626  26.611  33.452  0.00  0.00     0.002 A 
ATOM     27  C   UNL d   1     -51.361  25.855  33.306  0.00  0.00     0.000 A 
ATOM     28  C   UNL d   1     -50.559  25.682  33.371  0.00  0.00     0.002 A 
ATOM     29  C   UNL d   1     -50.019  26.251  33.579  0.00  0.00     0.018 A 
ENDBRANCH  21  24
ENDBRANCH   1  18
TORSDOF 7
ENDMDL
