MODEL 1
REMARK VINA RESULT:      -6.2      0.000      0.000
REMARK  9 active torsions:
REMARK  status: ('A' for Active; 'I' for Inactive)
REMARK    1  A    between atoms: C_5  and  C_1 
REMARK    2  A    between atoms: N_4  and  C_2 
REMARK       I    between atoms: C_3  and  N_4 
REMARK    3  A    between atoms: C_10  and  C_3 
REMARK    4  A    between atoms: N_6  and  C_5 
REMARK    5  A    between atoms: C_12  and  C_5 
REMARK    6  A    between atoms: C_14  and  N_6 
REMARK    7  A    between atoms: C_8  and  C_14 
REMARK    8  A    between atoms: O_17  and  C_8 
REMARK    9  A    between atoms: C_23  and  O_17 
ROOT
ATOM      1  C   UNL d   1      53.242  33.026  53.309  0.00  0.00     0.036 A 
ATOM      2  C   UNL d   1      53.032  32.244  53.244  0.00  0.00     0.086 A 
ATOM      3  C   UNL d   1      54.034  33.233  53.289  0.00  0.00     0.010 A 
ATOM      4  C   UNL d   1      53.602  31.654  53.159  0.00  0.00     0.020 A 
ATOM      5  C   UNL d   1      54.618  32.656  53.204  0.00  0.00     0.035 A 
ATOM      6  C   UNL d   1      54.383  31.845  53.138  0.00  0.00     0.008 A 
ATOM      7 BR   UNL d   1      55.429  32.871  53.184  0.00  0.00    -0.049 Br
ENDROOT
BRANCH   1   8
ATOM      8  C   UNL d   1      52.672  33.616  53.395  0.00  0.00     0.083 C 
BRANCH   8   9
ATOM      9  N   UNL d   1      51.990  33.614  52.950  0.00  0.00    -0.238 NA
BRANCH   9  10
ATOM     10  C   UNL d   1      51.817  34.291  52.501  0.00  0.00     0.167 C 
BRANCH  10  11
ATOM     11  C   UNL d   1      51.129  34.276  52.015  0.00  0.00     0.320 C 
ATOM     12  O   UNL d   1      51.225  34.146  51.184  0.00  0.00    -0.257 OA
BRANCH  11  13
ATOM     13  O   UNL d   1      50.376  34.384  52.332  0.00  0.00    -0.270 OA
BRANCH  13  14
ATOM     14  C   UNL d   1      49.751  34.507  51.850  0.00  0.00     0.126 C 
ATOM     15  C   UNL d   1      49.066  34.784  52.167  0.00  0.00     0.029 C 
ENDBRANCH  13  14
ENDBRANCH  11  13
ENDBRANCH  10  11
ENDBRANCH   9  10
ENDBRANCH   8   9
BRANCH   8  16
ATOM     16  C   UNL d   1      52.792  34.219  53.939  0.00  0.00     0.018 A 
ATOM     17  C   UNL d   1      53.039  34.967  53.694  0.00  0.00     0.002 A 
ATOM     18  C   UNL d   1      53.163  35.579  54.219  0.00  0.00     0.000 A 
ATOM     19  C   UNL d   1      53.030  35.425  55.051  0.00  0.00     0.000 A 
ATOM     20  C   UNL d   1      52.783  34.679  55.303  0.00  0.00     0.000 A 
ATOM     21  C   UNL d   1      52.664  34.077  54.750  0.00  0.00     0.002 A 
ENDBRANCH   8  16
ENDBRANCH   1   8
BRANCH   2  22
ATOM     22  N   UNL d   1      52.212  32.036  53.266  0.00  0.00    -0.208 NA
ATOM     23  C   UNL d   1      51.991  31.250  53.404  0.00  0.00     0.279 C 
ATOM     24  O   UNL d   1      51.210  31.053  53.424  0.00  0.00    -0.265 OA
BRANCH  23  25
ATOM     25  C   UNL d   1      52.551  30.666  53.521  0.00  0.00     0.058 A 
ATOM     26  C   UNL d   1      52.863  30.248  52.887  0.00  0.00     0.005 A 
ATOM     27  C   UNL d   1      53.427  29.661  53.024  0.00  0.00     0.000 A 
ATOM     28  C   UNL d   1      53.673  29.501  53.786  0.00  0.00     0.000 A 
ATOM     29  C   UNL d   1      53.364  29.915  54.409  0.00  0.00     0.000 A 
ATOM     30  C   UNL d   1      52.799  30.502  54.273  0.00  0.00     0.005 A 
ENDBRANCH  23  25
ENDBRANCH   2  22
TORSDOF 9
ENDMDL
MODEL 2
REMARK VINA RESULT:      -6.0      1.417      3.786
REMARK  9 active torsions:
REMARK  status: ('A' for Active; 'I' for Inactive)
REMARK    1  A    between atoms: C_5  and  C_1 
REMARK    2  A    between atoms: N_4  and  C_2 
REMARK       I    between atoms: C_3  and  N_4 
REMARK    3  A    between atoms: C_10  and  C_3 
REMARK    4  A    between atoms: N_6  and  C_5 
REMARK    5  A    between atoms: C_12  and  C_5 
REMARK    6  A    between atoms: C_14  and  N_6 
REMARK    7  A    between atoms: C_8  and  C_14 
REMARK    8  A    between atoms: O_17  and  C_8 
REMARK    9  A    between atoms: C_23  and  O_17 
ROOT
ATOM      1  C   UNL d   1      52.929  33.642  53.351  0.00  0.00     0.036 A 
ATOM      2  C   UNL d   1      52.138  33.823  53.378  0.00  0.00     0.086 A 
ATOM      3  C   UNL d   1      53.429  34.087  52.879  0.00  0.00     0.010 A 
ATOM      4  C   UNL d   1      51.828  34.449  52.939  0.00  0.00     0.020 A 
ATOM      5  C   UNL d   1      53.136  34.717  52.433  0.00  0.00     0.035 A 
ATOM      6  C   UNL d   1      52.309  34.894  52.472  0.00  0.00     0.008 A 
ATOM      7 BR   UNL d   1      53.650  35.172  51.951  0.00  0.00    -0.049 Br
ENDROOT
BRANCH   1   8
ATOM      8  C   UNL d   1      53.239  33.016  53.790  0.00  0.00     0.083 C 
BRANCH   8   9
ATOM      9  N   UNL d   1      52.987  32.251  53.674  0.00  0.00    -0.238 NA
BRANCH   9  10
ATOM     10  C   UNL d   1      53.517  31.715  53.324  0.00  0.00     0.167 C 
BRANCH  10  11
ATOM     11  C   UNL d   1      53.263  30.919  53.222  0.00  0.00     0.320 C 
ATOM     12  O   UNL d   1      52.944  30.689  52.472  0.00  0.00    -0.257 OA
BRANCH  11  13
ATOM     13  O   UNL d   1      53.320  30.368  53.833  0.00  0.00    -0.270 OA
BRANCH  13  14
ATOM     14  C   UNL d   1      53.255  29.587  53.677  0.00  0.00     0.126 C 
ATOM     15  C   UNL d   1      53.323  29.065  54.284  0.00  0.00     0.029 C 
ENDBRANCH  13  14
ENDBRANCH  11  13
ENDBRANCH  10  11
ENDBRANCH   9  10
ENDBRANCH   8   9
BRANCH   8  16
ATOM     16  C   UNL d   1      53.813  33.165  54.357  0.00  0.00     0.018 A 
ATOM     17  C   UNL d   1      54.610  33.221  54.148  0.00  0.00     0.002 A 
ATOM     18  C   UNL d   1      55.195  33.368  54.697  0.00  0.00     0.000 A 
ATOM     19  C   UNL d   1      54.961  33.465  55.515  0.00  0.00     0.000 A 
ATOM     20  C   UNL d   1      54.167  33.411  55.731  0.00  0.00     0.000 A 
ATOM     21  C   UNL d   1      53.594  33.261  55.155  0.00  0.00     0.002 A 
ENDBRANCH   8  16
ENDBRANCH   1   8
BRANCH   2  22
ATOM     22  N   UNL d   1      51.627  33.360  53.867  0.00  0.00    -0.208 NA
ATOM     23  C   UNL d   1      50.815  33.332  53.703  0.00  0.00     0.279 C 
ATOM     24  O   UNL d   1      50.329  32.890  54.170  0.00  0.00    -0.265 OA
BRANCH  23  25
ATOM     25  C   UNL d   1      50.495  33.746  53.075  0.00  0.00     0.058 A 
ATOM     26  C   UNL d   1      50.498  33.431  52.317  0.00  0.00     0.005 A 
ATOM     27  C   UNL d   1      50.170  33.863  51.695  0.00  0.00     0.000 A 
ATOM     28  C   UNL d   1      49.845  34.599  51.836  0.00  0.00     0.000 A 
ATOM     29  C   UNL d   1      49.843  34.907  52.584  0.00  0.00     0.000 A 
ATOM     30  C   UNL d   1      50.171  34.475  53.207  0.00  0.00     0.005 A 
ENDBRANCH  23  25
ENDBRANCH   2  22
TORSDOF 9
ENDMDL
MODEL 3
REMARK VINA RESULT:      -5.6      1.704      3.696
REMARK  9 active torsions:
REMARK  status: ('A' for Active; 'I' for Inactive)
REMARK    1  A    between atoms: C_5  and  C_1 
REMARK    2  A    between atoms: N_4  and  C_2 
REMARK       I    between atoms: C_3  and  N_4 
REMARK    3  A    between atoms: C_10  and  C_3 
REMARK    4  A    between atoms: N_6  and  C_5 
REMARK    5  A    between atoms: C_12  and  C_5 
REMARK    6  A    between atoms: C_14  and  N_6 
REMARK    7  A    between atoms: C_8  and  C_14 
REMARK    8  A    between atoms: O_17  and  C_8 
REMARK    9  A    between atoms: C_23  and  O_17 
ROOT
ATOM      1  C   UNL d   1      52.641  34.038  53.556  0.00  0.00     0.036 A 
ATOM      2  C   UNL d   1      53.447  34.055  53.654  0.00  0.00     0.086 A 
ATOM      3  C   UNL d   1      52.171  34.551  53.988  0.00  0.00     0.010 A 
ATOM      4  C   UNL d   1      53.802  34.581  54.181  0.00  0.00     0.020 A 
ATOM      5  C   UNL d   1      52.509  35.083  54.520  0.00  0.00     0.035 A 
ATOM      6  C   UNL d   1      53.351  35.089  54.611  0.00  0.00     0.008 A 
ATOM      7 BR   UNL d   1      52.026  35.608  54.962  0.00  0.00    -0.049 Br
ENDROOT
BRANCH   1   8
ATOM      8  C   UNL d   1      52.287  33.512  53.028  0.00  0.00     0.083 C 
BRANCH   8   9
ATOM      9  N   UNL d   1      52.547  32.744  52.955  0.00  0.00    -0.238 NA
BRANCH   9  10
ATOM     10  C   UNL d   1      51.994  32.133  53.059  0.00  0.00     0.167 C 
BRANCH  10  11
ATOM     11  C   UNL d   1      52.250  31.343  52.926  0.00  0.00     0.320 C 
ATOM     12  O   UNL d   1      52.469  31.117  52.140  0.00  0.00    -0.257 OA
BRANCH  11  13
ATOM     13  O   UNL d   1      52.289  30.793  53.540  0.00  0.00    -0.270 OA
BRANCH  13  14
ATOM     14  C   UNL d   1      52.571  30.059  53.403  0.00  0.00     0.126 C 
ATOM     15  C   UNL d   1      52.968  29.682  53.992  0.00  0.00     0.029 C 
ENDBRANCH  13  14
ENDBRANCH  11  13
ENDBRANCH  10  11
ENDBRANCH   9  10
ENDBRANCH   8   9
BRANCH   8  16
ATOM     16  C   UNL d   1      51.657  33.765  52.566  0.00  0.00     0.018 A 
ATOM     17  C   UNL d   1      50.880  33.700  52.836  0.00  0.00     0.002 A 
ATOM     18  C   UNL d   1      50.242  33.946  52.392  0.00  0.00     0.000 A 
ATOM     19  C   UNL d   1      50.398  34.282  51.619  0.00  0.00     0.000 A 
ATOM     20  C   UNL d   1      51.172  34.350  51.342  0.00  0.00     0.000 A 
ATOM     21  C   UNL d   1      51.801  34.093  51.813  0.00  0.00     0.002 A 
ENDBRANCH   8  16
ENDBRANCH   1   8
BRANCH   2  22
ATOM     22  N   UNL d   1      53.927  33.523  53.204  0.00  0.00    -0.208 NA
ATOM     23  C   UNL d   1      54.598  33.182  53.551  0.00  0.00     0.279 C 
ATOM     24  O   UNL d   1      55.055  32.675  53.122  0.00  0.00    -0.265 OA
BRANCH  23  25
ATOM     25  C   UNL d   1      54.809  33.351  54.323  0.00  0.00     0.058 A 
ATOM     26  C   UNL d   1      54.474  32.942  54.950  0.00  0.00     0.005 A 
ATOM     27  C   UNL d   1      54.698  33.125  55.723  0.00  0.00     0.000 A 
ATOM     28  C   UNL d   1      55.251  33.711  55.859  0.00  0.00     0.000 A 
ATOM     29  C   UNL d   1      55.580  34.113  55.239  0.00  0.00     0.000 A 
ATOM     30  C   UNL d   1      55.355  33.929  54.466  0.00  0.00     0.005 A 
ENDBRANCH  23  25
ENDBRANCH   2  22
TORSDOF 9
ENDMDL
MODEL 4
REMARK VINA RESULT:      -3.6      1.217      3.553
REMARK  9 active torsions:
REMARK  status: ('A' for Active; 'I' for Inactive)
REMARK    1  A    between atoms: C_5  and  C_1 
REMARK    2  A    between atoms: N_4  and  C_2 
REMARK       I    between atoms: C_3  and  N_4 
REMARK    3  A    between atoms: C_10  and  C_3 
REMARK    4  A    between atoms: N_6  and  C_5 
REMARK    5  A    between atoms: C_12  and  C_5 
REMARK    6  A    between atoms: C_14  and  N_6 
REMARK    7  A    between atoms: C_8  and  C_14 
REMARK    8  A    between atoms: O_17  and  C_8 
REMARK    9  A    between atoms: C_23  and  O_17 
ROOT
ATOM      1  C   UNL d   1      53.913  32.475  53.753  0.00  0.00     0.036 A 
ATOM      2  C   UNL d   1      54.021  32.966  54.391  0.00  0.00     0.086 A 
ATOM      3  C   UNL d   1      54.491  32.433  53.174  0.00  0.00     0.010 A 
ATOM      4  C   UNL d   1      54.702  33.424  54.467  0.00  0.00     0.020 A 
ATOM      5  C   UNL d   1      55.179  32.885  53.233  0.00  0.00     0.035 A 
ATOM      6  C   UNL d   1      55.277  33.392  53.904  0.00  0.00     0.008 A 
ATOM      7 BR   UNL d   1      55.770  32.841  52.639  0.00  0.00    -0.049 Br
ENDROOT
BRANCH   1   8
ATOM      8  C   UNL d   1      53.232  32.016  53.677  0.00  0.00     0.083 C 
BRANCH   8   9
ATOM      9  N   UNL d   1      52.503  32.357  53.551  0.00  0.00    -0.238 NA
BRANCH   9  10
ATOM     10  C   UNL d   1      52.173  32.299  52.790  0.00  0.00     0.167 C 
BRANCH  10  11
ATOM     11  C   UNL d   1      51.471  32.735  52.631  0.00  0.00     0.320 C 
ATOM     12  O   UNL d   1      50.773  32.554  53.075  0.00  0.00    -0.257 OA
BRANCH  11  13
ATOM     13  O   UNL d   1      51.454  33.329  52.059  0.00  0.00    -0.270 OA
BRANCH  13  14
ATOM     14  C   UNL d   1      50.842  33.842  52.031  0.00  0.00     0.126 C 
ATOM     15  C   UNL d   1      50.849  34.421  51.474  0.00  0.00     0.029 C 
ENDBRANCH  13  14
ENDBRANCH  11  13
ENDBRANCH  10  11
ENDBRANCH   9  10
ENDBRANCH   8   9
BRANCH   8  16
ATOM     16  C   UNL d   1      53.286  31.199  53.730  0.00  0.00     0.018 A 
ATOM     17  C   UNL d   1      53.386  30.737  53.054  0.00  0.00     0.002 A 
ATOM     18  C   UNL d   1      53.442  29.924  53.086  0.00  0.00     0.000 A 
ATOM     19  C   UNL d   1      53.392  29.549  53.855  0.00  0.00     0.000 A 
ATOM     20  C   UNL d   1      53.292  30.005  54.535  0.00  0.00     0.000 A 
ATOM     21  C   UNL d   1      53.238  30.827  54.475  0.00  0.00     0.002 A 
ENDBRANCH   8  16
ENDBRANCH   1   8
BRANCH   2  22
ATOM     22  N   UNL d   1      53.420  33.004  54.985  0.00  0.00    -0.208 NA
ATOM     23  C   UNL d   1      53.171  33.741  55.271  0.00  0.00     0.279 C 
ATOM     24  O   UNL d   1      52.599  33.777  55.837  0.00  0.00    -0.265 OA
BRANCH  23  25
ATOM     25  C   UNL d   1      53.495  34.437  54.989  0.00  0.00     0.058 A 
ATOM     26  C   UNL d   1      54.221  34.706  55.263  0.00  0.00     0.005 A 
ATOM     27  C   UNL d   1      54.533  35.410  54.967  0.00  0.00     0.000 A 
ATOM     28  C   UNL d   1      54.119  35.835  54.405  0.00  0.00     0.000 A 
ATOM     29  C   UNL d   1      53.404  35.568  54.137  0.00  0.00     0.000 A 
ATOM     30  C   UNL d   1      53.092  34.863  54.433  0.00  0.00     0.005 A 
ENDBRANCH  23  25
ENDBRANCH   2  22
TORSDOF 9
ENDMDL
MODEL 5
REMARK VINA RESULT:      -3.3      1.603      2.144
REMARK  9 active torsions:
REMARK  status: ('A' for Active; 'I' for Inactive)
REMARK    1  A    between atoms: C_5  and  C_1 
REMARK    2  A    between atoms: N_4  and  C_2 
REMARK       I    between atoms: C_3  and  N_4 
REMARK    3  A    between atoms: C_10  and  C_3 
REMARK    4  A    between atoms: N_6  and  C_5 
REMARK    5  A    between atoms: C_12  and  C_5 
REMARK    6  A    between atoms: C_14  and  N_6 
REMARK    7  A    between atoms: C_8  and  C_14 
REMARK    8  A    between atoms: O_17  and  C_8 
REMARK    9  A    between atoms: C_23  and  O_17 
ROOT
ATOM      1  C   UNL d   1      53.704  32.149  54.460  0.00  0.00     0.036 A 
ATOM      2  C   UNL d   1      53.564  31.546  53.934  0.00  0.00     0.086 A 
ATOM      3  C   UNL d   1      53.760  31.983  55.260  0.00  0.00     0.010 A 
ATOM      4  C   UNL d   1      53.477  30.767  54.193  0.00  0.00     0.020 A 
ATOM      5  C   UNL d   1      53.676  31.210  55.536  0.00  0.00     0.035 A 
ATOM      6  C   UNL d   1      53.530  30.591  54.976  0.00  0.00     0.008 A 
ATOM      7 BR   UNL d   1      53.734  31.042  56.356  0.00  0.00    -0.049 Br
ENDROOT
BRANCH   1   8
ATOM      8  C   UNL d   1      53.791  32.928  54.201  0.00  0.00     0.083 C 
BRANCH   8   9
ATOM      9  N   UNL d   1      53.184  33.321  53.829  0.00  0.00    -0.238 NA
BRANCH   9  10
ATOM     10  C   UNL d   1      52.794  33.923  54.249  0.00  0.00     0.167 C 
BRANCH  10  11
ATOM     11  C   UNL d   1      52.209  34.372  53.843  0.00  0.00     0.320 C 
ATOM     12  O   UNL d   1      52.345  35.199  53.724  0.00  0.00    -0.257 OA
BRANCH  11  13
ATOM     13  O   UNL d   1      51.516  34.022  53.563  0.00  0.00    -0.270 OA
BRANCH  13  14
ATOM     14  C   UNL d   1      50.985  34.457  53.154  0.00  0.00     0.126 C 
ATOM     15  C   UNL d   1      50.406  34.075  52.747  0.00  0.00     0.029 C 
ENDBRANCH  13  14
ENDBRANCH  11  13
ENDBRANCH  10  11
ENDBRANCH   9  10
ENDBRANCH   8   9
BRANCH   8  16
ATOM     16  C   UNL d   1      54.504  33.317  54.321  0.00  0.00     0.018 A 
ATOM     17  C   UNL d   1      55.074  33.349  53.726  0.00  0.00     0.002 A 
ATOM     18  C   UNL d   1      55.788  33.731  53.825  0.00  0.00     0.000 A 
ATOM     19  C   UNL d   1      55.938  34.107  54.580  0.00  0.00     0.000 A 
ATOM     20  C   UNL d   1      55.373  34.079  55.180  0.00  0.00     0.000 A 
ATOM     21  C   UNL d   1      54.658  33.686  55.053  0.00  0.00     0.002 A 
ENDBRANCH   8  16
ENDBRANCH   1   8
BRANCH   2  22
ATOM     22  N   UNL d   1      53.507  31.723  53.110  0.00  0.00    -0.208 NA
ATOM     23  C   UNL d   1      53.075  31.224  52.610  0.00  0.00     0.279 C 
ATOM     24  O   UNL d   1      53.021  31.394  51.824  0.00  0.00    -0.265 OA
BRANCH  23  25
ATOM     25  C   UNL d   1      52.699  30.557  52.899  0.00  0.00     0.058 A 
ATOM     26  C   UNL d   1      51.937  30.599  53.199  0.00  0.00     0.005 A 
ATOM     27  C   UNL d   1      51.573  29.916  53.487  0.00  0.00     0.000 A 
ATOM     28  C   UNL d   1      51.972  29.204  53.471  0.00  0.00     0.000 A 
ATOM     29  C   UNL d   1      52.724  29.165  53.174  0.00  0.00     0.000 A 
ATOM     30  C   UNL d   1      53.088  29.848  52.887  0.00  0.00     0.005 A 
ENDBRANCH  23  25
ENDBRANCH   2  22
TORSDOF 9
ENDMDL
