MODEL 1
REMARK VINA RESULT:     102.2      0.000      0.000
REMARK  8 active torsions:
REMARK  status: ('A' for Active; 'I' for Inactive)
REMARK    1  A    between atoms: C_13  and  C_4 
REMARK    2  A    between atoms: N_16  and  C_5 
REMARK    3  A    between atoms: C_20  and  C_9 
REMARK    4  A    between atoms: N_11  and  C_18 
REMARK    5  A    between atoms: C_21  and  N_16 
REMARK    6  A    between atoms: C_18  and  C_19 
REMARK    7  A    between atoms: C_19  and  C_21 
REMARK    8  A    between atoms: C_24  and  C_20 
ROOT
ATOM      1  N   UNL d   1      59.807  47.330  50.825  0.00  0.00    -0.184 N 
ATOM      2  C   UNL d   1      60.551  47.097  50.532  0.00  0.00     0.168 A 
ATOM      3  N   UNL d   1      59.326  46.011  50.650  0.00  0.00    -0.162 NA
ATOM      4  C   UNL d   1      60.674  46.333  50.304  0.00  0.00     0.055 A 
ATOM      5  C   UNL d   1      59.704  48.106  51.050  0.00  0.00     0.218 A 
ATOM      6  C   UNL d   1      60.070  45.778  50.358  0.00  0.00     0.104 A 
ATOM      7  N   UNL d   1      61.155  47.652  50.479  0.00  0.00    -0.227 NA
ATOM      8  C   UNL d   1      60.291  48.658  51.001  0.00  0.00     0.071 A 
ATOM      9  C   UNL d   1      61.035  48.425  50.708  0.00  0.00     0.087 A 
ATOM     10  C   UNL d   1      60.187  45.006  50.129  0.00  0.00     0.023 C 
ENDROOT
BRANCH   5  11
ATOM     11  N   UNL d   1      58.937  48.345  51.352  0.00  0.00    -0.380 NA
BRANCH  11  12
ATOM     12  C   UNL d   1      58.190  48.654  51.640  0.00  0.00     0.164 C 
BRANCH  12  13
ATOM     13  C   UNL d   1      57.690  49.103  51.117  0.00  0.00     0.054 C 
BRANCH  13  14
ATOM     14  C   UNL d   1      56.993  48.744  50.789  0.00  0.00     0.084 C 
BRANCH  14  15
ATOM     15  N   UNL d   1      56.714  48.984  50.032  0.00  0.00    -0.285 N 
ATOM     16  C   UNL d   1      56.148  48.578  49.549  0.00  0.00     0.183 A 
ATOM     17  N   UNL d   1      56.035  49.023  48.830  0.00  0.00    -0.222 NA
ATOM     18  C   UNL d   1      56.528  49.707  48.861  0.00  0.00     0.120 A 
ATOM     19  C   UNL d   1      56.949  49.689  49.598  0.00  0.00     0.102 A 
ENDBRANCH  14  15
ENDBRANCH  13  14
ENDBRANCH  12  13
ENDBRANCH  11  12
ENDBRANCH   5  11
BRANCH   9  20
ATOM     20  C   UNL d   1      61.668  48.998  50.650  0.00  0.00     0.019 C 
BRANCH  20  21
ATOM     21  C   UNL d   1      62.034  49.323  51.363  0.00  0.00     0.002 C 
ATOM     22  C   UNL d   1      61.559  49.708  51.950  0.00  0.00     0.000 C 
ENDBRANCH  20  21
ENDBRANCH   9  20
BRANCH   4  23
ATOM     23  C   UNL d   1      61.408  46.104  50.015  0.00  0.00     0.004 A 
ATOM     24  C   UNL d   1      61.515  46.019  49.209  0.00  0.00     0.000 A 
ATOM     25  C   UNL d   1      62.249  45.790  48.920  0.00  0.00     0.000 A 
ATOM     26  C   UNL d   1      62.874  45.646  49.439  0.00  0.00     0.000 A 
ATOM     27  C   UNL d   1      62.768  45.731  50.249  0.00  0.00     0.000 A 
ATOM     28  C   UNL d   1      62.023  45.963  50.543  0.00  0.00     0.000 A 
ENDBRANCH   4  23
TORSDOF 8
ENDMDL
