MODEL 1
REMARK VINA RESULT:      56.1      0.000      0.000
REMARK  4 active torsions:
REMARK  status: ('A' for Active; 'I' for Inactive)
REMARK    1  A    between atoms: S_9  and  C_2 
REMARK    2  A    between atoms: C_11  and  C_3 
REMARK    3  A    between atoms: C_7  and  C_10 
REMARK       I    between atoms: N_8  and  C_7 
REMARK    4  A    between atoms: C_10  and  S_9 
ROOT
ATOM      1  N   UNL d   1     -58.007 -99.012 -44.841  0.00  0.00    -0.220 NA
ATOM      2  C   UNL d   1     -57.770 -98.930 -44.048  0.00  0.00     0.114 A 
ATOM      3  C   UNL d   1     -58.807 -99.047 -45.022  0.00  0.00     0.163 A 
ATOM      4  N   UNL d   1     -59.373 -99.001 -44.424  0.00  0.00    -0.227 NA
ATOM      5  C   UNL d   1     -58.335 -98.884 -43.450  0.00  0.00     0.042 A 
ATOM      6  C   UNL d   1     -59.140 -98.921 -43.644  0.00  0.00     0.085 A 
ATOM      7  C   UNL d   1     -58.103 -98.805 -42.677  0.00  0.00     0.004 A 
ATOM      8  C   UNL d   1     -59.700 -98.876 -43.057  0.00  0.00     0.019 A 
ATOM      9  C   UNL d   1     -58.668 -98.759 -42.079  0.00  0.00     0.000 A 
ATOM     10  C   UNL d   1     -59.472 -98.796 -42.273  0.00  0.00     0.002 A 
ENDROOT
BRANCH   2  11
ATOM     11  S   UNL d   1     -56.971 -98.894 -43.858  0.00  0.00    -0.062 SA
BRANCH  11  12
ATOM     12  C   UNL d   1     -56.405 -98.921 -44.445  0.00  0.00     0.098 C 
BRANCH  12  13
ATOM     13  C   UNL d   1     -55.661 -99.252 -44.299  0.00  0.00     0.271 C 
ATOM     14  N   UNL d   1     -55.558-100.068 -44.298  0.00  0.00    -0.272 N 
ATOM     15  C   UNL d   1     -54.821-100.390 -44.154  0.00  0.00     0.083 A 
ATOM     16  C   UNL d   1     -56.209-100.554 -44.445  0.00  0.00     0.083 A 
ATOM     17  C   UNL d   1     -54.714-101.204 -44.152  0.00  0.00     0.019 A 
ATOM     18  C   UNL d   1     -55.355-101.703 -44.297  0.00  0.00     0.003 A 
ATOM     19  C   UNL d   1     -56.099-101.373 -44.443  0.00  0.00     0.019 A 
ATOM     20  O   UNL d   1     -55.016 -98.757 -44.154  0.00  0.00    -0.266 OA
ENDBRANCH  12  13
ENDBRANCH  11  12
ENDBRANCH   2  11
BRANCH   3  21
ATOM     21  C   UNL d   1     -59.048 -99.127 -45.803  0.00  0.00     0.036 A 
ATOM     22  C   UNL d   1     -59.715 -99.579 -45.979  0.00  0.00     0.003 A 
ATOM     23  C   UNL d   1     -59.959 -99.661 -46.767  0.00  0.00     0.000 A 
ATOM     24  C   UNL d   1     -59.532 -99.291 -47.367  0.00  0.00     0.000 A 
ATOM     25  C   UNL d   1     -58.863 -98.839 -47.190  0.00  0.00     0.000 A 
ATOM     26  C   UNL d   1     -58.623 -98.758 -46.415  0.00  0.00     0.003 A 
ENDBRANCH   3  21
TORSDOF 4
ENDMDL
