MODEL 1
REMARK VINA RESULT:      53.9      0.000      0.000
REMARK  7 active torsions:
REMARK  status: ('A' for Active; 'I' for Inactive)
REMARK    1  A    between atoms: C_2  and  C_1 
REMARK       I    between atoms: N_8  and  C_1 
REMARK    2  A    between atoms: C_5  and  C_2 
REMARK    3  A    between atoms: C_6  and  C_2 
REMARK    4  A    between atoms: N_3  and  C_9 
REMARK    5  A    between atoms: C_13  and  N_8 
REMARK    6  A    between atoms: C_9  and  C_10 
REMARK    7  A    between atoms: C_10  and  C_13 
ROOT
ATOM      1  C   UNL d   1     -50.371  25.831  33.609  0.00  0.00     0.058 C 
ENDROOT
BRANCH   1   2
ATOM      2  C   UNL d   1     -49.574  26.048  33.754  0.00  0.00     0.279 C 
ATOM      3  O   UNL d   1     -48.962  25.565  33.429  0.00  0.00    -0.265 OA
ATOM      4  N   UNL d   1     -49.388  26.726  34.209  0.00  0.00    -0.206 NA
BRANCH   4   5
ATOM      5  C   UNL d   1     -48.604  26.930  34.346  0.00  0.00     0.104 C 
BRANCH   5   6
ATOM      6  C   UNL d   1     -48.394  27.704  34.514  0.00  0.00     0.040 C 
BRANCH   6   7
ATOM      7  C   UNL d   1     -48.038  27.885  35.224  0.00  0.00     0.082 C 
BRANCH   7   8
ATOM      8  N   UNL d   1     -47.998  28.661  35.458  0.00  0.00    -0.299 N 
ATOM      9  C   UNL d   1     -48.111  28.876  36.251  0.00  0.00     0.107 A 
ATOM     10  C   UNL d   1     -48.069  29.670  36.480  0.00  0.00     0.142 A 
ATOM     11  O   UNL d   1     -47.910  30.260  35.903  0.00  0.00    -0.300 OA
ATOM     12  C   UNL d   1     -47.796  30.052  35.109  0.00  0.00     0.142 A 
ATOM     13  C   UNL d   1     -47.840  29.257  34.889  0.00  0.00     0.107 A 
ENDBRANCH   7   8
ENDBRANCH   6   7
ENDBRANCH   5   6
ENDBRANCH   4   5
ENDBRANCH   1   2
BRANCH   1  14
ATOM     14  C   UNL d   1     -50.955  26.407  33.565  0.00  0.00     0.005 A 
ATOM     15  C   UNL d   1     -51.730  26.189  33.737  0.00  0.00     0.000 A 
ATOM     16  C   UNL d   1     -52.331  26.750  33.699  0.00  0.00     0.000 A 
ATOM     17  C   UNL d   1     -52.126  27.570  33.474  0.00  0.00     0.000 A 
ATOM     18  C   UNL d   1     -51.337  27.759  33.306  0.00  0.00     0.000 A 
ATOM     19  C   UNL d   1     -50.746  27.185  33.349  0.00  0.00     0.000 A 
ENDBRANCH   1  14
BRANCH   1  20
ATOM     20  C   UNL d   1     -50.545  25.030  33.515  0.00  0.00     0.005 A 
ATOM     21  C   UNL d   1     -51.319  24.781  33.443  0.00  0.00     0.000 A 
ATOM     22  C   UNL d   1     -51.492  23.975  33.348  0.00  0.00     0.000 A 
ATOM     23  C   UNL d   1     -50.864  23.417  33.327  0.00  0.00     0.000 A 
ATOM     24  C   UNL d   1     -50.089  23.684  33.400  0.00  0.00     0.000 A 
ATOM     25  C   UNL d   1     -49.930  24.485  33.494  0.00  0.00     0.000 A 
ENDBRANCH   1  20
TORSDOF 7
ENDMDL
