MODEL 1
REMARK VINA RESULT:       5.2      0.000      0.000
REMARK  2 active torsions:
REMARK  status: ('A' for Active; 'I' for Inactive)
REMARK    1  A    between atoms: C_9  and  C_3 
REMARK    2  A    between atoms: C_8  and  C_4 
ROOT
ATOM      1  N   UNL d   1     -41.848-121.835 -53.100  0.00  0.00    -0.242 NA
ATOM      2  N   UNL d   1     -41.852-123.460 -52.824  0.00  0.00    -0.242 NA
ATOM      3  C   UNL d   1     -41.847-122.123 -52.328  0.00  0.00     0.099 A 
ATOM      4  C   UNL d   1     -41.849-122.931 -52.191  0.00  0.00     0.099 A 
ATOM      5  C   UNL d   1     -41.851-122.362 -53.731  0.00  0.00     0.101 A 
ATOM      6  C   UNL d   1     -41.853-123.169 -53.594  0.00  0.00     0.099 A 
ATOM      7  C   UNL d   1     -41.852-122.073 -54.500  0.00  0.00     0.042 A 
ATOM      8  C   UNL d   1     -41.856-123.698 -54.224  0.00  0.00     0.022 A 
ATOM      9  C   UNL d   1     -41.855-122.600 -55.133  0.00  0.00     0.104 A 
ATOM     10  N   UNL d   1     -41.856-122.311 -55.897  0.00  0.00    -0.148 N 
ATOM     11  C   UNL d   1     -41.857-123.407 -54.996  0.00  0.00     0.023 A 
ENDROOT
BRANCH   3  12
ATOM     12  C   UNL d   1     -41.844-121.598 -51.702  0.00  0.00     0.019 A 
ATOM     13  C   UNL d   1     -42.561-121.374 -51.345  0.00  0.00     0.002 A 
ATOM     14  C   UNL d   1     -42.565-120.841 -50.710  0.00  0.00     0.000 A 
ATOM     15  C   UNL d   1     -41.847-120.528 -50.426  0.00  0.00     0.000 A 
ATOM     16  C   UNL d   1     -41.129-120.758 -50.791  0.00  0.00     0.000 A 
ATOM     17  C   UNL d   1     -41.132-121.287 -51.422  0.00  0.00     0.002 A 
ENDBRANCH   3  12
BRANCH   4  18
ATOM     18  C   UNL d   1     -41.848-123.223 -51.426  0.00  0.00     0.019 A 
ATOM     19  C   UNL d   1     -42.573-123.382 -51.046  0.00  0.00     0.002 A 
ATOM     20  C   UNL d   1     -42.579-123.678 -50.270  0.00  0.00     0.000 A 
ATOM     21  C   UNL d   1     -41.859-123.817 -49.870  0.00  0.00     0.000 A 
ATOM     22  C   UNL d   1     -41.135-123.659 -50.246  0.00  0.00     0.000 A 
ATOM     23  C   UNL d   1     -41.128-123.361 -51.026  0.00  0.00     0.002 A 
ENDBRANCH   4  18
TORSDOF 2
ENDMDL
MODEL 2
REMARK VINA RESULT:       6.6      1.237      4.032
REMARK  2 active torsions:
REMARK  status: ('A' for Active; 'I' for Inactive)
REMARK    1  A    between atoms: C_9  and  C_3 
REMARK    2  A    between atoms: C_8  and  C_4 
ROOT
ATOM      1  N   UNL d   1     -41.558-123.401 -52.318  0.00  0.00    -0.242 NA
ATOM      2  N   UNL d   1     -41.692-121.780 -52.056  0.00  0.00    -0.242 NA
ATOM      3  C   UNL d   1     -41.700-122.892 -52.949  0.00  0.00     0.099 A 
ATOM      4  C   UNL d   1     -41.767-122.086 -52.819  0.00  0.00     0.099 A 
ATOM      5  C   UNL d   1     -41.483-123.098 -51.558  0.00  0.00     0.101 A 
ATOM      6  C   UNL d   1     -41.550-122.292 -51.428  0.00  0.00     0.099 A 
ATOM      7  C   UNL d   1     -41.342-123.608 -50.929  0.00  0.00     0.042 A 
ATOM      8  C   UNL d   1     -41.476-121.986 -50.668  0.00  0.00     0.022 A 
ATOM      9  C   UNL d   1     -41.267-123.304 -50.168  0.00  0.00     0.104 A 
ATOM     10  N   UNL d   1     -41.126-123.813 -49.544  0.00  0.00    -0.148 N 
ATOM     11  C   UNL d   1     -41.333-122.499 -50.038  0.00  0.00     0.023 A 
ENDROOT
BRANCH   3  12
ATOM     12  C   UNL d   1     -41.774-123.196 -53.704  0.00  0.00     0.019 A 
ATOM     13  C   UNL d   1     -42.505-123.503 -53.958  0.00  0.00     0.002 A 
ATOM     14  C   UNL d   1     -42.587-123.814 -54.722  0.00  0.00     0.000 A 
ATOM     15  C   UNL d   1     -41.934-123.817 -55.240  0.00  0.00     0.000 A 
ATOM     16  C   UNL d   1     -41.202-123.506 -54.978  0.00  0.00     0.000 A 
ATOM     17  C   UNL d   1     -41.127-123.200 -54.218  0.00  0.00     0.002 A 
ENDBRANCH   3  12
BRANCH   4  18
ATOM     18  C   UNL d   1     -41.908-121.574 -53.442  0.00  0.00     0.019 A 
ATOM     19  C   UNL d   1     -42.694-121.391 -53.654  0.00  0.00     0.002 A 
ATOM     20  C   UNL d   1     -42.844-120.873 -54.286  0.00  0.00     0.000 A 
ATOM     21  C   UNL d   1     -42.209-120.534 -54.709  0.00  0.00     0.000 A 
ATOM     22  C   UNL d   1     -41.425-120.714 -54.500  0.00  0.00     0.000 A 
ATOM     23  C   UNL d   1     -41.273-121.235 -53.865  0.00  0.00     0.002 A 
ENDBRANCH   4  18
TORSDOF 2
ENDMDL
MODEL 3
REMARK VINA RESULT:       7.1      1.368      3.489
REMARK  2 active torsions:
REMARK  status: ('A' for Active; 'I' for Inactive)
REMARK    1  A    between atoms: C_9  and  C_3 
REMARK    2  A    between atoms: C_8  and  C_4 
ROOT
ATOM      1  N   UNL d   1     -41.966-121.912 -51.518  0.00  0.00    -0.242 NA
ATOM      2  N   UNL d   1     -41.840-123.525 -51.830  0.00  0.00    -0.242 NA
ATOM      3  C   UNL d   1     -41.947-122.182 -52.296  0.00  0.00     0.099 A 
ATOM      4  C   UNL d   1     -41.884-122.983 -52.451  0.00  0.00     0.099 A 
ATOM      5  C   UNL d   1     -41.923-122.450 -50.899  0.00  0.00     0.101 A 
ATOM      6  C   UNL d   1     -41.860-123.251 -51.054  0.00  0.00     0.099 A 
ATOM      7  C   UNL d   1     -41.942-122.179 -50.124  0.00  0.00     0.042 A 
ATOM      8  C   UNL d   1     -41.816-123.792 -50.435  0.00  0.00     0.022 A 
ATOM      9  C   UNL d   1     -41.898-122.717 -49.503  0.00  0.00     0.104 A 
ATOM     10  N   UNL d   1     -41.918-122.446 -48.732  0.00  0.00    -0.148 N 
ATOM     11  C   UNL d   1     -41.836-123.519 -49.657  0.00  0.00     0.023 A 
ENDROOT
BRANCH   3  12
ATOM     12  C   UNL d   1     -41.990-121.645 -52.911  0.00  0.00     0.019 A 
ATOM     13  C   UNL d   1     -42.719-121.503 -53.287  0.00  0.00     0.002 A 
ATOM     14  C   UNL d   1     -42.770-120.959 -53.911  0.00  0.00     0.000 A 
ATOM     15  C   UNL d   1     -42.088-120.552 -54.163  0.00  0.00     0.000 A 
ATOM     16  C   UNL d   1     -41.359-120.699 -53.780  0.00  0.00     0.000 A 
ATOM     17  C   UNL d   1     -41.314-121.240 -53.160  0.00  0.00     0.002 A 
ENDBRANCH   3  12
BRANCH   4  18
ATOM     18  C   UNL d   1     -41.864-123.258 -53.222  0.00  0.00     0.019 A 
ATOM     19  C   UNL d   1     -42.579-123.427 -53.617  0.00  0.00     0.002 A 
ATOM     20  C   UNL d   1     -42.567-123.706 -54.399  0.00  0.00     0.000 A 
ATOM     21  C   UNL d   1     -41.838-123.817 -54.791  0.00  0.00     0.000 A 
ATOM     22  C   UNL d   1     -41.124-123.649 -54.400  0.00  0.00     0.000 A 
ATOM     23  C   UNL d   1     -41.136-123.369 -53.614  0.00  0.00     0.002 A 
ENDBRANCH   4  18
TORSDOF 2
ENDMDL
MODEL 4
REMARK VINA RESULT:       7.8      1.141      1.658
REMARK  2 active torsions:
REMARK  status: ('A' for Active; 'I' for Inactive)
REMARK    1  A    between atoms: C_9  and  C_3 
REMARK    2  A    between atoms: C_8  and  C_4 
ROOT
ATOM      1  N   UNL d   1     -42.951-122.144 -52.417  0.00  0.00    -0.242 NA
ATOM      2  N   UNL d   1     -41.390-122.616 -52.179  0.00  0.00    -0.242 NA
ATOM      3  C   UNL d   1     -42.693-122.351 -51.663  0.00  0.00     0.099 A 
ATOM      4  C   UNL d   1     -41.917-122.586 -51.544  0.00  0.00     0.099 A 
ATOM      5  C   UNL d   1     -42.427-122.173 -53.049  0.00  0.00     0.101 A 
ATOM      6  C   UNL d   1     -41.651-122.408 -52.931  0.00  0.00     0.099 A 
ATOM      7  C   UNL d   1     -42.685-121.966 -53.801  0.00  0.00     0.042 A 
ATOM      8  C   UNL d   1     -41.124-122.438 -53.562  0.00  0.00     0.022 A 
ATOM      9  C   UNL d   1     -42.161-121.996 -54.435  0.00  0.00     0.104 A 
ATOM     10  N   UNL d   1     -42.421-121.789 -55.182  0.00  0.00    -0.148 N 
ATOM     11  C   UNL d   1     -41.385-122.230 -54.316  0.00  0.00     0.023 A 
ENDROOT
BRANCH   3  12
ATOM     12  C   UNL d   1     -43.215-122.321 -51.036  0.00  0.00     0.019 A 
ATOM     13  C   UNL d   1     -43.379-121.593 -50.666  0.00  0.00     0.002 A 
ATOM     14  C   UNL d   1     -43.909-121.555 -50.029  0.00  0.00     0.000 A 
ATOM     15  C   UNL d   1     -44.280-122.249 -49.757  0.00  0.00     0.000 A 
ATOM     16  C   UNL d   1     -44.110-122.978 -50.133  0.00  0.00     0.000 A 
ATOM     17  C   UNL d   1     -43.583-123.009 -50.765  0.00  0.00     0.002 A 
ENDBRANCH   3  12
BRANCH   4  18
ATOM     18  C   UNL d   1     -41.655-122.793 -50.797  0.00  0.00     0.019 A 
ATOM     19  C   UNL d   1     -41.628-123.598 -50.579  0.00  0.00     0.002 A 
ATOM     20  C   UNL d   1     -41.363-123.815 -49.822  0.00  0.00     0.000 A 
ATOM     21  C   UNL d   1     -41.123-123.228 -49.279  0.00  0.00     0.000 A 
ATOM     22  C   UNL d   1     -41.148-122.425 -49.494  0.00  0.00     0.000 A 
ATOM     23  C   UNL d   1     -41.414-122.206 -50.254  0.00  0.00     0.002 A 
ENDBRANCH   4  18
TORSDOF 2
ENDMDL
