MODEL 1
REMARK VINA RESULT:      -8.4      0.000      0.000
REMARK  1 active torsions:
REMARK  status: ('A' for Active; 'I' for Inactive)
REMARK    1  A    between atoms: C_2  and  C_1 
ROOT
ATOM      1  C   UNL d   1     -47.889  13.114  23.093  0.00  0.00     0.089 A 
ATOM      2  C   UNL d   1     -48.330  13.805  23.049  0.00  0.00     0.302 A 
ATOM      3  C   UNL d   1     -48.259  12.389  23.268  0.00  0.00     0.009 A 
ATOM      4  O   UNL d   1     -49.146  13.779  23.179  0.00  0.00    -0.273 OA
ATOM      5  C   UNL d   1     -49.077  12.374  23.396  0.00  0.00     0.023 A 
ATOM      6  C   UNL d   1     -49.518  13.065  23.352  0.00  0.00     0.103 A 
ATOM      7  O   UNL d   1     -47.943  14.516  22.875  0.00  0.00    -0.259 OA
ATOM      8  C   UNL d   1     -49.445  11.651  23.570  0.00  0.00     0.002 A 
ATOM      9  C   UNL d   1     -50.333  13.040  23.481  0.00  0.00     0.025 A 
ATOM     10  C   UNL d   1     -50.263  11.636  23.698  0.00  0.00     0.000 A 
ATOM     11  C   UNL d   1     -50.704  12.327  23.654  0.00  0.00     0.002 A 
ENDROOT
BRANCH   1  12
ATOM     12  C   UNL d   1     -47.067  13.143  22.962  0.00  0.00     0.140 A 
ATOM     13  S   UNL d   1     -46.609  13.207  22.283  0.00  0.00    -0.024 SA
ATOM     14  C   UNL d   1     -45.826  13.207  22.511  0.00  0.00     0.236 A 
ATOM     15  N   UNL d   1     -45.157  13.262  22.012  0.00  0.00    -0.118 N 
ATOM     16  N   UNL d   1     -45.781  13.146  23.315  0.00  0.00    -0.119 NA
ATOM     17  N   UNL d   1     -46.547  13.105  23.610  0.00  0.00    -0.139 NA
ENDBRANCH   1  12
TORSDOF 1
ENDMDL
MODEL 2
REMARK VINA RESULT:      -8.1      2.403      3.723
REMARK  1 active torsions:
REMARK  status: ('A' for Active; 'I' for Inactive)
REMARK    1  A    between atoms: C_2  and  C_1 
ROOT
ATOM      1  C   UNL d   1     -48.783  14.190  23.018  0.00  0.00     0.089 A 
ATOM      2  C   UNL d   1     -48.909  13.389  23.148  0.00  0.00     0.302 A 
ATOM      3  C   UNL d   1     -48.015  14.476  22.874  0.00  0.00     0.009 A 
ATOM      4  O   UNL d   1     -48.269  12.866  23.135  0.00  0.00    -0.273 OA
ATOM      5  C   UNL d   1     -47.380  13.944  22.863  0.00  0.00     0.023 A 
ATOM      6  C   UNL d   1     -47.507  13.143  22.993  0.00  0.00     0.103 A 
ATOM      7  O   UNL d   1     -49.680  13.124  23.290  0.00  0.00    -0.259 OA
ATOM      8  C   UNL d   1     -46.615  14.230  22.719  0.00  0.00     0.002 A 
ATOM      9  C   UNL d   1     -46.868  12.620  22.980  0.00  0.00     0.025 A 
ATOM     10  C   UNL d   1     -45.981  13.698  22.708  0.00  0.00     0.000 A 
ATOM     11  C   UNL d   1     -46.107  12.897  22.838  0.00  0.00     0.002 A 
ENDROOT
BRANCH   1  12
ATOM     12  C   UNL d   1     -49.429  14.714  23.032  0.00  0.00     0.140 A 
ATOM     13  S   UNL d   1     -49.912  14.995  23.635  0.00  0.00    -0.024 SA
ATOM     14  C   UNL d   1     -50.457  15.501  23.301  0.00  0.00     0.236 A 
ATOM     15  N   UNL d   1     -51.062  15.920  23.698  0.00  0.00    -0.118 N 
ATOM     16  N   UNL d   1     -50.329  15.545  22.505  0.00  0.00    -0.119 NA
ATOM     17  N   UNL d   1     -49.691  15.060  22.323  0.00  0.00    -0.139 NA
ENDBRANCH   1  12
TORSDOF 1
ENDMDL
MODEL 3
REMARK VINA RESULT:      -8.1      1.137      1.814
REMARK  1 active torsions:
REMARK  status: ('A' for Active; 'I' for Inactive)
REMARK    1  A    between atoms: C_2  and  C_1 
ROOT
ATOM      1  C   UNL d   1     -47.817  13.703  22.909  0.00  0.00     0.089 A 
ATOM      2  C   UNL d   1     -48.331  13.078  23.048  0.00  0.00     0.302 A 
ATOM      3  C   UNL d   1     -48.106  14.482  22.865  0.00  0.00     0.009 A 
ATOM      4  O   UNL d   1     -49.139  13.225  23.143  0.00  0.00    -0.273 OA
ATOM      5  C   UNL d   1     -48.917  14.619  22.963  0.00  0.00     0.023 A 
ATOM      6  C   UNL d   1     -49.431  13.994  23.101  0.00  0.00     0.103 A 
ATOM      7  O   UNL d   1     -48.025  12.310  23.088  0.00  0.00    -0.259 OA
ATOM      8  C   UNL d   1     -49.204  15.397  22.919  0.00  0.00     0.002 A 
ATOM      9  C   UNL d   1     -50.237  14.140  23.197  0.00  0.00     0.025 A 
ATOM     10  C   UNL d   1     -50.014  15.533  23.016  0.00  0.00     0.000 A 
ATOM     11  C   UNL d   1     -50.528  14.908  23.154  0.00  0.00     0.002 A 
ENDROOT
BRANCH   1  12
ATOM     12  C   UNL d   1     -47.004  13.552  22.813  0.00  0.00     0.140 A 
ATOM     13  S   UNL d   1     -46.538  13.386  22.157  0.00  0.00    -0.024 SA
ATOM     14  C   UNL d   1     -45.771  13.289  22.417  0.00  0.00     0.236 A 
ATOM     15  N   UNL d   1     -45.101  13.114  21.948  0.00  0.00    -0.118 N 
ATOM     16  N   UNL d   1     -45.744  13.390  23.217  0.00  0.00    -0.119 NA
ATOM     17  N   UNL d   1     -46.506  13.554  23.479  0.00  0.00    -0.139 NA
ENDBRANCH   1  12
TORSDOF 1
ENDMDL
MODEL 4
REMARK VINA RESULT:      -6.2      8.740      9.714
REMARK  1 active torsions:
REMARK  status: ('A' for Active; 'I' for Inactive)
REMARK    1  A    between atoms: C_2  and  C_1 
ROOT
ATOM      1  C   UNL d   1     -39.761  14.270  18.672  0.00  0.00     0.089 A 
ATOM      2  C   UNL d   1     -40.582  14.286  18.682  0.00  0.00     0.302 A 
ATOM      3  C   UNL d   1     -39.327  14.628  19.285  0.00  0.00     0.009 A 
ATOM      4  O   UNL d   1     -40.978  14.662  19.303  0.00  0.00    -0.273 OA
ATOM      5  C   UNL d   1     -39.733  15.001  19.903  0.00  0.00     0.023 A 
ATOM      6  C   UNL d   1     -40.553  15.018  19.912  0.00  0.00     0.103 A 
ATOM      7  O   UNL d   1     -40.996  13.924  18.063  0.00  0.00    -0.259 OA
ATOM      8  C   UNL d   1     -39.298  15.358  20.514  0.00  0.00     0.002 A 
ATOM      9  C   UNL d   1     -40.949  15.392  20.532  0.00  0.00     0.025 A 
ATOM     10  C   UNL d   1     -39.704  15.731  21.131  0.00  0.00     0.000 A 
ATOM     11  C   UNL d   1     -40.525  15.748  21.140  0.00  0.00     0.002 A 
ENDROOT
BRANCH   1  12
ATOM     12  C   UNL d   1     -39.366  13.891  18.045  0.00  0.00     0.140 A 
ATOM     13  S   UNL d   1     -39.056  14.160  17.333  0.00  0.00    -0.024 SA
ATOM     14  C   UNL d   1     -38.732  13.519  16.946  0.00  0.00     0.236 A 
ATOM     15  N   UNL d   1     -38.352  13.522  16.201  0.00  0.00    -0.118 N 
ATOM     16  N   UNL d   1     -38.830  12.857  17.397  0.00  0.00    -0.119 NA
ATOM     17  N   UNL d   1     -39.224  13.073  18.085  0.00  0.00    -0.139 NA
ENDBRANCH   1  12
TORSDOF 1
ENDMDL
