MODEL 1
REMARK VINA RESULT:       8.9      0.000      0.000
REMARK  4 active torsions:
REMARK  status: ('A' for Active; 'I' for Inactive)
REMARK    1  A    between atoms: C_14  and  N_1 
REMARK    2  A    between atoms: S_12  and  C_2 
REMARK       I    between atoms: N_7  and  C_10 
REMARK    3  A    between atoms: C_10  and  C_16 
REMARK    4  A    between atoms: C_16  and  S_12 
ROOT
ATOM      1  N   UNL d   1     -42.951-122.848 -49.316  0.00  0.00    -0.254 N 
ATOM      2  C   UNL d   1     -42.250-123.019 -49.717  0.00  0.00     0.183 A 
ATOM      3  N   UNL d   1     -41.611-123.337 -49.306  0.00  0.00    -0.201 NA
ATOM      4  C   UNL d   1     -43.013-122.994 -48.499  0.00  0.00     0.271 A 
ATOM      5  C   UNL d   1     -42.367-123.314 -48.092  0.00  0.00     0.115 A 
ATOM      6  C   UNL d   1     -41.665-123.485 -48.498  0.00  0.00     0.192 A 
ATOM      7  N   UNL d   1     -41.491-123.814 -47.220  0.00  0.00    -0.145 NA
ATOM      8  N   UNL d   1     -41.124-123.796 -47.951  0.00  0.00    -0.128 NA
ATOM      9  C   UNL d   1     -42.256-123.521 -47.293  0.00  0.00     0.130 A 
ATOM     10  O   UNL d   1     -43.723-122.820 -48.097  0.00  0.00    -0.266 OA
ENDROOT
BRANCH   2  11
ATOM     11  S   UNL d   1     -42.194-122.873 -50.520  0.00  0.00    -0.044 SA
BRANCH  11  12
ATOM     12  C   UNL d   1     -41.447-122.880 -50.896  0.00  0.00     0.099 C 
BRANCH  12  13
ATOM     13  C   UNL d   1     -41.394-123.037 -51.703  0.00  0.00     0.271 C 
ATOM     14  N   UNL d   1     -41.312-122.418 -52.241  0.00  0.00    -0.273 N 
ATOM     15  C   UNL d   1     -41.258-122.573 -53.043  0.00  0.00     0.067 A 
ATOM     16  C   UNL d   1     -41.284-121.642 -51.962  0.00  0.00     0.083 A 
ATOM     17  C   UNL d   1     -41.176-121.950 -53.580  0.00  0.00     0.016 A 
ATOM     18  C   UNL d   1     -41.286-123.350 -53.318  0.00  0.00     0.018 A 
ATOM     19  C   UNL d   1     -41.123-122.112 -54.385  0.00  0.00     0.001 A 
ATOM     20  C   UNL d   1     -41.147-121.178 -53.316  0.00  0.00     0.003 A 
ATOM     21  C   UNL d   1     -41.150-122.888 -54.664  0.00  0.00     0.000 A 
ATOM     22  C   UNL d   1     -41.232-123.507 -54.125  0.00  0.00     0.002 A 
ATOM     23  C   UNL d   1     -41.201-121.017 -52.498  0.00  0.00     0.019 A 
ATOM     24  O   UNL d   1     -41.422-123.816 -51.970  0.00  0.00    -0.266 OA
ENDBRANCH  12  13
ENDBRANCH  11  12
ENDBRANCH   2  11
BRANCH   1  25
ATOM     25  C   UNL d   1     -43.599-122.526 -49.726  0.00  0.00     0.069 A 
ATOM     26  C   UNL d   1     -44.144-123.031 -50.085  0.00  0.00     0.018 A 
ATOM     27  C   UNL d   1     -44.791-122.713 -50.494  0.00  0.00     0.002 A 
ATOM     28  C   UNL d   1     -44.886-121.892 -50.540  0.00  0.00     0.000 A 
ATOM     29  C   UNL d   1     -44.336-121.395 -50.178  0.00  0.00     0.002 A 
ATOM     30  C   UNL d   1     -43.693-121.715 -49.771  0.00  0.00     0.018 A 
ENDBRANCH   1  25
TORSDOF 4
ENDMDL
