MODEL 1
REMARK VINA RESULT:     129.0      0.000      0.000
REMARK  7 active torsions:
REMARK  status: ('A' for Active; 'I' for Inactive)
REMARK    1  A    between atoms: C_7  and  C_1 
REMARK    2  A    between atoms: N_5  and  C_2 
REMARK       I    between atoms: C_8  and  N_5 
REMARK    3  A    between atoms: N_9  and  C_7 
REMARK    4  A    between atoms: C_12  and  C_7 
REMARK    5  A    between atoms: C_10  and  C_8 
REMARK    6  A    between atoms: C_26  and  N_11 
REMARK    7  A    between atoms: C_30  and  C_26 
ROOT
ATOM      1  C   UNL d   1     -55.380-101.512 -43.388  0.00  0.00     0.068 C 
ENDROOT
BRANCH   1   2
ATOM      2  C   UNL d   1     -55.140-100.694 -43.322  0.00  0.00     0.041 A 
ATOM      3  C   UNL d   1     -54.936-100.223 -42.694  0.00  0.00     0.115 A 
ATOM      4  S   UNL d   1     -54.757 -99.476 -43.000  0.00  0.00    -0.068 SA
ATOM      5  C   UNL d   1     -54.842 -99.459 -43.812  0.00  0.00     0.031 A 
ATOM      6  C   UNL d   1     -55.090-100.242 -44.038  0.00  0.00     0.009 A 
ATOM      7  C   UNL d   1     -54.713 -98.818 -44.307  0.00  0.00     0.007 C 
ATOM      8  C   UNL d   1     -55.246-100.492 -44.804  0.00  0.00     0.001 C 
BRANCH   3   9
ATOM      9  N   UNL d   1     -54.909-100.434 -41.904  0.00  0.00    -0.200 NA
ATOM     10  C   UNL d   1     -54.801 -99.843 -41.336  0.00  0.00     0.302 C 
ATOM     11  O   UNL d   1     -54.724 -99.055 -41.570  0.00  0.00    -0.263 OA
BRANCH  10  12
ATOM     12  C   UNL d   1     -54.770-100.026 -40.533  0.00  0.00     0.158 A 
ATOM     13  O   UNL d   1     -54.732-100.775 -40.156  0.00  0.00    -0.300 OA
ATOM     14  C   UNL d   1     -54.712-100.631 -39.342  0.00  0.00     0.123 A 
ATOM     15  C   UNL d   1     -54.738 -99.821 -39.237  0.00  0.00     0.029 A 
ATOM     16  C   UNL d   1     -54.774 -99.431 -39.959  0.00  0.00     0.032 A 
ENDBRANCH  10  12
ENDBRANCH   3   9
ENDBRANCH   1   2
BRANCH   1  17
ATOM     17  N   UNL d   1     -55.409-101.859 -44.170  0.00  0.00    -0.301 N 
ATOM     18  C   UNL d   1     -56.133-101.866 -44.561  0.00  0.00     0.100 A 
ATOM     19  C   UNL d   1     -56.161-102.198 -45.313  0.00  0.00     0.100 A 
ATOM     20  N   UNL d   1     -55.469-102.523 -45.672  0.00  0.00    -0.297 N 
ATOM     21  C   UNL d   1     -54.773-102.503 -45.266  0.00  0.00     0.100 A 
ATOM     22  C   UNL d   1     -54.717-102.183 -44.529  0.00  0.00     0.100 A 
BRANCH  20  23
ATOM     23  C   UNL d   1     -55.517-102.860 -46.444  0.00  0.00     0.126 C 
BRANCH  23  24
ATOM     24  C   UNL d   1     -55.374-102.387 -47.128  0.00  0.00     0.253 C 
ATOM     25  O   UNL d   1     -55.892-102.427 -47.788  0.00  0.00    -0.281 OA
ENDBRANCH  23  24
ENDBRANCH  20  23
ENDBRANCH   1  17
BRANCH   1  26
ATOM     26  C   UNL d   1     -55.582-101.961 -42.708  0.00  0.00     0.035 A 
ATOM     27  C   UNL d   1     -56.385-102.007 -42.481  0.00  0.00     0.100 A 
ATOM     28  N   UNL d   1     -56.587-102.457 -41.798  0.00  0.00    -0.242 NA
ATOM     29  C   UNL d   1     -55.974-102.835 -41.382  0.00  0.00     0.099 A 
ATOM     30  C   UNL d   1     -55.201-102.787 -41.605  0.00  0.00     0.021 A 
ATOM     31  C   UNL d   1     -54.998-102.337 -42.288  0.00  0.00     0.005 A 
ENDBRANCH   1  26
TORSDOF 7
ENDMDL
