MODEL 1
REMARK VINA RESULT:      -5.0      0.000      0.000
REMARK  1 active torsions:
REMARK  status: ('A' for Active; 'I' for Inactive)
REMARK    1  A    between atoms: C_5  and  C_1 
ROOT
ATOM      1  C   UNL d   1     -41.920-122.295 -54.560  0.00  0.00     0.169 A 
ATOM      2  N   UNL d   1     -42.097-121.994 -53.820  0.00  0.00    -0.142 NA
ATOM      3  C   UNL d   1     -41.535-123.010 -54.456  0.00  0.00     0.048 A 
ATOM      4  N   UNL d   1     -41.822-122.525 -53.250  0.00  0.00    -0.148 NA
ATOM      5  C   UNL d   1     -41.472-123.157 -53.646  0.00  0.00     0.105 A 
ATOM      6  C   UNL d   1     -41.123-123.817 -53.296  0.00  0.00     0.023 C 
ENDROOT
BRANCH   1   7
ATOM      7  C   UNL d   1     -42.098-121.938 -55.287  0.00  0.00     0.231 C 
ATOM      8  O   UNL d   1     -41.501-121.565 -55.716  0.00  0.00    -0.643 OA
ATOM      9  O   UNL d   1     -42.867-121.958 -55.578  0.00  0.00    -0.643 OA
ENDBRANCH   1   7
TORSDOF 1
ENDMDL
MODEL 2
REMARK VINA RESULT:      -3.9      2.154      2.469
REMARK  1 active torsions:
REMARK  status: ('A' for Active; 'I' for Inactive)
REMARK    1  A    between atoms: C_5  and  C_1 
ROOT
ATOM      1  C   UNL d   1     -41.487-122.325 -52.803  0.00  0.00     0.169 A 
ATOM      2  N   UNL d   1     -41.949-121.899 -53.328  0.00  0.00    -0.142 NA
ATOM      3  C   UNL d   1     -41.125-122.929 -53.220  0.00  0.00     0.048 A 
ATOM      4  N   UNL d   1     -41.875-122.239 -54.077  0.00  0.00    -0.148 NA
ATOM      5  C   UNL d   1     -41.362-122.880 -54.010  0.00  0.00     0.105 A 
ATOM      6  C   UNL d   1     -41.128-123.382 -54.621  0.00  0.00     0.023 C 
ENDROOT
BRANCH   1   7
ATOM      7  C   UNL d   1     -41.401-122.172 -51.993  0.00  0.00     0.231 C 
ATOM      8  O   UNL d   1     -41.123-121.438 -51.743  0.00  0.00    -0.643 OA
ATOM      9  O   UNL d   1     -41.594-122.752 -51.441  0.00  0.00    -0.643 OA
ENDBRANCH   1   7
TORSDOF 1
ENDMDL
MODEL 3
REMARK VINA RESULT:      -3.7     10.353     10.488
REMARK  1 active torsions:
REMARK  status: ('A' for Active; 'I' for Inactive)
REMARK    1  A    between atoms: C_5  and  C_1 
ROOT
ATOM      1  C   UNL d   1     -43.127-114.860 -47.372  0.00  0.00     0.169 A 
ATOM      2  N   UNL d   1     -42.713-114.175 -47.545  0.00  0.00    -0.142 NA
ATOM      3  C   UNL d   1     -42.586-115.430 -47.142  0.00  0.00     0.048 A 
ATOM      4  N   UNL d   1     -41.909-114.318 -47.422  0.00  0.00    -0.148 NA
ATOM      5  C   UNL d   1     -41.830-115.099 -47.172  0.00  0.00     0.105 A 
ATOM      6  C   UNL d   1     -41.123-115.482 -46.984  0.00  0.00     0.023 C 
ENDROOT
BRANCH   1   7
ATOM      7  C   UNL d   1     -43.949-114.959 -47.421  0.00  0.00     0.231 C 
ATOM      8  O   UNL d   1     -44.289-115.199 -48.132  0.00  0.00    -0.643 OA
ATOM      9  O   UNL d   1     -44.421-114.817 -46.763  0.00  0.00    -0.643 OA
ENDBRANCH   1   7
TORSDOF 1
ENDMDL
MODEL 4
REMARK VINA RESULT:      -3.6      2.610      3.025
REMARK  1 active torsions:
REMARK  status: ('A' for Active; 'I' for Inactive)
REMARK    1  A    between atoms: C_5  and  C_1 
ROOT
ATOM      1  C   UNL d   1     -41.585-122.471 -51.773  0.00  0.00     0.169 A 
ATOM      2  N   UNL d   1     -42.240-122.167 -51.385  0.00  0.00    -0.142 NA
ATOM      3  C   UNL d   1     -41.123-122.858 -51.219  0.00  0.00     0.048 A 
ATOM      4  N   UNL d   1     -42.185-122.365 -50.586  0.00  0.00    -0.148 NA
ATOM      5  C   UNL d   1     -41.490-122.795 -50.482  0.00  0.00     0.105 A 
ATOM      6  C   UNL d   1     -41.211-123.107 -49.771  0.00  0.00     0.023 C 
ENDROOT
BRANCH   1   7
ATOM      7  C   UNL d   1     -41.421-122.399 -52.582  0.00  0.00     0.231 C 
ATOM      8  O   UNL d   1     -41.557-123.038 -53.084  0.00  0.00    -0.643 OA
ATOM      9  O   UNL d   1     -41.123-121.693 -52.881  0.00  0.00    -0.643 OA
ENDBRANCH   1   7
TORSDOF 1
ENDMDL
MODEL 5
REMARK VINA RESULT:      -3.4      4.508      5.007
REMARK  1 active torsions:
REMARK  status: ('A' for Active; 'I' for Inactive)
REMARK    1  A    between atoms: C_5  and  C_1 
ROOT
ATOM      1  C   UNL d   1     -42.610-122.771 -49.720  0.00  0.00     0.169 A 
ATOM      2  N   UNL d   1     -43.034-122.301 -50.240  0.00  0.00    -0.142 NA
ATOM      3  C   UNL d   1     -41.847-122.839 -50.008  0.00  0.00     0.048 A 
ATOM      4  N   UNL d   1     -42.533-122.075 -50.856  0.00  0.00    -0.148 NA
ATOM      5  C   UNL d   1     -41.794-122.410 -50.711  0.00  0.00     0.105 A 
ATOM      6  C   UNL d   1     -41.123-122.330 -51.184  0.00  0.00     0.023 C 
ENDROOT
BRANCH   1   7
ATOM      7  C   UNL d   1     -42.902-123.115 -49.025  0.00  0.00     0.231 C 
ATOM      8  O   UNL d   1     -42.760-122.753 -48.298  0.00  0.00    -0.643 OA
ATOM      9  O   UNL d   1     -43.331-123.816 -49.061  0.00  0.00    -0.643 OA
ENDBRANCH   1   7
TORSDOF 1
ENDMDL
MODEL 6
REMARK VINA RESULT:      -3.1     10.329     10.540
REMARK  1 active torsions:
REMARK  status: ('A' for Active; 'I' for Inactive)
REMARK    1  A    between atoms: C_5  and  C_1 
ROOT
ATOM      1  C   UNL d   1     -42.343-114.830 -47.337  0.00  0.00     0.169 A 
ATOM      2  N   UNL d   1     -42.680-114.483 -46.676  0.00  0.00    -0.142 NA
ATOM      3  C   UNL d   1     -42.948-115.136 -47.796  0.00  0.00     0.048 A 
ATOM      4  N   UNL d   1     -43.499-114.574 -46.722  0.00  0.00    -0.148 NA
ATOM      5  C   UNL d   1     -43.666-114.980 -47.419  0.00  0.00     0.105 A 
ATOM      6  C   UNL d   1     -44.415-115.193 -47.692  0.00  0.00     0.023 C 
ENDROOT
BRANCH   1   7
ATOM      7  C   UNL d   1     -41.533-114.864 -47.510  0.00  0.00     0.231 C 
ATOM      8  O   UNL d   1     -41.123-115.571 -47.404  0.00  0.00    -0.643 OA
ATOM      9  O   UNL d   1     -41.142-114.195 -47.787  0.00  0.00    -0.643 OA
ENDBRANCH   1   7
TORSDOF 1
ENDMDL
MODEL 7
REMARK VINA RESULT:      -3.0      4.612      5.053
REMARK  1 active torsions:
REMARK  status: ('A' for Active; 'I' for Inactive)
REMARK    1  A    between atoms: C_5  and  C_1 
ROOT
ATOM      1  C   UNL d   1     -42.539-122.932 -49.772  0.00  0.00     0.169 A 
ATOM      2  N   UNL d   1     -43.150-123.468 -49.871  0.00  0.00    -0.142 NA
ATOM      3  C   UNL d   1     -42.320-122.943 -48.983  0.00  0.00     0.048 A 
ATOM      4  N   UNL d   1     -43.313-123.815 -49.140  0.00  0.00    -0.148 NA
ATOM      5  C   UNL d   1     -42.797-123.489 -48.587  0.00  0.00     0.105 A 
ATOM      6  C   UNL d   1     -42.763-123.674 -47.784  0.00  0.00     0.023 C 
ENDROOT
BRANCH   1   7
ATOM      7  C   UNL d   1     -42.201-122.461 -50.365  0.00  0.00     0.231 C 
ATOM      8  O   UNL d   1     -41.392-122.509 -50.513  0.00  0.00    -0.643 OA
ATOM      9  O   UNL d   1     -42.673-121.949 -50.802  0.00  0.00    -0.643 OA
ENDBRANCH   1   7
TORSDOF 1
ENDMDL
MODEL 8
REMARK VINA RESULT:      -2.3      5.158      5.617
REMARK  1 active torsions:
REMARK  status: ('A' for Active; 'I' for Inactive)
REMARK    1  A    between atoms: C_5  and  C_1 
ROOT
ATOM      1  C   UNL d   1     -42.499-122.669 -49.055  0.00  0.00     0.169 A 
ATOM      2  N   UNL d   1     -43.022-122.446 -48.466  0.00  0.00    -0.142 NA
ATOM      3  C   UNL d   1     -41.848-123.013 -48.697  0.00  0.00     0.048 A 
ATOM      4  N   UNL d   1     -42.695-122.652 -47.736  0.00  0.00    -0.148 NA
ATOM      5  C   UNL d   1     -41.965-123.005 -47.880  0.00  0.00     0.105 A 
ATOM      6  C   UNL d   1     -41.445-123.298 -47.310  0.00  0.00     0.023 C 
ENDROOT
BRANCH   1   7
ATOM      7  C   UNL d   1     -42.609-122.564 -49.870  0.00  0.00     0.231 C 
ATOM      8  O   UNL d   1     -41.977-122.320 -50.339  0.00  0.00    -0.643 OA
ATOM      9  O   UNL d   1     -43.346-122.705 -50.208  0.00  0.00    -0.643 OA
ENDBRANCH   1   7
TORSDOF 1
ENDMDL
