MODEL 1
REMARK VINA RESULT:       9.6      0.000      0.000
REMARK  2 active torsions:
REMARK  status: ('A' for Active; 'I' for Inactive)
REMARK    1  A    between atoms: C_2  and  C_1 
REMARK    2  A    between atoms: C_6  and  C_2 
ROOT
ATOM      1  C   UNL d   1      24.370  12.703  -1.538  0.00  0.00     0.059 A 
ATOM      2  C   UNL d   1      24.597  13.466  -1.718  0.00  0.00     0.106 A 
ATOM      3  C   UNL d   1      24.310  12.135  -2.121  0.00  0.00     0.011 A 
ATOM      4  C   UNL d   1      24.766  13.672  -2.485  0.00  0.00     0.021 A 
ATOM      5  C   UNL d   1      24.484  12.341  -2.922  0.00  0.00     0.035 A 
ATOM      6  N   UNL d   1      24.651  14.023  -1.112  0.00  0.00    -0.148 N 
ATOM      7  C   UNL d   1      24.707  13.105  -3.081  0.00  0.00     0.008 A 
ATOM      8 BR   UNL d   1      24.426  11.781  -3.510  0.00  0.00    -0.049 Br
ENDROOT
BRANCH   1   9
ATOM      9  C   UNL d   1      24.197  12.496  -0.751  0.00  0.00     0.197 C 
ATOM     10  O   UNL d   1      24.765  12.244  -0.206  0.00  0.00    -0.286 OA
BRANCH   9  11
ATOM     11  C   UNL d   1      23.418  12.546  -0.507  0.00  0.00     0.039 A 
ATOM     12  C   UNL d   1      23.093  13.266  -0.304  0.00  0.00     0.003 A 
ATOM     13  C   UNL d   1      22.301  13.320  -0.056  0.00  0.00     0.000 A 
ATOM     14  C   UNL d   1      21.836  12.623  -0.016  0.00  0.00     0.000 A 
ATOM     15  C   UNL d   1      22.166  11.890  -0.222  0.00  0.00     0.000 A 
ATOM     16  C   UNL d   1      22.965  11.866  -0.468  0.00  0.00     0.003 A 
ENDBRANCH   9  11
ENDBRANCH   1   9
TORSDOF 2
ENDMDL
