MODEL 1
REMARK VINA RESULT:      -2.0      0.000      0.000
REMARK  5 active torsions:
REMARK  status: ('A' for Active; 'I' for Inactive)
REMARK    1  A    between atoms: N_9  and  C_1 
REMARK    2  A    between atoms: C_12  and  C_2 
REMARK       I    between atoms: C_13  and  N_9 
REMARK    3  A    between atoms: C_11  and  C_14 
REMARK    4  A    between atoms: O_19  and  C_12 
REMARK    5  A    between atoms: C_14  and  C_13 
ROOT
ATOM      1  C   UNL d   1     -41.457-122.330 -51.771  0.00  0.00     0.119 A 
ATOM      2  C   UNL d   1     -41.733-122.516 -50.999  0.00  0.00     0.087 A 
ATOM      3  S   UNL d   1     -41.196-121.548 -51.792  0.00  0.00    -0.068 SA
ATOM      4  C   UNL d   1     -41.638-121.841 -50.554  0.00  0.00     0.013 A 
ATOM      5  C   UNL d   1     -41.307-121.237 -51.032  0.00  0.00     0.031 A 
ATOM      6  C   UNL d   1     -41.840-121.786 -49.763  0.00  0.00     0.001 C 
ATOM      7  C   UNL d   1     -41.123-120.469 -50.793  0.00  0.00     0.007 C 
ENDROOT
BRANCH   1   8
ATOM      8  N   UNL d   1     -41.417-122.795 -52.459  0.00  0.00    -0.201 NA
ATOM      9  C   UNL d   1     -41.300-122.441 -53.193  0.00  0.00     0.280 C 
ATOM     10  O   UNL d   1     -41.219-121.607 -53.260  0.00  0.00    -0.265 OA
BRANCH   9  11
ATOM     11  C   UNL d   1     -41.259-122.915 -53.893  0.00  0.00     0.074 C 
BRANCH  11  12
ATOM     12  C   UNL d   1     -41.744-122.755 -54.552  0.00  0.00     0.095 A 
ATOM     13  C   UNL d   1     -42.419-123.148 -54.747  0.00  0.00     0.287 A 
ATOM     14  N   UNL d   1     -42.721-122.810 -55.438  0.00  0.00    -0.181 NA
ATOM     15  O   UNL d   1     -42.764-123.787 -54.335  0.00  0.00    -0.265 OA
ATOM     16  C   UNL d   1     -42.202-122.197 -55.651  0.00  0.00     0.217 A 
ATOM     17  S   UNL d   1     -41.593-122.169 -55.090  0.00  0.00    -0.042 SA
ATOM     18  N   UNL d   1     -42.294-121.699 -56.322  0.00  0.00    -0.119 N 
ENDBRANCH  11  12
ENDBRANCH   9  11
ENDBRANCH   1   8
BRANCH   2  19
ATOM     19  C   UNL d   1     -42.037-123.214 -50.727  0.00  0.00     0.298 C 
ATOM     20  O   UNL d   1     -41.530-123.801 -50.498  0.00  0.00    -0.259 OA
BRANCH  19  21
ATOM     21  O   UNL d   1     -42.843-123.317 -50.689  0.00  0.00    -0.296 OA
ATOM     22  C   UNL d   1     -43.168-123.817 -50.133  0.00  0.00     0.185 C 
ENDBRANCH  19  21
ENDBRANCH   2  19
TORSDOF 5
ENDMDL
MODEL 2
REMARK VINA RESULT:      -1.8      1.629      4.299
REMARK  5 active torsions:
REMARK  status: ('A' for Active; 'I' for Inactive)
REMARK    1  A    between atoms: N_9  and  C_1 
REMARK    2  A    between atoms: C_12  and  C_2 
REMARK       I    between atoms: C_13  and  N_9 
REMARK    3  A    between atoms: C_11  and  C_14 
REMARK    4  A    between atoms: O_19  and  C_12 
REMARK    5  A    between atoms: C_14  and  C_13 
ROOT
ATOM      1  C   UNL d   1     -41.479-122.562 -53.710  0.00  0.00     0.119 A 
ATOM      2  C   UNL d   1     -42.002-122.188 -54.253  0.00  0.00     0.087 A 
ATOM      3  S   UNL d   1     -41.123-123.213 -54.070  0.00  0.00    -0.068 SA
ATOM      4  C   UNL d   1     -41.958-122.618 -54.943  0.00  0.00     0.013 A 
ATOM      5  C   UNL d   1     -41.419-123.252 -54.843  0.00  0.00     0.031 A 
ATOM      6  C   UNL d   1     -42.385-122.438 -55.618  0.00  0.00     0.001 C 
ATOM      7  C   UNL d   1     -41.217-123.817 -55.409  0.00  0.00     0.007 C 
ENDROOT
BRANCH   1   8
ATOM      8  N   UNL d   1     -41.292-122.374 -52.922  0.00  0.00    -0.201 NA
ATOM      9  C   UNL d   1     -41.313-122.957 -52.341  0.00  0.00     0.280 C 
ATOM     10  O   UNL d   1     -41.522-123.748 -52.533  0.00  0.00    -0.265 OA
BRANCH   9  11
ATOM     11  C   UNL d   1     -41.122-122.766 -51.539  0.00  0.00     0.074 C 
BRANCH  11  12
ATOM     12  C   UNL d   1     -41.702-122.791 -50.939  0.00  0.00     0.095 A 
ATOM     13  C   UNL d   1     -41.945-122.167 -50.493  0.00  0.00     0.287 A 
ATOM     14  N   UNL d   1     -42.524-122.439 -49.969  0.00  0.00    -0.181 NA
ATOM     15  O   UNL d   1     -41.671-121.380 -50.539  0.00  0.00    -0.265 OA
ATOM     16  C   UNL d   1     -42.619-123.251 -50.117  0.00  0.00     0.217 A 
ATOM     17  S   UNL d   1     -42.100-123.463 -50.727  0.00  0.00    -0.042 SA
ATOM     18  N   UNL d   1     -43.154-123.755 -49.711  0.00  0.00    -0.119 N 
ENDBRANCH  11  12
ENDBRANCH   9  11
ENDBRANCH   1   8
BRANCH   2  19
ATOM     19  C   UNL d   1     -42.464-121.535 -54.139  0.00  0.00     0.298 C 
ATOM     20  O   UNL d   1     -43.263-121.629 -54.053  0.00  0.00    -0.259 OA
BRANCH  19  21
ATOM     21  O   UNL d   1     -42.124-120.798 -54.112  0.00  0.00    -0.296 OA
ATOM     22  C   UNL d   1     -42.510-120.178 -53.750  0.00  0.00     0.185 C 
ENDBRANCH  19  21
ENDBRANCH   2  19
TORSDOF 5
ENDMDL
