MODEL 1
REMARK VINA RESULT:     -10.9      0.000      0.000
REMARK  4 active torsions:
REMARK  status: ('A' for Active; 'I' for Inactive)
REMARK    1  A    between atoms: N_11  and  C_4 
REMARK    2  A    between atoms: C_22  and  N_15 
REMARK    3  A    between atoms: O_29  and  C_17 
REMARK    4  A    between atoms: C_21  and  C_22 
ROOT
ATOM      1  N   UNL d   1      52.232  33.176  52.977  0.00  0.00    -0.195 N 
ATOM      2  C   UNL d   1      52.834  32.991  53.480  0.00  0.00     0.168 A 
ATOM      3  C   UNL d   1      53.118  32.250  53.518  0.00  0.00     0.073 A 
ATOM      4  C   UNL d   1      51.962  33.921  52.954  0.00  0.00     0.153 A 
ATOM      5  N   UNL d   1      52.194  31.879  52.546  0.00  0.00    -0.143 NA
ATOM      6  C   UNL d   1      52.796  31.694  53.049  0.00  0.00     0.185 A 
ATOM      7  N   UNL d   1      53.149  33.556  53.946  0.00  0.00    -0.227 NA
ATOM      8  C   UNL d   1      53.713  32.067  54.015  0.00  0.00     0.007 A 
ATOM      9  N   UNL d   1      53.072  30.939  53.076  0.00  0.00    -0.225 NA
ATOM     10  C   UNL d   1      52.271  34.484  53.412  0.00  0.00     0.057 A 
ATOM     11  C   UNL d   1      53.996  31.325  54.052  0.00  0.00     0.019 A 
ATOM     12  C   UNL d   1      52.872  34.299  53.915  0.00  0.00     0.086 A 
ATOM     13  C   UNL d   1      53.674  30.754  53.579  0.00  0.00     0.083 A 
ATOM     14  C   UNL d   1      54.029  32.635  54.482  0.00  0.00     0.000 C 
ATOM     15  C   UNL d   1      53.198  34.890  54.398  0.00  0.00     0.021 C 
ATOM     16  C   UNL d   1      53.952  30.014  53.611  0.00  0.00     0.021 C 
ENDROOT
BRANCH   4  17
ATOM     17  N   UNL d   1      51.341  34.103  52.432  0.00  0.00    -0.286 N 
ATOM     18  C   UNL d   1      51.209  34.386  51.661  0.00  0.00     0.101 A 
ATOM     19  C   UNL d   1      50.442  34.480  51.372  0.00  0.00     0.100 A 
ATOM     20  N   UNL d   1      49.798  34.287  51.862  0.00  0.00    -0.300 N 
ATOM     21  C   UNL d   1      49.918  34.008  52.622  0.00  0.00     0.100 A 
ATOM     22  C   UNL d   1      50.691  33.913  52.916  0.00  0.00     0.101 A 
BRANCH  20  23
ATOM     23  C   UNL d   1      49.038  34.379  51.579  0.00  0.00     0.080 C 
BRANCH  23  24
ATOM     24  C   UNL d   1      48.529  34.966  51.894  0.00  0.00     0.020 A 
ATOM     25  C   UNL d   1      48.670  35.298  52.636  0.00  0.00     0.033 A 
ATOM     26  C   UNL d   1      48.162  35.882  52.948  0.00  0.00     0.162 A 
ATOM     27  F   UNL d   1      48.307  36.212  53.692  0.00  0.00    -0.202 F 
ATOM     28  C   UNL d   1      47.505  36.130  52.499  0.00  0.00     0.121 A 
ATOM     29  C   UNL d   1      47.354  35.803  51.752  0.00  0.00     0.027 A 
ATOM     30  C   UNL d   1      47.861  35.222  51.443  0.00  0.00     0.004 A 
BRANCH  28  31
ATOM     31  O   UNL d   1      46.999  36.709  52.805  0.00  0.00    -0.326 OA
ATOM     32  C   UNL d   1      46.194  36.705  52.620  0.00  0.00     0.181 C 
ENDBRANCH  28  31
ENDBRANCH  23  24
ENDBRANCH  20  23
ENDBRANCH   4  17
TORSDOF 4
ENDMDL
MODEL 2
REMARK VINA RESULT:     -10.0      2.266      6.246
REMARK  4 active torsions:
REMARK  status: ('A' for Active; 'I' for Inactive)
REMARK    1  A    between atoms: N_11  and  C_4 
REMARK    2  A    between atoms: C_22  and  N_15 
REMARK    3  A    between atoms: O_29  and  C_17 
REMARK    4  A    between atoms: C_21  and  C_22 
ROOT
ATOM      1  N   UNL d   1      47.919  35.398  52.229  0.00  0.00    -0.195 N 
ATOM      2  C   UNL d   1      47.254  35.795  52.454  0.00  0.00     0.168 A 
ATOM      3  C   UNL d   1      46.594  35.762  52.014  0.00  0.00     0.073 A 
ATOM      4  C   UNL d   1      48.569  35.442  52.682  0.00  0.00     0.153 A 
ATOM      5  N   UNL d   1      47.266  34.934  51.121  0.00  0.00    -0.143 NA
ATOM      6  C   UNL d   1      46.602  35.331  51.346  0.00  0.00     0.185 A 
ATOM      7  N   UNL d   1      47.258  36.225  53.126  0.00  0.00    -0.227 NA
ATOM      8  C   UNL d   1      45.937  36.154  52.237  0.00  0.00     0.007 A 
ATOM      9  N   UNL d   1      45.941  35.288  50.890  0.00  0.00    -0.225 NA
ATOM     10  C   UNL d   1      48.577  35.867  53.347  0.00  0.00     0.057 A 
ATOM     11  C   UNL d   1      45.277  36.121  51.796  0.00  0.00     0.019 A 
ATOM     12  C   UNL d   1      47.912  36.263  53.572  0.00  0.00     0.086 A 
ATOM     13  C   UNL d   1      45.276  35.684  51.115  0.00  0.00     0.083 A 
ATOM     14  C   UNL d   1      45.941  36.586  52.911  0.00  0.00     0.000 C 
ATOM     15  C   UNL d   1      47.920  36.709  54.272  0.00  0.00     0.021 C 
ATOM     16  C   UNL d   1      44.623  35.647  50.672  0.00  0.00     0.021 C 
ENDROOT
BRANCH   4  17
ATOM     17  N   UNL d   1      49.250  35.030  52.442  0.00  0.00    -0.286 N 
ATOM     18  C   UNL d   1      49.697  34.866  51.760  0.00  0.00     0.101 A 
ATOM     19  C   UNL d   1      50.375  34.398  51.803  0.00  0.00     0.100 A 
ATOM     20  N   UNL d   1      50.609  34.092  52.541  0.00  0.00    -0.300 N 
ATOM     21  C   UNL d   1      50.176  34.249  53.217  0.00  0.00     0.100 A 
ATOM     22  C   UNL d   1      49.491  34.720  53.176  0.00  0.00     0.101 A 
BRANCH  20  23
ATOM     23  C   UNL d   1      51.280  33.629  52.587  0.00  0.00     0.080 C 
BRANCH  23  24
ATOM     24  C   UNL d   1      51.916  33.843  53.089  0.00  0.00     0.020 A 
ATOM     25  C   UNL d   1      52.289  34.575  53.017  0.00  0.00     0.033 A 
ATOM     26  C   UNL d   1      52.922  34.786  53.519  0.00  0.00     0.162 A 
ATOM     27  F   UNL d   1      53.293  35.521  53.443  0.00  0.00    -0.202 F 
ATOM     28  C   UNL d   1      53.177  34.244  54.099  0.00  0.00     0.121 A 
ATOM     29  C   UNL d   1      52.810  33.505  54.180  0.00  0.00     0.027 A 
ATOM     30  C   UNL d   1      52.180  33.298  53.680  0.00  0.00     0.004 A 
BRANCH  28  31
ATOM     31  O   UNL d   1      53.805  34.449  54.598  0.00  0.00    -0.326 OA
ATOM     32  C   UNL d   1      54.136  33.891  55.108  0.00  0.00     0.181 C 
ENDBRANCH  28  31
ENDBRANCH  23  24
ENDBRANCH  20  23
ENDBRANCH   4  17
TORSDOF 4
ENDMDL
MODEL 3
REMARK VINA RESULT:      -9.1      0.976      2.057
REMARK  4 active torsions:
REMARK  status: ('A' for Active; 'I' for Inactive)
REMARK    1  A    between atoms: N_11  and  C_4 
REMARK    2  A    between atoms: C_22  and  N_15 
REMARK    3  A    between atoms: O_29  and  C_17 
REMARK    4  A    between atoms: C_21  and  C_22 
ROOT
ATOM      1  N   UNL d   1      52.526  33.376  53.348  0.00  0.00    -0.195 N 
ATOM      2  C   UNL d   1      53.073  32.912  53.715  0.00  0.00     0.168 A 
ATOM      3  C   UNL d   1      53.602  33.227  54.215  0.00  0.00     0.073 A 
ATOM      4  C   UNL d   1      52.005  33.044  52.851  0.00  0.00     0.153 A 
ATOM      5  N   UNL d   1      53.036  34.475  53.981  0.00  0.00    -0.143 NA
ATOM      6  C   UNL d   1      53.582  34.010  54.348  0.00  0.00     0.185 A 
ATOM      7  N   UNL d   1      53.084  32.127  53.574  0.00  0.00    -0.227 NA
ATOM      8  C   UNL d   1      54.143  32.767  54.578  0.00  0.00     0.007 A 
ATOM      9  N   UNL d   1      54.112  34.345  54.853  0.00  0.00    -0.225 NA
ATOM     10  C   UNL d   1      52.012  32.268  52.709  0.00  0.00     0.057 A 
ATOM     11  C   UNL d   1      54.673  33.084  55.079  0.00  0.00     0.019 A 
ATOM     12  C   UNL d   1      52.559  31.803  53.076  0.00  0.00     0.086 A 
ATOM     13  C   UNL d   1      54.659  33.880  55.219  0.00  0.00     0.083 A 
ATOM     14  C   UNL d   1      54.153  31.980  54.437  0.00  0.00     0.000 C 
ATOM     15  C   UNL d   1      52.567  30.987  52.927  0.00  0.00     0.021 C 
ATOM     16  C   UNL d   1      55.183  34.201  55.717  0.00  0.00     0.021 C 
ENDROOT
BRANCH   4  17
ATOM     17  N   UNL d   1      51.444  33.531  52.477  0.00  0.00    -0.286 N 
ATOM     18  C   UNL d   1      51.397  34.165  51.941  0.00  0.00     0.101 A 
ATOM     19  C   UNL d   1      50.666  34.481  51.725  0.00  0.00     0.100 A 
ATOM     20  N   UNL d   1      49.973  34.156  52.050  0.00  0.00    -0.300 N 
ATOM     21  C   UNL d   1      50.010  33.532  52.578  0.00  0.00     0.100 A 
ATOM     22  C   UNL d   1      50.746  33.211  52.798  0.00  0.00     0.101 A 
BRANCH  20  23
ATOM     23  C   UNL d   1      49.248  34.466  51.838  0.00  0.00     0.080 C 
BRANCH  23  24
ATOM     24  C   UNL d   1      48.865  35.034  52.321  0.00  0.00     0.020 A 
ATOM     25  C   UNL d   1      48.342  35.584  51.999  0.00  0.00     0.033 A 
ATOM     26  C   UNL d   1      47.961  36.148  52.482  0.00  0.00     0.162 A 
ATOM     27  F   UNL d   1      47.437  36.698  52.156  0.00  0.00    -0.202 F 
ATOM     28  C   UNL d   1      48.117  36.151  53.302  0.00  0.00     0.121 A 
ATOM     29  C   UNL d   1      48.641  35.603  53.636  0.00  0.00     0.027 A 
ATOM     30  C   UNL d   1      49.018  35.042  53.153  0.00  0.00     0.004 A 
BRANCH  28  31
ATOM     31  O   UNL d   1      47.741  36.710  53.785  0.00  0.00    -0.326 OA
ATOM     32  C   UNL d   1      47.601  36.549  54.582  0.00  0.00     0.181 C 
ENDBRANCH  28  31
ENDBRANCH  23  24
ENDBRANCH  20  23
ENDBRANCH   4  17
TORSDOF 4
ENDMDL
