MODEL 1
REMARK VINA RESULT:      -8.0      0.000      0.000
REMARK  4 active torsions:
REMARK  status: ('A' for Active; 'I' for Inactive)
REMARK    1  A    between atoms: C_5  and  N_1 
REMARK    2  A    between atoms: C_7  and  C_3 
REMARK    3  A    between atoms: C_8  and  C_4 
REMARK    4  A    between atoms: N_10  and  C_5 
ROOT
ATOM      1  N   UNL d   1      53.210  32.711  53.654  0.00  0.00    -0.203 N 
ATOM      2  N   UNL d   1      52.727  33.344  53.426  0.00  0.00    -0.163 NA
ATOM      3  C   UNL d   1      52.019  33.065  53.157  0.00  0.00     0.103 A 
ATOM      4  C   UNL d   1      52.790  32.002  53.525  0.00  0.00     0.087 A 
ATOM      5  C   UNL d   1      52.051  32.214  53.217  0.00  0.00     0.040 A 
ENDROOT
BRANCH   3   6
ATOM      6  C   UNL d   1      51.392  33.539  52.880  0.00  0.00     0.019 A 
ATOM      7  C   UNL d   1      50.718  33.659  53.339  0.00  0.00     0.002 A 
ATOM      8  C   UNL d   1      50.100  34.137  53.043  0.00  0.00     0.000 A 
ATOM      9  C   UNL d   1      50.165  34.482  52.306  0.00  0.00     0.000 A 
ATOM     10  C   UNL d   1      50.847  34.352  51.860  0.00  0.00     0.000 A 
ATOM     11  C   UNL d   1      49.404  35.041  52.000  0.00  0.00     0.000 C 
ATOM     12  C   UNL d   1      51.450  33.889  52.140  0.00  0.00     0.002 A 
ENDBRANCH   3   6
BRANCH   1  13
ATOM     13  C   UNL d   1      53.992  32.766  53.965  0.00  0.00     0.222 C 
ATOM     14  S   UNL d   1      54.648  32.739  53.431  0.00  0.00    -0.037 SA
BRANCH  13  15
ATOM     15  N   UNL d   1      54.133  32.846  54.795  0.00  0.00    -0.214 NA
ATOM     16  C   UNL d   1      54.756  33.327  55.067  0.00  0.00     0.122 C 
ENDBRANCH  13  15
ENDBRANCH   1  13
BRANCH   4  17
ATOM     17  C   UNL d   1      53.032  31.224  53.665  0.00  0.00     0.018 A 
ATOM     18  C   UNL d   1      52.972  30.891  54.413  0.00  0.00     0.002 A 
ATOM     19  C   UNL d   1      53.213  30.116  54.550  0.00  0.00     0.007 A 
ATOM     20  C   UNL d   1      53.518  29.671  53.931  0.00  0.00     0.035 A 
ATOM     21  C   UNL d   1      53.581  29.984  53.194  0.00  0.00     0.007 A 
ATOM     22 BR   UNL d   1      53.758  28.883  54.093  0.00  0.00    -0.049 Br
ATOM     23  C   UNL d   1      53.339  30.762  53.055  0.00  0.00     0.002 A 
ENDBRANCH   4  17
TORSDOF 4
ENDMDL
MODEL 2
REMARK VINA RESULT:      -7.6      1.970      4.310
REMARK  4 active torsions:
REMARK  status: ('A' for Active; 'I' for Inactive)
REMARK    1  A    between atoms: C_5  and  N_1 
REMARK    2  A    between atoms: C_7  and  C_3 
REMARK    3  A    between atoms: C_8  and  C_4 
REMARK    4  A    between atoms: N_10  and  C_5 
ROOT
ATOM      1  N   UNL d   1      52.493  33.620  53.298  0.00  0.00    -0.203 N 
ATOM      2  N   UNL d   1      52.971  32.969  53.481  0.00  0.00    -0.163 NA
ATOM      3  C   UNL d   1      52.577  32.284  53.320  0.00  0.00     0.103 A 
ATOM      4  C   UNL d   1      51.765  33.334  53.007  0.00  0.00     0.087 A 
ATOM      5  C   UNL d   1      51.810  32.508  53.018  0.00  0.00     0.040 A 
ENDROOT
BRANCH   3   6
ATOM      6  C   UNL d   1      52.882  31.517  53.434  0.00  0.00     0.019 A 
ATOM      7  C   UNL d   1      53.426  31.365  54.033  0.00  0.00     0.002 A 
ATOM      8  C   UNL d   1      53.721  30.589  54.132  0.00  0.00     0.000 A 
ATOM      9  C   UNL d   1      53.470  29.989  53.638  0.00  0.00     0.000 A 
ATOM     10  C   UNL d   1      52.925  30.160  53.043  0.00  0.00     0.000 A 
ATOM     11  C   UNL d   1      53.849  29.085  53.796  0.00  0.00     0.000 C 
ATOM     12  C   UNL d   1      52.635  30.909  52.942  0.00  0.00     0.002 A 
ENDBRANCH   3   6
BRANCH   1  13
ATOM     13  C   UNL d   1      52.699  34.433  53.386  0.00  0.00     0.222 C 
ATOM     14  S   UNL d   1      53.046  34.841  52.731  0.00  0.00    -0.037 SA
BRANCH  13  15
ATOM     15  N   UNL d   1      52.565  34.847  54.112  0.00  0.00    -0.214 NA
ATOM     16  C   UNL d   1      53.067  35.473  54.332  0.00  0.00     0.122 C 
ENDBRANCH  13  15
ENDBRANCH   1  13
BRANCH   4  17
ATOM     17  C   UNL d   1      51.106  33.763  52.750  0.00  0.00     0.018 A 
ATOM     18  C   UNL d   1      51.032  33.994  51.966  0.00  0.00     0.002 A 
ATOM     19  C   UNL d   1      50.376  34.421  51.712  0.00  0.00     0.007 A 
ATOM     20  C   UNL d   1      49.787  34.618  52.250  0.00  0.00     0.035 A 
ATOM     21  C   UNL d   1      49.847  34.398  53.020  0.00  0.00     0.007 A 
ATOM     22 BR   UNL d   1      49.126  35.053  51.970  0.00  0.00    -0.049 Br
ATOM     23  C   UNL d   1      50.506  33.970  53.277  0.00  0.00     0.002 A 
ENDBRANCH   4  17
TORSDOF 4
ENDMDL
MODEL 3
REMARK VINA RESULT:      -7.4      1.575      2.568
REMARK  4 active torsions:
REMARK  status: ('A' for Active; 'I' for Inactive)
REMARK    1  A    between atoms: C_5  and  N_1 
REMARK    2  A    between atoms: C_7  and  C_3 
REMARK    3  A    between atoms: C_8  and  C_4 
REMARK    4  A    between atoms: N_10  and  C_5 
ROOT
ATOM      1  N   UNL d   1      52.344  32.545  53.190  0.00  0.00    -0.203 N 
ATOM      2  N   UNL d   1      51.627  32.733  52.820  0.00  0.00    -0.163 NA
ATOM      3  C   UNL d   1      51.484  33.524  52.883  0.00  0.00     0.103 A 
ATOM      4  C   UNL d   1      52.667  33.249  53.501  0.00  0.00     0.087 A 
ATOM      5  C   UNL d   1      52.140  33.859  53.314  0.00  0.00     0.040 A 
ENDROOT
BRANCH   3   6
ATOM      6  C   UNL d   1      50.814  33.916  52.576  0.00  0.00     0.019 A 
ATOM      7  C   UNL d   1      50.694  33.971  51.763  0.00  0.00     0.002 A 
ATOM      8  C   UNL d   1      50.017  34.368  51.475  0.00  0.00     0.000 A 
ATOM      9  C   UNL d   1      49.481  34.696  51.997  0.00  0.00     0.000 A 
ATOM     10  C   UNL d   1      49.618  34.631  52.808  0.00  0.00     0.000 A 
ATOM     11  C   UNL d   1      48.693  35.157  51.606  0.00  0.00     0.000 C 
ATOM     12  C   UNL d   1      50.272  34.248  53.094  0.00  0.00     0.002 A 
ENDBRANCH   3   6
BRANCH   1  13
ATOM     13  C   UNL d   1      52.692  31.780  53.248  0.00  0.00     0.222 C 
ATOM     14  S   UNL d   1      52.593  31.337  53.962  0.00  0.00    -0.037 SA
BRANCH  13  15
ATOM     15  N   UNL d   1      53.138  31.448  52.610  0.00  0.00    -0.214 NA
ATOM     16  C   UNL d   1      53.187  30.622  52.523  0.00  0.00     0.122 C 
ENDBRANCH  13  15
ENDBRANCH   1  13
BRANCH   4  17
ATOM     17  C   UNL d   1      53.374  33.354  53.918  0.00  0.00     0.018 A 
ATOM     18  C   UNL d   1      54.087  33.449  53.524  0.00  0.00     0.002 A 
ATOM     19  C   UNL d   1      54.789  33.553  53.941  0.00  0.00     0.007 A 
ATOM     20  C   UNL d   1      54.775  33.562  54.762  0.00  0.00     0.035 A 
ATOM     21  C   UNL d   1      54.084  33.469  55.160  0.00  0.00     0.007 A 
ATOM     22 BR   UNL d   1      55.502  33.669  55.168  0.00  0.00    -0.049 Br
ATOM     23  C   UNL d   1      53.378  33.365  54.743  0.00  0.00     0.002 A 
ENDBRANCH   4  17
TORSDOF 4
ENDMDL
