MODEL 1
REMARK VINA RESULT:       2.7      0.000      0.000
REMARK  12 active torsions:
REMARK  status: ('A' for Active; 'I' for Inactive)
REMARK    1  A    between atoms: C_8  and  C_1 
REMARK    2  A    between atoms: C_9  and  C_2 
REMARK    3  A    between atoms: C_7  and  C_3 
REMARK    4  A    between atoms: S_10  and  C_4 
REMARK    5  A    between atoms: O_23  and  C_8 
REMARK    6  A    between atoms: C_20  and  S_10 
REMARK    7  A    between atoms: O_25  and  C_13 
REMARK    8  A    between atoms: C_14  and  C_20 
REMARK    9  A    between atoms: O_26  and  C_14 
REMARK   10  A    between atoms: C_21  and  C_28 
REMARK   11  A    between atoms: C_28  and  O_23 
REMARK   12  A    between atoms: C_29  and  O_26 
ROOT
ATOM      1  C   UNL d   1      32.778  20.729 -21.857  0.00  0.00     0.081 A 
ATOM      2  C   UNL d   1      32.779  20.098 -23.143  0.00  0.00     0.045 A 
ATOM      3  C   UNL d   1      32.775  20.776 -22.689  0.00  0.00     0.010 A 
ATOM      4  C   UNL d   1      32.786  19.370 -22.779  0.00  0.00     0.112 A 
ATOM      5  C   UNL d   1      32.784  20.017 -21.500  0.00  0.00     0.087 A 
ATOM      6  N   UNL d   1      32.789  19.317 -21.958  0.00  0.00    -0.239 NA
ATOM      7  C   UNL d   1      32.787  20.011 -20.655  0.00  0.00     0.021 C 
ENDROOT
BRANCH   3   8
ATOM      8  C   UNL d   1      32.768  21.514 -23.059  0.00  0.00     0.003 A 
ATOM      9  C   UNL d   1      32.278  22.126 -22.769  0.00  0.00     0.028 A 
ATOM     10  C   UNL d   1      32.272  22.864 -23.139  0.00  0.00     0.133 A 
ATOM     11  C   UNL d   1      32.755  22.984 -23.796  0.00  0.00     0.218 A 
ATOM     12  C   UNL d   1      33.234  22.382 -24.077  0.00  0.00     0.044 A 
ATOM     13  O   UNL d   1      32.769  23.701 -24.181  0.00  0.00    -0.284 OA
ATOM     14  C   UNL d   1      33.240  21.645 -23.707  0.00  0.00     0.003 A 
BRANCH  10  15
ATOM     15  O   UNL d   1      31.781  23.487 -22.854  0.00  0.00    -0.325 OA
ATOM     16  C   UNL d   1      31.057  23.646 -23.218  0.00  0.00     0.181 C 
ENDBRANCH  10  15
ENDBRANCH   3   8
BRANCH   2  17
ATOM     17  C   UNL d   1      32.777  20.150 -23.978  0.00  0.00     0.124 C 
ATOM     18  N   UNL d   1      33.234  19.612 -24.427  0.00  0.00    -0.146 N 
ENDBRANCH   2  17
BRANCH   1  19
ATOM     19  C   UNL d   1      32.774  21.416 -21.359  0.00  0.00     0.302 C 
ATOM     20  O   UNL d   1      33.241  22.065 -21.542  0.00  0.00    -0.259 OA
BRANCH  19  21
ATOM     21  O   UNL d   1      32.300  21.417 -20.699  0.00  0.00    -0.271 OA
BRANCH  21  22
ATOM     22  C   UNL d   1      32.587  21.682 -19.971  0.00  0.00     0.126 C 
BRANCH  22  23
ATOM     23  C   UNL d   1      32.369  22.423 -19.702  0.00  0.00     0.027 C 
ATOM     24  C   UNL d   1      31.674  22.544 -19.324  0.00  0.00     0.002 C 
ENDBRANCH  22  23
ENDBRANCH  21  22
ENDBRANCH  19  21
ENDBRANCH   1  19
BRANCH   4  25
ATOM     25  S   UNL d   1      32.790  18.664 -23.194  0.00  0.00    -0.062 SA
BRANCH  25  26
ATOM     26  C   UNL d   1      32.133  18.190 -23.174  0.00  0.00     0.105 C 
BRANCH  26  27
ATOM     27  C   UNL d   1      32.216  17.382 -23.332  0.00  0.00     0.307 C 
ATOM     28  O   UNL d   1      32.811  16.950 -22.968  0.00  0.00    -0.258 OA
BRANCH  27  29
ATOM     29  O   UNL d   1      31.700  17.023 -23.854  0.00  0.00    -0.271 OA
BRANCH  29  30
ATOM     30  C   UNL d   1      30.999  16.720 -23.565  0.00  0.00     0.126 C 
ATOM     31  C   UNL d   1      30.455  16.397 -24.077  0.00  0.00     0.029 C 
ENDBRANCH  29  30
ENDBRANCH  27  29
ENDBRANCH  26  27
ENDBRANCH  25  26
ENDBRANCH   4  25
TORSDOF 12
ENDMDL
