MODEL 1
REMARK VINA RESULT:      -8.7      0.000      0.000
REMARK  4 active torsions:
REMARK  status: ('A' for Active; 'I' for Inactive)
REMARK    1  A    between atoms: N_8  and  S_1 
REMARK    2  A    between atoms: C_12  and  S_1 
REMARK    3  A    between atoms: C_5  and  C_9 
REMARK    4  A    between atoms: C_15  and  N_8 
ROOT
ATOM      1  C   UNL d   1     -46.250  12.995  22.956  0.00  0.00     0.021 A 
ATOM      2  C   UNL d   1     -47.521  13.635  23.048  0.00  0.00     0.094 A 
ATOM      3  C   UNL d   1     -47.041  12.977  23.176  0.00  0.00     0.021 A 
ATOM      4  C   UNL d   1     -45.921  13.668  22.604  0.00  0.00     0.002 A 
ATOM      5  C   UNL d   1     -46.402  14.333  22.473  0.00  0.00     0.002 A 
ATOM      6  C   UNL d   1     -47.205  14.323  22.694  0.00  0.00     0.020 A 
ENDROOT
BRANCH   2   7
ATOM      7  N   UNL d   1     -48.312  13.616  23.269  0.00  0.00    -0.158 NA
BRANCH   7   8
ATOM      8  S   UNL d   1     -48.893  13.491  22.698  0.00  0.00     0.285 S 
ATOM      9  O   UNL d   1     -48.566  13.770  21.993  0.00  0.00    -0.198 OA
ATOM     10  O   UNL d   1     -49.326  13.454  21.994  0.00  0.00    -0.198 OA
BRANCH   8  11
ATOM     11  C   UNL d   1     -49.611  13.147  22.917  0.00  0.00     0.105 A 
ATOM     12  C   UNL d   1     -49.813  12.402  22.638  0.00  0.00     0.013 A 
ATOM     13  C   UNL d   1     -50.528  12.062  22.857  0.00  0.00     0.001 A 
ATOM     14  C   UNL d   1     -51.048  12.474  23.360  0.00  0.00     0.000 A 
ATOM     15  C   UNL d   1     -50.833  13.226  23.635  0.00  0.00     0.001 A 
ATOM     16  C   UNL d   1     -50.122  13.559  23.415  0.00  0.00     0.013 A 
ENDBRANCH   8  11
ENDBRANCH   7   8
ENDBRANCH   2   7
BRANCH   1  17
ATOM     17  C   UNL d   1     -45.768  12.335  23.084  0.00  0.00     0.118 A 
ATOM     18  N   UNL d   1     -44.961  12.272  22.920  0.00  0.00    -0.059 NA
ATOM     19  C   UNL d   1     -44.714  11.520  23.136  0.00  0.00     0.735 A 
ATOM     20  N   UNL d   1     -43.969  11.155  23.097  0.00  0.00    -0.059 NA
ATOM     21  N   UNL d   1     -45.363  11.111  23.435  0.00  0.00    -0.136 N 
ATOM     22  C   UNL d   1     -43.881  10.378  23.358  0.00  0.00     0.119 A 
ATOM     23  C   UNL d   1     -44.527   9.965  23.658  0.00  0.00     0.041 A 
ATOM     24  C   UNL d   1     -45.264  10.326  23.697  0.00  0.00     0.100 A 
ATOM     25  C   UNL d   1     -46.016  11.612  23.404  0.00  0.00     0.118 A 
ENDBRANCH   1  17
TORSDOF 4
ENDMDL
MODEL 2
REMARK VINA RESULT:      -7.6      1.196      1.856
REMARK  4 active torsions:
REMARK  status: ('A' for Active; 'I' for Inactive)
REMARK    1  A    between atoms: N_8  and  S_1 
REMARK    2  A    between atoms: C_12  and  S_1 
REMARK    3  A    between atoms: C_5  and  C_9 
REMARK    4  A    between atoms: C_15  and  N_8 
ROOT
ATOM      1  C   UNL d   1     -46.818  11.536  23.331  0.00  0.00     0.021 A 
ATOM      2  C   UNL d   1     -47.840  12.531  23.362  0.00  0.00     0.094 A 
ATOM      3  C   UNL d   1     -47.042  12.327  23.331  0.00  0.00     0.021 A 
ATOM      4  C   UNL d   1     -47.384  10.934  23.363  0.00  0.00     0.002 A 
ATOM      5  C   UNL d   1     -48.190  11.135  23.394  0.00  0.00     0.002 A 
ATOM      6  C   UNL d   1     -48.425  11.934  23.394  0.00  0.00     0.020 A 
ENDROOT
BRANCH   2   7
ATOM      7  N   UNL d   1     -48.063  13.321  23.362  0.00  0.00    -0.158 NA
BRANCH   7   8
ATOM      8  S   UNL d   1     -48.491  13.625  22.726  0.00  0.00     0.285 S 
ATOM      9  O   UNL d   1     -48.341  13.110  22.099  0.00  0.00    -0.198 OA
ATOM     10  O   UNL d   1     -48.835  13.758  21.985  0.00  0.00    -0.198 OA
BRANCH   8  11
ATOM     11  C   UNL d   1     -48.939  14.311  22.828  0.00  0.00     0.105 A 
ATOM     12  C   UNL d   1     -49.649  14.283  23.238  0.00  0.00     0.013 A 
ATOM     13  C   UNL d   1     -50.093  14.967  23.338  0.00  0.00     0.001 A 
ATOM     14  C   UNL d   1     -49.822  15.688  23.023  0.00  0.00     0.000 A 
ATOM     15  C   UNL d   1     -49.103  15.704  22.610  0.00  0.00     0.001 A 
ATOM     16  C   UNL d   1     -48.667  15.023  22.514  0.00  0.00     0.013 A 
ENDBRANCH   8  11
ENDBRANCH   7   8
ENDBRANCH   2   7
BRANCH   1  17
ATOM     17  C   UNL d   1     -46.018  11.332  23.299  0.00  0.00     0.118 A 
ATOM     18  N   UNL d   1     -45.418  11.740  22.905  0.00  0.00    -0.059 NA
ATOM     19  C   UNL d   1     -44.712  11.338  23.024  0.00  0.00     0.735 A 
ATOM     20  N   UNL d   1     -43.940  11.494  22.761  0.00  0.00    -0.059 NA
ATOM     21  N   UNL d   1     -44.867  10.678  23.492  0.00  0.00    -0.136 N 
ATOM     22  C   UNL d   1     -43.328  10.984  22.970  0.00  0.00     0.119 A 
ATOM     23  C   UNL d   1     -43.478  10.324  23.437  0.00  0.00     0.041 A 
ATOM     24  C   UNL d   1     -44.242  10.169  23.698  0.00  0.00     0.100 A 
ATOM     25  C   UNL d   1     -45.673  10.672  23.664  0.00  0.00     0.118 A 
ENDBRANCH   1  17
TORSDOF 4
ENDMDL
MODEL 3
REMARK VINA RESULT:      -7.6      7.948      9.141
REMARK  4 active torsions:
REMARK  status: ('A' for Active; 'I' for Inactive)
REMARK    1  A    between atoms: N_8  and  S_1 
REMARK    2  A    between atoms: C_12  and  S_1 
REMARK    3  A    between atoms: C_5  and  C_9 
REMARK    4  A    between atoms: C_15  and  N_8 
ROOT
ATOM      1  C   UNL d   1     -40.083  15.148  20.751  0.00  0.00     0.021 A 
ATOM      2  C   UNL d   1     -40.158  15.334  19.339  0.00  0.00     0.094 A 
ATOM      3  C   UNL d   1     -39.778  15.019  19.999  0.00  0.00     0.021 A 
ATOM      4  C   UNL d   1     -40.771  15.593  20.860  0.00  0.00     0.002 A 
ATOM      5  C   UNL d   1     -41.157  15.913  20.197  0.00  0.00     0.002 A 
ATOM      6  C   UNL d   1     -40.855  15.786  19.432  0.00  0.00     0.020 A 
ENDROOT
BRANCH   2   7
ATOM      7  N   UNL d   1     -39.852  15.204  18.588  0.00  0.00    -0.158 NA
BRANCH   7   8
ATOM      8  S   UNL d   1     -40.081  14.535  18.163  0.00  0.00     0.285 S 
ATOM      9  O   UNL d   1     -40.866  14.400  18.380  0.00  0.00    -0.198 OA
ATOM     10  O   UNL d   1     -40.499  13.898  17.841  0.00  0.00    -0.198 OA
BRANCH   8  11
ATOM     11  C   UNL d   1     -39.540  14.169  17.658  0.00  0.00     0.105 A 
ATOM     12  C   UNL d   1     -39.223  13.438  17.855  0.00  0.00     0.013 A 
ATOM     13  C   UNL d   1     -38.685  13.076  17.350  0.00  0.00     0.001 A 
ATOM     14  C   UNL d   1     -38.463  13.449  16.641  0.00  0.00     0.000 A 
ATOM     15  C   UNL d   1     -38.791  14.187  16.453  0.00  0.00     0.001 A 
ATOM     16  C   UNL d   1     -39.323  14.543  16.956  0.00  0.00     0.013 A 
ENDBRANCH   8  11
ENDBRANCH   7   8
ENDBRANCH   2   7
BRANCH   1  17
ATOM     17  C   UNL d   1     -39.702  14.832  21.413  0.00  0.00     0.118 A 
ATOM     18  N   UNL d   1     -39.674  14.037  21.636  0.00  0.00    -0.059 NA
ATOM     19  C   UNL d   1     -39.236  13.980  22.328  0.00  0.00     0.735 A 
ATOM     20  N   UNL d   1     -39.031  13.324  22.795  0.00  0.00    -0.059 NA
ATOM     21  N   UNL d   1     -38.988  14.735  22.539  0.00  0.00    -0.136 N 
ATOM     22  C   UNL d   1     -38.577  13.433  23.473  0.00  0.00     0.119 A 
ATOM     23  C   UNL d   1     -38.326  14.187  23.689  0.00  0.00     0.041 A 
ATOM     24  C   UNL d   1     -38.529  14.836  23.227  0.00  0.00     0.100 A 
ATOM     25  C   UNL d   1     -39.274  15.264  21.976  0.00  0.00     0.118 A 
ENDBRANCH   1  17
TORSDOF 4
ENDMDL
MODEL 4
REMARK VINA RESULT:      -7.4      1.321      2.059
REMARK  4 active torsions:
REMARK  status: ('A' for Active; 'I' for Inactive)
REMARK    1  A    between atoms: N_8  and  S_1 
REMARK    2  A    between atoms: C_12  and  S_1 
REMARK    3  A    between atoms: C_5  and  C_9 
REMARK    4  A    between atoms: C_15  and  N_8 
ROOT
ATOM      1  C   UNL d   1     -46.515  12.621  23.001  0.00  0.00     0.021 A 
ATOM      2  C   UNL d   1     -47.704  13.344  23.310  0.00  0.00     0.094 A 
ATOM      3  C   UNL d   1     -46.946  13.320  22.988  0.00  0.00     0.021 A 
ATOM      4  C   UNL d   1     -46.829  11.933  23.336  0.00  0.00     0.002 A 
ATOM      5  C   UNL d   1     -47.593  11.953  23.662  0.00  0.00     0.002 A 
ATOM      6  C   UNL d   1     -48.037  12.658  23.652  0.00  0.00     0.020 A 
ENDROOT
BRANCH   2   7
ATOM      7  N   UNL d   1     -48.134  14.043  23.296  0.00  0.00    -0.158 NA
BRANCH   7   8
ATOM      8  S   UNL d   1     -48.829  14.087  22.855  0.00  0.00     0.285 S 
ATOM      9  O   UNL d   1     -48.709  13.584  22.212  0.00  0.00    -0.198 OA
ATOM     10  O   UNL d   1     -49.421  13.990  22.285  0.00  0.00    -0.198 OA
BRANCH   8  11
ATOM     11  C   UNL d   1     -49.446  14.572  23.113  0.00  0.00     0.105 A 
ATOM     12  C   UNL d   1     -49.352  15.388  23.120  0.00  0.00     0.013 A 
ATOM     13  C   UNL d   1     -49.967  15.869  23.377  0.00  0.00     0.001 A 
ATOM     14  C   UNL d   1     -50.683  15.529  23.629  0.00  0.00     0.000 A 
ATOM     15  C   UNL d   1     -50.766  14.704  23.617  0.00  0.00     0.001 A 
ATOM     16  C   UNL d   1     -50.153  14.231  23.362  0.00  0.00     0.013 A 
ENDBRANCH   8  11
ENDBRANCH   7   8
ENDBRANCH   2   7
BRANCH   1  17
ATOM     17  C   UNL d   1     -45.754  12.596  22.678  0.00  0.00     0.118 A 
ATOM     18  N   UNL d   1     -45.148  12.072  22.878  0.00  0.00    -0.059 NA
ATOM     19  C   UNL d   1     -44.492  12.251  22.418  0.00  0.00     0.735 A 
ATOM     20  N   UNL d   1     -43.735  11.910  22.384  0.00  0.00    -0.059 NA
ATOM     21  N   UNL d   1     -44.684  12.886  21.930  0.00  0.00    -0.136 N 
ATOM     22  C   UNL d   1     -43.176  12.209  21.858  0.00  0.00     0.119 A 
ATOM     23  C   UNL d   1     -43.364  12.844  21.369  0.00  0.00     0.041 A 
ATOM     24  C   UNL d   1     -44.112  13.182  21.402  0.00  0.00     0.100 A 
ATOM     25  C   UNL d   1     -45.463  13.102  22.088  0.00  0.00     0.118 A 
ENDBRANCH   1  17
TORSDOF 4
ENDMDL
MODEL 5
REMARK VINA RESULT:      -7.3      1.674      4.886
REMARK  4 active torsions:
REMARK  status: ('A' for Active; 'I' for Inactive)
REMARK    1  A    between atoms: N_8  and  S_1 
REMARK    2  A    between atoms: C_12  and  S_1 
REMARK    3  A    between atoms: C_5  and  C_9 
REMARK    4  A    between atoms: C_15  and  N_8 
ROOT
ATOM      1  C   UNL d   1     -47.528  13.436  22.722  0.00  0.00     0.021 A 
ATOM      2  C   UNL d   1     -46.279  12.887  23.137  0.00  0.00     0.094 A 
ATOM      3  C   UNL d   1     -47.083  12.795  22.978  0.00  0.00     0.021 A 
ATOM      4  C   UNL d   1     -47.182  14.180  22.618  0.00  0.00     0.002 A 
ATOM      5  C   UNL d   1     -46.372  14.277  22.776  0.00  0.00     0.002 A 
ATOM      6  C   UNL d   1     -45.914  13.632  23.037  0.00  0.00     0.020 A 
ENDROOT
BRANCH   2   7
ATOM      7  N   UNL d   1     -45.835  12.245  23.393  0.00  0.00    -0.158 NA
BRANCH   7   8
ATOM      8  S   UNL d   1     -45.197  11.983  22.943  0.00  0.00     0.285 S 
ATOM      9  O   UNL d   1     -45.129  12.529  22.327  0.00  0.00    -0.198 OA
ATOM     10  O   UNL d   1     -44.605  11.896  22.371  0.00  0.00    -0.198 OA
BRANCH   8  11
ATOM     11  C   UNL d   1     -44.793  11.300  23.168  0.00  0.00     0.105 A 
ATOM     12  C   UNL d   1     -43.976  11.259  23.088  0.00  0.00     0.013 A 
ATOM     13  C   UNL d   1     -43.576  10.578  23.312  0.00  0.00     0.001 A 
ATOM     14  C   UNL d   1     -43.997   9.930  23.621  0.00  0.00     0.000 A 
ATOM     15  C   UNL d   1     -44.821   9.983  23.698  0.00  0.00     0.001 A 
ATOM     16  C   UNL d   1     -45.214  10.661  23.474  0.00  0.00     0.013 A 
ENDBRANCH   8  11
ENDBRANCH   7   8
ENDBRANCH   2   7
BRANCH   1  17
ATOM     17  C   UNL d   1     -48.334  13.344  22.563  0.00  0.00     0.118 A 
ATOM     18  N   UNL d   1     -48.702  13.395  21.825  0.00  0.00    -0.059 NA
ATOM     19  C   UNL d   1     -49.506  13.267  21.930  0.00  0.00     0.735 A 
ATOM     20  N   UNL d   1     -50.135  13.253  21.388  0.00  0.00    -0.059 NA
ATOM     21  N   UNL d   1     -49.644  13.135  22.731  0.00  0.00    -0.136 N 
ATOM     22  C   UNL d   1     -50.901  13.108  21.655  0.00  0.00     0.119 A 
ATOM     23  C   UNL d   1     -51.043  12.976  22.455  0.00  0.00     0.041 A 
ATOM     24  C   UNL d   1     -50.421  12.989  22.992  0.00  0.00     0.100 A 
ATOM     25  C   UNL d   1     -48.922  13.183  23.125  0.00  0.00     0.118 A 
ENDBRANCH   1  17
TORSDOF 4
ENDMDL
MODEL 6
REMARK VINA RESULT:      -6.9      1.837      5.192
REMARK  4 active torsions:
REMARK  status: ('A' for Active; 'I' for Inactive)
REMARK    1  A    between atoms: N_8  and  S_1 
REMARK    2  A    between atoms: C_12  and  S_1 
REMARK    3  A    between atoms: C_5  and  C_9 
REMARK    4  A    between atoms: C_15  and  N_8 
ROOT
ATOM      1  C   UNL d   1     -48.727  12.716  23.143  0.00  0.00     0.021 A 
ATOM      2  C   UNL d   1     -47.463  12.105  22.891  0.00  0.00     0.094 A 
ATOM      3  C   UNL d   1     -47.983  12.737  22.794  0.00  0.00     0.021 A 
ATOM      4  C   UNL d   1     -48.967  12.066  23.595  0.00  0.00     0.002 A 
ATOM      5  C   UNL d   1     -48.445  11.427  23.695  0.00  0.00     0.002 A 
ATOM      6  C   UNL d   1     -47.690  11.441  23.345  0.00  0.00     0.020 A 
ENDROOT
BRANCH   2   7
ATOM      7  N   UNL d   1     -46.720  12.127  22.542  0.00  0.00    -0.158 NA
BRANCH   7   8
ATOM      8  S   UNL d   1     -46.087  12.462  22.949  0.00  0.00     0.285 S 
ATOM      9  O   UNL d   1     -46.386  12.654  23.694  0.00  0.00    -0.198 OA
ATOM     10  O   UNL d   1     -45.599  12.815  23.517  0.00  0.00    -0.198 OA
BRANCH   8  11
ATOM     11  C   UNL d   1     -45.354  12.534  22.575  0.00  0.00     0.105 A 
ATOM     12  C   UNL d   1     -44.802  11.930  22.631  0.00  0.00     0.013 A 
ATOM     13  C   UNL d   1     -44.074  12.004  22.258  0.00  0.00     0.001 A 
ATOM     14  C   UNL d   1     -43.896  12.691  21.824  0.00  0.00     0.000 A 
ATOM     15  C   UNL d   1     -44.462  13.294  21.774  0.00  0.00     0.001 A 
ATOM     16  C   UNL d   1     -45.183  13.217  22.146  0.00  0.00     0.013 A 
ENDBRANCH   8  11
ENDBRANCH   7   8
ENDBRANCH   2   7
BRANCH   1  17
ATOM     17  C   UNL d   1     -49.249  13.350  23.045  0.00  0.00     0.118 A 
ATOM     18  N   UNL d   1     -49.390  13.962  23.581  0.00  0.00    -0.059 NA
ATOM     19  C   UNL d   1     -49.949  14.466  23.253  0.00  0.00     0.735 A 
ATOM     20  N   UNL d   1     -50.295  15.164  23.542  0.00  0.00    -0.059 NA
ATOM     21  N   UNL d   1     -50.159  14.173  22.513  0.00  0.00    -0.136 N 
ATOM     22  C   UNL d   1     -50.851  15.563  23.084  0.00  0.00     0.119 A 
ATOM     23  C   UNL d   1     -51.064  15.273  22.344  0.00  0.00     0.041 A 
ATOM     24  C   UNL d   1     -50.722  14.583  22.057  0.00  0.00     0.100 A 
ATOM     25  C   UNL d   1     -49.728  13.483  22.381  0.00  0.00     0.118 A 
ENDBRANCH   1  17
TORSDOF 4
ENDMDL
