MODEL 1
REMARK VINA RESULT:      24.6      0.000      0.000
REMARK  0 active torsions:
REMARK  status: ('A' for Active; 'I' for Inactive)
REMARK       I    between atoms: C_2  and  N_1 
REMARK       I    between atoms: N_7  and  C_2 
ROOT
ATOM      1  N   UNL d   1      58.908  49.696  50.462  0.00  0.00    -0.241 N 
ATOM      2  C   UNL d   1      58.108  49.702  50.738  0.00  0.00     0.341 C 
ATOM      3  C   UNL d   1      59.590  49.696  50.899  0.00  0.00     0.087 A 
ATOM      4  C   UNL d   1      59.111  49.690  49.671  0.00  0.00     0.186 A 
ATOM      5  N   UNL d   1      59.932  49.686  49.623  0.00  0.00    -0.224 NA
ATOM      6  C   UNL d   1      60.227  49.690  50.389  0.00  0.00     0.099 A 
ATOM      7  N   UNL d   1      57.475  49.701  50.211  0.00  0.00    -0.257 N 
ATOM      8  C   UNL d   1      59.709  49.701  51.714  0.00  0.00     0.019 A 
ATOM      9  C   UNL d   1      61.005  49.688  50.679  0.00  0.00     0.021 A 
ATOM     10  C   UNL d   1      60.476  49.700  52.005  0.00  0.00     0.002 A 
ATOM     11  C   UNL d   1      61.121  49.693  51.503  0.00  0.00     0.002 A 
ATOM     12  O   UNL d   1      57.982  49.708  51.561  0.00  0.00    -0.245 OA
ATOM     13  C   UNL d   1      56.712  49.706  50.487  0.00  0.00     0.085 A 
ATOM     14  C   UNL d   1      57.621  49.694  49.390  0.00  0.00     0.085 A 
ATOM     15  C   UNL d   1      60.583  49.705  52.832  0.00  0.00     0.000 C 
ATOM     16  C   UNL d   1      61.902  49.692  51.816  0.00  0.00     0.000 C 
ATOM     17  C   UNL d   1      56.078  49.705  49.959  0.00  0.00     0.019 A 
ATOM     18  C   UNL d   1      56.981  49.694  48.857  0.00  0.00     0.019 A 
ATOM     19  C   UNL d   1      56.210  49.699  49.158  0.00  0.00     0.003 A 
ENDROOT
TORSDOF 0
ENDMDL
