MODEL 1
REMARK VINA RESULT:      69.9      0.000      0.000
REMARK  10 active torsions:
REMARK  status: ('A' for Active; 'I' for Inactive)
REMARK    1  A    between atoms: C_4  and  N_1 
REMARK    2  A    between atoms: C_10  and  C_2 
REMARK    3  A    between atoms: N_16  and  C_4 
REMARK    4  A    between atoms: O_22  and  C_8 
REMARK    5  A    between atoms: O_15  and  C_10 
REMARK    6  A    between atoms: O_23  and  C_11 
REMARK    7  A    between atoms: C_14  and  O_15 
REMARK    8  A    between atoms: C_25  and  N_16 
REMARK    9  A    between atoms: O_24  and  C_28 
REMARK   10  A    between atoms: C_28  and  C_25 
ROOT
ATOM      1  N   UNL d   1     -56.213 -98.791 -43.315  0.00  0.00    -0.280 N 
ATOM      2  C   UNL d   1     -56.416 -98.809 -44.114  0.00  0.00     0.091 A 
ATOM      3  C   UNL d   1     -57.203 -98.807 -44.333  0.00  0.00     0.020 A 
ATOM      4  C   UNL d   1     -57.794 -98.787 -43.758  0.00  0.00     0.005 A 
ATOM      5  C   UNL d   1     -57.402 -98.825 -45.129  0.00  0.00     0.028 A 
ATOM      6  C   UNL d   1     -56.804 -98.771 -42.741  0.00  0.00     0.082 A 
ATOM      7  C   UNL d   1     -58.196 -98.823 -45.354  0.00  0.00     0.116 A 
ATOM      8  C   UNL d   1     -58.585 -98.785 -43.980  0.00  0.00     0.026 A 
ATOM      9  C   UNL d   1     -58.787 -98.803 -44.780  0.00  0.00     0.116 A 
ATOM     10  C   UNL d   1     -57.598 -98.769 -42.965  0.00  0.00     0.019 A 
ENDROOT
BRANCH   2  11
ATOM     11  C   UNL d   1     -55.825 -98.829 -44.689  0.00  0.00     0.140 C 
BRANCH  11  12
ATOM     12  O   UNL d   1     -55.804 -99.445 -45.238  0.00  0.00    -0.304 OA
BRANCH  12  13
ATOM     13  C   UNL d   1     -55.446-100.161 -45.040  0.00  0.00     0.100 A 
ATOM     14  C   UNL d   1     -55.268-100.709 -45.630  0.00  0.00     0.025 A 
ATOM     15  C   UNL d   1     -54.910-101.426 -45.432  0.00  0.00     0.002 A 
ATOM     16  C   UNL d   1     -54.728-101.982 -46.021  0.00  0.00     0.000 C 
ATOM     17  C   UNL d   1     -54.730-101.593 -44.645  0.00  0.00     0.000 A 
ATOM     18  C   UNL d   1     -54.908-101.045 -44.055  0.00  0.00     0.002 A 
ATOM     19  C   UNL d   1     -55.266-100.328 -44.253  0.00  0.00     0.025 A 
ATOM     20  C   UNL d   1     -54.722-101.224 -43.264  0.00  0.00     0.000 C 
ENDBRANCH  12  13
ENDBRANCH  11  12
ENDBRANCH   2  11
BRANCH   1  21
ATOM     21  C   UNL d   1     -55.414 -98.793 -43.083  0.00  0.00     0.206 C 
ATOM     22  S   UNL d   1     -54.816 -98.824 -43.664  0.00  0.00    -0.038 SA
BRANCH  21  23
ATOM     23  N   UNL d   1     -55.217 -98.765 -42.291  0.00  0.00    -0.215 NA
BRANCH  23  24
ATOM     24  C   UNL d   1     -54.743 -99.352 -41.959  0.00  0.00     0.128 C 
BRANCH  24  25
ATOM     25  C   UNL d   1     -55.089 -99.971 -41.537  0.00  0.00     0.137 C 
BRANCH  25  26
ATOM     26  O   UNL d   1     -54.713-100.277 -40.881  0.00  0.00    -0.325 OA
ATOM     27  C   UNL d   1     -55.151-100.634 -40.285  0.00  0.00     0.182 C 
ENDBRANCH  25  26
ENDBRANCH  24  25
ENDBRANCH  23  24
ENDBRANCH  21  23
ENDBRANCH   1  21
BRANCH   7  28
ATOM     28  O   UNL d   1     -58.402 -98.841 -46.157  0.00  0.00    -0.326 OA
ATOM     29  C   UNL d   1     -59.198 -98.764 -46.391  0.00  0.00     0.181 C 
ENDBRANCH   7  28
BRANCH   9  30
ATOM     30  O   UNL d   1     -59.584 -98.801 -45.008  0.00  0.00    -0.326 OA
ATOM     31  C   UNL d   1     -59.817 -99.139 -45.733  0.00  0.00     0.181 C 
ENDBRANCH   9  30
TORSDOF 10
ENDMDL
