MODEL 1
REMARK VINA RESULT:      -6.1      0.000      0.000
REMARK  6 active torsions:
REMARK  status: ('A' for Active; 'I' for Inactive)
REMARK    1  A    between atoms: N_5  and  C_1 
REMARK    2  A    between atoms: S_2  and  C_11 
REMARK    3  A    between atoms: N_12  and  S_2 
REMARK    4  A    between atoms: O_8  and  C_4 
REMARK    5  A    between atoms: C_9  and  O_8 
REMARK    6  A    between atoms: C_16  and  C_9 
ROOT
ATOM      1  C   UNL d   1     -47.143  12.040  23.186  0.00  0.00     0.300 C 
ATOM      2  O   UNL d   1     -47.036  11.410  23.695  0.00  0.00    -0.259 OA
ENDROOT
BRANCH   1   3
ATOM      3  O   UNL d   1     -46.495  12.397  22.817  0.00  0.00    -0.271 OA
BRANCH   3   4
ATOM      4  C   UNL d   1     -45.750  12.045  22.844  0.00  0.00     0.132 A 
ATOM      5  C   UNL d   1     -45.109  12.396  22.461  0.00  0.00     0.207 A 
ATOM      6  C   UNL d   1     -44.363  12.044  22.488  0.00  0.00     0.303 A 
ATOM      7  N   UNL d   1     -44.258  11.340  22.899  0.00  0.00    -0.206 NA
ATOM      8  O   UNL d   1     -43.724  12.400  22.102  0.00  0.00    -0.263 OA
ATOM      9  C   UNL d   1     -44.891  10.989  23.280  0.00  0.00     0.087 A 
ATOM     10  C   UNL d   1     -45.636  11.342  23.253  0.00  0.00     0.046 A 
ATOM     11  C   UNL d   1     -44.787  10.275  23.698  0.00  0.00     0.021 C 
BRANCH   5  12
ATOM     12  N   UNL d   1     -45.220  13.106  22.047  0.00  0.00    -0.107 N 
ATOM     13  O   UNL d   1     -45.385  13.084  21.238  0.00  0.00    -0.531 OA
ATOM     14  O   UNL d   1     -45.165  13.828  22.441  0.00  0.00    -0.531 OA
ENDBRANCH   5  12
ENDBRANCH   3   4
ENDBRANCH   1   3
BRANCH   1  15
ATOM     15  C   UNL d   1     -47.909  12.325  23.038  0.00  0.00     0.064 A 
ATOM     16  C   UNL d   1     -48.358  11.988  22.452  0.00  0.00     0.006 A 
ATOM     17  C   UNL d   1     -49.121  12.280  22.313  0.00  0.00     0.013 A 
ATOM     18  C   UNL d   1     -49.408  12.897  22.763  0.00  0.00     0.104 A 
ATOM     19  C   UNL d   1     -48.955  13.235  23.352  0.00  0.00     0.013 A 
ATOM     20  C   UNL d   1     -48.197  12.949  23.495  0.00  0.00     0.006 A 
BRANCH  18  21
ATOM     21  S   UNL d   1     -50.172  13.193  22.626  0.00  0.00     0.271 S 
ATOM     22  O   UNL d   1     -50.982  13.300  22.572  0.00  0.00    -0.200 OA
ATOM     23  O   UNL d   1     -50.285  12.441  22.955  0.00  0.00    -0.200 OA
BRANCH  21  24
ATOM     24  N   UNL d   1     -50.254  13.935  22.299  0.00  0.00    -0.226 N 
ATOM     25  C   UNL d   1     -50.133  14.050  21.500  0.00  0.00     0.111 C 
ATOM     26  C   UNL d   1     -50.462  14.570  22.789  0.00  0.00     0.111 C 
ENDBRANCH  21  24
ENDBRANCH  18  21
ENDBRANCH   1  15
TORSDOF 6
ENDMDL
MODEL 2
REMARK VINA RESULT:      -5.3      1.833      5.003
REMARK  6 active torsions:
REMARK  status: ('A' for Active; 'I' for Inactive)
REMARK    1  A    between atoms: N_5  and  C_1 
REMARK    2  A    between atoms: S_2  and  C_11 
REMARK    3  A    between atoms: N_12  and  S_2 
REMARK    4  A    between atoms: O_8  and  C_4 
REMARK    5  A    between atoms: C_9  and  O_8 
REMARK    6  A    between atoms: C_16  and  C_9 
ROOT
ATOM      1  C   UNL d   1     -47.856  13.587  22.728  0.00  0.00     0.300 C 
ATOM      2  O   UNL d   1     -48.026  14.381  22.822  0.00  0.00    -0.259 OA
ENDROOT
BRANCH   1   3
ATOM      3  O   UNL d   1     -48.459  13.022  22.755  0.00  0.00    -0.271 OA
BRANCH   3   4
ATOM      4  C   UNL d   1     -49.207  13.219  23.037  0.00  0.00     0.132 A 
ATOM      5  C   UNL d   1     -49.762  12.630  23.196  0.00  0.00     0.207 A 
ATOM      6  C   UNL d   1     -50.512  12.828  23.478  0.00  0.00     0.303 A 
ATOM      7  N   UNL d   1     -50.707  13.616  23.601  0.00  0.00    -0.206 NA
ATOM      8  O   UNL d   1     -51.064  12.232  23.637  0.00  0.00    -0.263 OA
ATOM      9  C   UNL d   1     -50.161  14.203  23.445  0.00  0.00     0.087 A 
ATOM     10  C   UNL d   1     -49.411  14.005  23.163  0.00  0.00     0.046 A 
ATOM     11  C   UNL d   1     -50.357  15.005  23.568  0.00  0.00     0.021 C 
BRANCH   5  12
ATOM     12  N   UNL d   1     -49.560  11.835  23.071  0.00  0.00    -0.107 N 
ATOM     13  O   UNL d   1     -49.246  11.392  23.693  0.00  0.00    -0.531 OA
ATOM     14  O   UNL d   1     -49.673  11.491  22.331  0.00  0.00    -0.531 OA
ENDBRANCH   5  12
ENDBRANCH   3   4
ENDBRANCH   1   3
BRANCH   1  15
ATOM     15  C   UNL d   1     -47.071  13.346  22.604  0.00  0.00     0.064 A 
ATOM     16  C   UNL d   1     -46.812  13.189  21.850  0.00  0.00     0.006 A 
ATOM     17  C   UNL d   1     -46.027  12.950  21.738  0.00  0.00     0.013 A 
ATOM     18  C   UNL d   1     -45.529  12.875  22.379  0.00  0.00     0.104 A 
ATOM     19  C   UNL d   1     -45.790  13.033  23.136  0.00  0.00     0.013 A 
ATOM     20  C   UNL d   1     -46.569  13.271  23.254  0.00  0.00     0.006 A 
BRANCH  18  21
ATOM     21  S   UNL d   1     -44.742  12.635  22.270  0.00  0.00     0.271 S 
ATOM     22  O   UNL d   1     -44.012  12.265  22.316  0.00  0.00    -0.200 OA
ATOM     23  O   UNL d   1     -45.033  12.156  22.880  0.00  0.00    -0.200 OA
BRANCH  21  24
ATOM     24  N   UNL d   1     -44.293  13.005  21.699  0.00  0.00    -0.226 N 
ATOM     25  C   UNL d   1     -44.044  12.594  21.038  0.00  0.00     0.111 C 
ATOM     26  C   UNL d   1     -44.092  13.802  21.798  0.00  0.00     0.111 C 
ENDBRANCH  21  24
ENDBRANCH  18  21
ENDBRANCH   1  15
TORSDOF 6
ENDMDL
MODEL 3
REMARK VINA RESULT:      -4.5      8.427      9.882
REMARK  6 active torsions:
REMARK  status: ('A' for Active; 'I' for Inactive)
REMARK    1  A    between atoms: N_5  and  C_1 
REMARK    2  A    between atoms: S_2  and  C_11 
REMARK    3  A    between atoms: N_12  and  S_2 
REMARK    4  A    between atoms: O_8  and  C_4 
REMARK    5  A    between atoms: C_9  and  O_8 
REMARK    6  A    between atoms: C_16  and  C_9 
ROOT
ATOM      1  C   UNL d   1     -38.778  14.872  19.510  0.00  0.00     0.300 C 
ATOM      2  O   UNL d   1     -38.362  15.557  19.351  0.00  0.00    -0.259 OA
ENDROOT
BRANCH   1   3
ATOM      3  O   UNL d   1     -39.340  14.587  18.975  0.00  0.00    -0.271 OA
BRANCH   3   4
ATOM      4  C   UNL d   1     -39.387  14.894  18.212  0.00  0.00     0.132 A 
ATOM      5  C   UNL d   1     -40.091  14.845  17.785  0.00  0.00     0.207 A 
ATOM      6  C   UNL d   1     -40.138  15.153  17.021  0.00  0.00     0.303 A 
ATOM      7  N   UNL d   1     -39.480  15.509  16.683  0.00  0.00    -0.206 NA
ATOM      8  O   UNL d   1     -40.847  15.101  16.598  0.00  0.00    -0.263 OA
ATOM      9  C   UNL d   1     -38.780  15.560  17.102  0.00  0.00     0.087 A 
ATOM     10  C   UNL d   1     -38.733  15.252  17.866  0.00  0.00     0.046 A 
ATOM     11  C   UNL d   1     -38.110  15.921  16.761  0.00  0.00     0.021 C 
BRANCH   5  12
ATOM     12  N   UNL d   1     -40.754  14.484  18.130  0.00  0.00    -0.107 N 
ATOM     13  O   UNL d   1     -40.839  13.664  18.086  0.00  0.00    -0.531 OA
ATOM     14  O   UNL d   1     -41.321  14.941  18.515  0.00  0.00    -0.531 OA
ENDBRANCH   5  12
ENDBRANCH   3   4
ENDBRANCH   1   3
BRANCH   1  15
ATOM     15  C   UNL d   1     -38.635  14.458  20.216  0.00  0.00     0.064 A 
ATOM     16  C   UNL d   1     -38.102  13.846  20.223  0.00  0.00     0.006 A 
ATOM     17  C   UNL d   1     -37.967  13.440  20.932  0.00  0.00     0.013 A 
ATOM     18  C   UNL d   1     -38.368  13.659  21.609  0.00  0.00     0.104 A 
ATOM     19  C   UNL d   1     -38.903  14.274  21.600  0.00  0.00     0.013 A 
ATOM     20  C   UNL d   1     -39.042  14.681  20.898  0.00  0.00     0.006 A 
BRANCH  18  21
ATOM     21  S   UNL d   1     -38.235  13.254  22.321  0.00  0.00     0.271 S 
ATOM     22  O   UNL d   1     -38.027  12.709  22.897  0.00  0.00    -0.200 OA
ATOM     23  O   UNL d   1     -37.958  12.747  21.728  0.00  0.00    -0.200 OA
BRANCH  21  24
ATOM     24  N   UNL d   1     -38.451  13.610  23.023  0.00  0.00    -0.226 N 
ATOM     25  C   UNL d   1     -37.939  14.125  23.398  0.00  0.00     0.111 C 
ATOM     26  C   UNL d   1     -39.194  13.443  23.348  0.00  0.00     0.111 C 
ENDBRANCH  21  24
ENDBRANCH  18  21
ENDBRANCH   1  15
TORSDOF 6
ENDMDL
