MODEL 1
REMARK VINA RESULT:      47.9      0.000      0.000
REMARK  3 active torsions:
REMARK  status: ('A' for Active; 'I' for Inactive)
REMARK    1  A    between atoms: C_11  and  N_2 
REMARK    2  A    between atoms: C_9  and  N_3 
REMARK    3  A    between atoms: C_10  and  C_12 
ROOT
ATOM      1  C   UNL d   1      14.173  14.110  -2.563  0.00  0.00     0.339 A 
ATOM      2  N   UNL d   1      14.581  14.361  -1.894  0.00  0.00    -0.258 N 
ATOM      3  N   UNL d   1      14.089  13.286  -2.529  0.00  0.00    -0.258 N 
ATOM      4  S   UNL d   1      15.027  12.608  -0.706  0.00  0.00     0.214 S 
ATOM      5  C   UNL d   1      14.756  13.686  -1.431  0.00  0.00     0.097 A 
ATOM      6  C   UNL d   1      14.448  13.026  -1.832  0.00  0.00     0.097 A 
ATOM      7  C   UNL d   1      15.111  13.422  -0.740  0.00  0.00     0.118 A 
ATOM      8  C   UNL d   1      14.621  12.358  -1.373  0.00  0.00     0.118 A 
ATOM      9  O   UNL d   1      13.893  14.596  -3.172  0.00  0.00    -0.245 OA
ATOM     10  O   UNL d   1      14.941  11.779  -0.673  0.00  0.00    -0.217 OA
ATOM     11  O   UNL d   1      15.440  12.805  -0.015  0.00  0.00    -0.217 OA
ENDROOT
BRANCH   3  12
ATOM     12  C   UNL d   1      13.714  12.807  -3.090  0.00  0.00     0.068 A 
ATOM     13  C   UNL d   1      13.905  12.875  -3.888  0.00  0.00     0.021 A 
ATOM     14  C   UNL d   1      13.535  12.403  -4.448  0.00  0.00     0.073 A 
ATOM     15  C   UNL d   1      12.967  11.855  -4.207  0.00  0.00     0.004 A 
ATOM     16  C   UNL d   1      12.769  11.779  -3.408  0.00  0.00     0.001 A 
ATOM     17  C   UNL d   1      13.145  12.259  -2.849  0.00  0.00     0.018 A 
BRANCH  14  18
ATOM     18  C   UNL d   1      13.728  12.473  -5.249  0.00  0.00     0.419 C 
ATOM     19  F   UNL d   1      13.904  12.531  -5.980  0.00  0.00    -0.166 F 
ATOM     20  F   UNL d   1      13.830  11.848  -5.841  0.00  0.00    -0.166 F 
ATOM     21  F   UNL d   1      13.882  13.180  -5.716  0.00  0.00    -0.166 F 
ENDBRANCH  14  18
ENDBRANCH   3  12
BRANCH   2  22
ATOM     22  C   UNL d   1      14.786  15.141  -1.704  0.00  0.00     0.068 A 
ATOM     23  C   UNL d   1      14.849  15.705  -2.302  0.00  0.00     0.016 A 
ATOM     24  C   UNL d   1      14.709  15.501  -3.087  0.00  0.00     0.002 C 
ATOM     25  C   UNL d   1      15.054  16.483  -2.100  0.00  0.00     0.001 A 
ATOM     26  C   UNL d   1      15.194  16.687  -1.315  0.00  0.00     0.000 A 
ATOM     27  C   UNL d   1      15.129  16.119  -0.724  0.00  0.00     0.002 A 
ATOM     28  C   UNL d   1      14.925  15.346  -0.919  0.00  0.00     0.018 A 
ENDBRANCH   2  22
TORSDOF 3
ENDMDL
MODEL 2
REMARK VINA RESULT:      49.3      1.371      2.673
REMARK  3 active torsions:
REMARK  status: ('A' for Active; 'I' for Inactive)
REMARK    1  A    between atoms: C_11  and  N_2 
REMARK    2  A    between atoms: C_9  and  N_3 
REMARK    3  A    between atoms: C_10  and  C_12 
ROOT
ATOM      1  C   UNL d   1      14.089  12.999  -2.561  0.00  0.00     0.339 A 
ATOM      2  N   UNL d   1      14.459  13.238  -1.866  0.00  0.00    -0.258 N 
ATOM      3  N   UNL d   1      13.938  13.668  -3.025  0.00  0.00    -0.258 N 
ATOM      4  S   UNL d   1      14.670  15.390  -1.947  0.00  0.00     0.214 S 
ATOM      5  C   UNL d   1      14.543  14.070  -1.893  0.00  0.00     0.097 A 
ATOM      6  C   UNL d   1      14.218  14.328  -2.613  0.00  0.00     0.097 A 
ATOM      7  C   UNL d   1      14.819  14.728  -1.488  0.00  0.00     0.118 A 
ATOM      8  C   UNL d   1      14.301  15.151  -2.639  0.00  0.00     0.118 A 
ATOM      9  O   UNL d   1      13.897  12.219  -2.766  0.00  0.00    -0.245 OA
ATOM     10  O   UNL d   1      14.517  16.063  -2.416  0.00  0.00    -0.217 OA
ATOM     11  O   UNL d   1      15.039  15.686  -1.267  0.00  0.00    -0.217 OA
ENDROOT
BRANCH   3  12
ATOM     12  C   UNL d   1      13.573  13.679  -3.768  0.00  0.00     0.068 A 
ATOM     13  C   UNL d   1      13.646  13.034  -4.275  0.00  0.00     0.021 A 
ATOM     14  C   UNL d   1      13.286  13.039  -5.012  0.00  0.00     0.073 A 
ATOM     15  C   UNL d   1      12.848  13.698  -5.247  0.00  0.00     0.004 A 
ATOM     16  C   UNL d   1      12.769  14.350  -4.744  0.00  0.00     0.001 A 
ATOM     17  C   UNL d   1      13.134  14.337  -4.003  0.00  0.00     0.018 A 
BRANCH  14  18
ATOM     18  C   UNL d   1      13.361  12.391  -5.520  0.00  0.00     0.419 C 
ATOM     19  F   UNL d   1      13.433  11.801  -5.984  0.00  0.00    -0.166 F 
ATOM     20  F   UNL d   1      14.059  12.113  -5.951  0.00  0.00    -0.166 F 
ATOM     21  F   UNL d   1      12.769  11.814  -5.762  0.00  0.00    -0.166 F 
ENDBRANCH  14  18
ENDBRANCH   3  12
BRANCH   2  22
ATOM     22  C   UNL d   1      14.708  12.749  -1.245  0.00  0.00     0.068 A 
ATOM     23  C   UNL d   1      14.152  12.320  -0.813  0.00  0.00     0.016 A 
ATOM     24  C   UNL d   1      13.350  12.372  -0.993  0.00  0.00     0.002 C 
ATOM     25  C   UNL d   1      14.412  11.833  -0.194  0.00  0.00     0.001 A 
ATOM     26  C   UNL d   1      15.214  11.780  -0.014  0.00  0.00     0.000 A 
ATOM     27  C   UNL d   1      15.763  12.212  -0.449  0.00  0.00     0.002 A 
ATOM     28  C   UNL d   1      15.509  12.696  -1.065  0.00  0.00     0.018 A 
ENDBRANCH   2  22
TORSDOF 3
ENDMDL
