MODEL 1
REMARK VINA RESULT:      58.2      0.000      0.000
REMARK  6 active torsions:
REMARK  status: ('A' for Active; 'I' for Inactive)
REMARK    1  A    between atoms: C_4  and  C_1 
REMARK    2  A    between atoms: C_7  and  C_4 
REMARK    3  A    between atoms: N_10  and  C_7 
REMARK    4  A    between atoms: C_13  and  N_10 
REMARK    5  A    between atoms: O_18  and  C_11 
REMARK    6  A    between atoms: O_20  and  C_15 
ROOT
ATOM      1  C   UNL d   1     -55.505-100.121 -43.994  0.00  0.00     0.122 C 
ATOM      2  C   UNL d   1     -55.195-100.184 -44.753  0.00  0.00     0.106 C 
ATOM      3  N   UNL d   1     -54.884-100.248 -45.514  0.00  0.00    -0.191 NA
ENDROOT
BRANCH   1   4
ATOM      4  C   UNL d   1     -55.336-100.698 -43.429  0.00  0.00     0.159 A 
ATOM      5  N   UNL d   1     -55.336-100.593 -42.609  0.00  0.00    -0.226 NA
ATOM      6  C   UNL d   1     -55.138-101.308 -42.261  0.00  0.00     0.099 A 
ATOM      7  C   UNL d   1     -55.053-101.537 -41.467  0.00  0.00     0.021 A 
ATOM      8  C   UNL d   1     -55.014-101.859 -42.861  0.00  0.00     0.083 A 
ATOM      9  C   UNL d   1     -54.844-102.316 -41.286  0.00  0.00     0.002 A 
ATOM     10  C   UNL d   1     -54.719-102.867 -41.886  0.00  0.00     0.002 A 
ATOM     11  C   UNL d   1     -54.803-102.645 -42.674  0.00  0.00     0.019 A 
ATOM     12  N   UNL d   1     -55.134-101.487 -43.583  0.00  0.00    -0.287 N 
ATOM     13  C   UNL d   1     -55.069-101.830 -44.336  0.00  0.00     0.101 C 
ENDBRANCH   1   4
BRANCH   1  14
ATOM     14  C   UNL d   1     -55.984 -99.480 -43.798  0.00  0.00     0.112 C 
BRANCH  14  15
ATOM     15  N   UNL d   1     -56.202 -98.935 -44.378  0.00  0.00    -0.241 NA
BRANCH  15  16
ATOM     16  C   UNL d   1     -56.984 -98.891 -44.630  0.00  0.00     0.104 A 
ATOM     17  C   UNL d   1     -57.157 -98.830 -45.434  0.00  0.00     0.114 A 
ATOM     18  C   UNL d   1     -57.940 -98.785 -45.685  0.00  0.00     0.050 A 
ATOM     19  C   UNL d   1     -58.553 -98.802 -45.132  0.00  0.00     0.096 A 
ATOM     20  C   UNL d   1     -58.376 -98.863 -44.328  0.00  0.00     0.026 A 
ATOM     21  C   UNL d   1     -57.594 -98.907 -44.076  0.00  0.00     0.023 A 
BRANCH  17  22
ATOM     22  O   UNL d   1     -56.548 -98.813 -45.987  0.00  0.00    -0.327 OA
ATOM     23  C   UNL d   1     -55.763 -98.762 -45.735  0.00  0.00     0.181 C 
ENDBRANCH  17  22
BRANCH  19  24
ATOM     24  O   UNL d   1     -59.336 -98.757 -45.383  0.00  0.00    -0.328 OA
ATOM     25  C   UNL d   1     -59.952 -98.984 -44.874  0.00  0.00     0.181 C 
ENDBRANCH  19  24
ENDBRANCH  15  16
ENDBRANCH  14  15
ENDBRANCH   1  14
TORSDOF 6
ENDMDL
