MODEL 1
REMARK VINA RESULT:      18.0      0.000      0.000
REMARK  8 active torsions:
REMARK  status: ('A' for Active; 'I' for Inactive)
REMARK    1  A    between atoms: N_10  and  C_1 
REMARK    2  A    between atoms: C_20  and  N_2 
REMARK    3  A    between atoms: C_4  and  S_13 
REMARK       I    between atoms: C_14  and  N_10 
REMARK       I    between atoms: C_12  and  N_18 
REMARK    4  A    between atoms: C_16  and  C_12 
REMARK    5  A    between atoms: S_13  and  C_19 
REMARK    6  A    between atoms: C_19  and  C_14 
REMARK    7  A    between atoms: N_18  and  C_22 
REMARK    8  A    between atoms: C_22  and  C_20 
ROOT
ATOM      1  N   UNL d   1     -42.153-122.834 -51.986  0.00  0.00    -0.302 N 
ATOM      2  C   UNL d   1     -41.550-121.740 -52.459  0.00  0.00     0.049 A 
ATOM      3  C   UNL d   1     -41.710-122.158 -51.773  0.00  0.00     0.087 A 
ATOM      4  C   UNL d   1     -41.886-122.146 -53.100  0.00  0.00     0.024 A 
ATOM      5  C   UNL d   1     -42.257-122.821 -52.804  0.00  0.00     0.065 A 
ATOM      6  C   UNL d   1     -41.897-121.983 -53.902  0.00  0.00     0.002 A 
ATOM      7  C   UNL d   1     -42.638-123.329 -53.319  0.00  0.00     0.018 A 
ATOM      8  C   UNL d   1     -42.281-122.498 -54.418  0.00  0.00     0.000 A 
ATOM      9  C   UNL d   1     -42.654-123.172 -54.129  0.00  0.00     0.002 A 
ENDROOT
BRANCH   1  10
ATOM     10  C   UNL d   1     -42.436-123.413 -51.476  0.00  0.00     0.101 C 
BRANCH  10  11
ATOM     11  C   UNL d   1     -42.018-123.598 -50.791  0.00  0.00     0.121 C 
BRANCH  11  12
ATOM     12  N   UNL d   1     -42.375-123.491 -50.050  0.00  0.00    -0.205 NA
ATOM     13  C   UNL d   1     -41.928-123.588 -49.360  0.00  0.00     0.279 C 
ATOM     14  O   UNL d   1     -41.126-123.792 -49.413  0.00  0.00    -0.265 OA
BRANCH  13  15
ATOM     15  C   UNL d   1     -42.283-123.482 -48.629  0.00  0.00     0.058 A 
ATOM     16  C   UNL d   1     -43.000-123.816 -48.467  0.00  0.00     0.005 A 
ATOM     17  C   UNL d   1     -43.370-123.719 -47.738  0.00  0.00     0.000 A 
ATOM     18  C   UNL d   1     -43.000-123.270 -47.153  0.00  0.00     0.000 A 
ATOM     19  C   UNL d   1     -42.263-122.922 -47.308  0.00  0.00     0.000 A 
ATOM     20  C   UNL d   1     -41.905-123.029 -48.046  0.00  0.00     0.005 A 
ENDBRANCH  13  15
ENDBRANCH  11  12
ENDBRANCH  10  11
ENDBRANCH   1  10
BRANCH   2  21
ATOM     21  S   UNL d   1     -41.126-121.034 -52.509  0.00  0.00    -0.080 SA
BRANCH  21  22
ATOM     22  C   UNL d   1     -41.145-120.503 -51.880  0.00  0.00     0.098 C 
BRANCH  22  23
ATOM     23  C   UNL d   1     -41.179-119.686 -52.026  0.00  0.00     0.288 C 
ATOM     24  N   UNL d   1     -41.202-119.413 -52.798  0.00  0.00    -0.181 NA
ATOM     25  O   UNL d   1     -41.191-119.160 -51.396  0.00  0.00    -0.265 OA
BRANCH  24  26
ATOM     26  C   UNL d   1     -41.237-118.599 -52.953  0.00  0.00     0.219 A 
ATOM     27  S   UNL d   1     -41.123-117.994 -52.413  0.00  0.00    -0.026 SA
ATOM     28  C   UNL d   1     -41.210-117.278 -52.813  0.00  0.00     0.135 A 
ATOM     29  C   UNL d   1     -41.141-116.526 -52.479  0.00  0.00     0.030 C 
ATOM     30  N   UNL d   1     -41.375-117.429 -53.595  0.00  0.00    -0.139 NA
ATOM     31  N   UNL d   1     -41.394-118.247 -53.691  0.00  0.00    -0.121 NA
ENDBRANCH  24  26
ENDBRANCH  22  23
ENDBRANCH  21  22
ENDBRANCH   2  21
TORSDOF 8
ENDMDL
