MODEL 1
REMARK VINA RESULT:      40.6      0.000      0.000
REMARK  2 active torsions:
REMARK  status: ('A' for Active; 'I' for Inactive)
REMARK    1  A    between atoms: N_2  and  C_1 
REMARK    2  A    between atoms: N_11  and  C_3 
ROOT
ATOM      1  C   UNL d   1      46.289 -18.204  42.930  0.00  0.00     0.142 A 
ATOM      2  C   UNL d   1      46.204 -19.024  42.886  0.00  0.00     0.124 A 
ATOM      3  C   UNL d   1      46.417 -17.771  42.243  0.00  0.00     0.215 A 
ATOM      4  C   UNL d   1      46.246 -19.411  42.160  0.00  0.00     0.213 A 
ATOM      5  C   UNL d   1      46.461 -18.150  41.510  0.00  0.00     0.044 A 
ATOM      6  C   UNL d   1      46.374 -18.974  41.474  0.00  0.00     0.044 A 
ATOM      7  O   UNL d   1      46.504 -16.951  42.279  0.00  0.00    -0.285 OA
ATOM      8  O   UNL d   1      46.161 -20.230  42.116  0.00  0.00    -0.285 OA
ATOM      9  C   UNL d   1      46.588 -17.722  40.828  0.00  0.00     0.003 A 
ATOM     10  C   UNL d   1      46.418 -19.357  40.741  0.00  0.00     0.003 A 
ATOM     11  C   UNL d   1      46.546 -18.916  40.060  0.00  0.00     0.000 A 
ATOM     12  C   UNL d   1      46.632 -18.092  40.104  0.00  0.00     0.000 A 
ENDROOT
BRANCH   1  13
ATOM     13  N   UNL d   1      46.246 -17.825  43.655  0.00  0.00    -0.206 N 
ATOM     14  N   UNL d   1      46.560 -18.103  44.366  0.00  0.00    -0.059 NA
ATOM     15  N   UNL d   1      46.388 -17.545  44.954  0.00  0.00    -0.129 NA
ATOM     16  C   UNL d   1      45.969 -16.926  44.596  0.00  0.00     0.122 A 
ATOM     17  C   UNL d   1      45.883 -17.103  43.791  0.00  0.00     0.104 A 
ATOM     18  C   UNL d   1      45.659 -16.229  44.908  0.00  0.00     0.022 A 
ATOM     19  C   UNL d   1      45.488 -16.585  43.299  0.00  0.00     0.021 A 
ATOM     20  C   UNL d   1      45.169 -15.877  43.595  0.00  0.00     0.002 A 
ATOM     21  C   UNL d   1      45.257 -15.705  44.400  0.00  0.00     0.002 A 
ENDBRANCH   1  13
BRANCH   2  22
ATOM     22  N   UNL d   1      46.075 -19.460  43.575  0.00  0.00    -0.296 N 
ATOM     23  C   UNL d   1      46.641 -19.462  44.175  0.00  0.00     0.107 A 
ATOM     24  C   UNL d   1      46.517 -19.892  44.856  0.00  0.00     0.142 A 
ATOM     25  O   UNL d   1      45.819 -20.330  44.950  0.00  0.00    -0.300 OA
ATOM     26  C   UNL d   1      45.255 -20.324  44.347  0.00  0.00     0.142 A 
ATOM     27  C   UNL d   1      45.385 -19.889  43.661  0.00  0.00     0.107 A 
ENDBRANCH   2  22
TORSDOF 2
ENDMDL
