MODEL 1
REMARK VINA RESULT:      54.2      0.000      0.000
REMARK  9 active torsions:
REMARK  status: ('A' for Active; 'I' for Inactive)
REMARK    1  A    between atoms: C_14  and  N_1 
REMARK    2  A    between atoms: S_6  and  C_2 
REMARK    3  A    between atoms: C_8  and  C_3 
REMARK    4  A    between atoms: C_16  and  S_6 
REMARK    5  A    between atoms: O_11  and  C_8 
REMARK    6  A    between atoms: C_9  and  C_16 
REMARK    7  A    between atoms: O_19  and  C_9 
REMARK    8  A    between atoms: C_12  and  O_11 
REMARK    9  A    between atoms: C_15  and  C_14 
ROOT
ATOM      1  N   UNL d   1     -49.877  27.862  34.297  0.00  0.00    -0.266 N 
ATOM      2  C   UNL d   1     -49.191  27.851  34.745  0.00  0.00     0.202 A 
ATOM      3  C   UNL d   1     -49.998  27.100  33.999  0.00  0.00     0.196 A 
ATOM      4  N   UNL d   1     -48.884  27.086  34.728  0.00  0.00    -0.121 NA
ATOM      5  N   UNL d   1     -49.387  26.620  34.264  0.00  0.00    -0.126 NA
ENDROOT
BRANCH   3   6
ATOM      6  C   UNL d   1     -50.624  26.861  33.519  0.00  0.00     0.162 C 
BRANCH   6   7
ATOM      7  O   UNL d   1     -50.712  26.063  33.320  0.00  0.00    -0.300 OA
BRANCH   7   8
ATOM      8  C   UNL d   1     -51.460  25.715  33.317  0.00  0.00     0.118 A 
ATOM      9  C   UNL d   1     -51.527  24.898  33.318  0.00  0.00     0.104 A 
ATOM     10  N   UNL d   1     -50.847  24.427  33.322  0.00  0.00    -0.242 NA
ATOM     11  C   UNL d   1     -52.270  24.543  33.314  0.00  0.00     0.020 A 
ATOM     12  C   UNL d   1     -50.913  23.612  33.324  0.00  0.00     0.099 A 
ATOM     13  C   UNL d   1     -51.660  23.248  33.320  0.00  0.00     0.021 A 
ATOM     14  C   UNL d   1     -52.336  23.721  33.316  0.00  0.00     0.003 A 
ATOM     15  C   UNL d   1     -52.952  25.010  33.310  0.00  0.00     0.002 A 
ATOM     16  C   UNL d   1     -52.879  25.832  33.309  0.00  0.00     0.002 A 
ATOM     17  C   UNL d   1     -52.143  26.182  33.312  0.00  0.00     0.026 A 
ENDBRANCH   7   8
ENDBRANCH   6   7
ENDBRANCH   3   6
BRANCH   1  18
ATOM     18  C   UNL d   1     -50.361  28.511  34.164  0.00  0.00     0.084 C 
BRANCH  18  19
ATOM     19  C   UNL d   1     -50.753  28.587  33.442  0.00  0.00     0.019 C 
ATOM     20  C   UNL d   1     -51.239  29.235  33.306  0.00  0.00     0.002 C 
ENDBRANCH  18  19
ENDBRANCH   1  18
BRANCH   2  21
ATOM     21  S   UNL d   1     -48.861  28.486  35.144  0.00  0.00    -0.042 SA
BRANCH  21  22
ATOM     22  C   UNL d   1     -48.062  28.488  35.349  0.00  0.00     0.107 C 
BRANCH  22  23
ATOM     23  C   UNL d   1     -47.607  29.164  35.252  0.00  0.00     0.303 C 
ATOM     24  O   UNL d   1     -47.366  29.398  34.493  0.00  0.00    -0.259 OA
BRANCH  23  25
ATOM     25  O   UNL d   1     -47.384  29.618  35.903  0.00  0.00    -0.295 OA
ATOM     26  C   UNL d   1     -46.593  29.679  36.121  0.00  0.00     0.185 C 
ENDBRANCH  23  25
ENDBRANCH  22  23
ENDBRANCH  21  22
ENDBRANCH   2  21
TORSDOF 9
ENDMDL
MODEL 2
REMARK VINA RESULT:      56.5      2.002      3.023
REMARK  9 active torsions:
REMARK  status: ('A' for Active; 'I' for Inactive)
REMARK    1  A    between atoms: C_14  and  N_1 
REMARK    2  A    between atoms: S_6  and  C_2 
REMARK    3  A    between atoms: C_8  and  C_3 
REMARK    4  A    between atoms: C_16  and  S_6 
REMARK    5  A    between atoms: O_11  and  C_8 
REMARK    6  A    between atoms: C_9  and  C_16 
REMARK    7  A    between atoms: O_19  and  C_9 
REMARK    8  A    between atoms: C_12  and  O_11 
REMARK    9  A    between atoms: C_15  and  C_14 
ROOT
ATOM      1  N   UNL d   1     -48.582  29.498  34.296  0.00  0.00    -0.266 N 
ATOM      2  C   UNL d   1     -48.737  30.297  34.193  0.00  0.00     0.202 A 
ATOM      3  C   UNL d   1     -49.116  29.075  33.829  0.00  0.00     0.196 A 
ATOM      4  N   UNL d   1     -49.364  30.372  33.664  0.00  0.00    -0.121 NA
ATOM      5  N   UNL d   1     -49.600  29.611  33.437  0.00  0.00    -0.126 NA
ENDROOT
BRANCH   3   6
ATOM      6  C   UNL d   1     -49.159  28.253  33.764  0.00  0.00     0.162 C 
BRANCH   6   7
ATOM      7  O   UNL d   1     -49.887  27.886  33.631  0.00  0.00    -0.300 OA
BRANCH   7   8
ATOM      8  C   UNL d   1     -49.928  27.068  33.525  0.00  0.00     0.118 A 
ATOM      9  C   UNL d   1     -50.659  26.703  33.469  0.00  0.00     0.104 A 
ATOM     10  N   UNL d   1     -51.351  27.152  33.519  0.00  0.00    -0.242 NA
ATOM     11  C   UNL d   1     -50.708  25.887  33.362  0.00  0.00     0.020 A 
ATOM     12  C   UNL d   1     -52.082  26.787  33.463  0.00  0.00     0.099 A 
ATOM     13  C   UNL d   1     -52.137  25.965  33.356  0.00  0.00     0.021 A 
ATOM     14  C   UNL d   1     -51.444  25.520  33.306  0.00  0.00     0.003 A 
ATOM     15  C   UNL d   1     -50.018  25.435  33.312  0.00  0.00     0.002 A 
ATOM     16  C   UNL d   1     -49.284  25.808  33.369  0.00  0.00     0.002 A 
ATOM     17  C   UNL d   1     -49.238  26.615  33.474  0.00  0.00     0.026 A 
ENDBRANCH   7   8
ENDBRANCH   6   7
ENDBRANCH   3   6
BRANCH   1  18
ATOM     18  C   UNL d   1     -48.003  29.174  34.776  0.00  0.00     0.084 C 
BRANCH  18  19
ATOM     19  C   UNL d   1     -47.738  29.592  35.437  0.00  0.00     0.019 C 
ATOM     20  C   UNL d   1     -47.120  29.294  35.889  0.00  0.00     0.002 C 
ENDBRANCH  18  19
ENDBRANCH   1  18
BRANCH   2  21
ATOM     21  S   UNL d   1     -48.340  30.919  34.551  0.00  0.00    -0.042 SA
BRANCH  21  22
ATOM     22  C   UNL d   1     -48.505  31.700  34.344  0.00  0.00     0.107 C 
BRANCH  22  23
ATOM     23  C   UNL d   1     -47.912  32.268  34.350  0.00  0.00     0.303 C 
ATOM     24  O   UNL d   1     -47.497  32.428  35.051  0.00  0.00    -0.259 OA
BRANCH  23  25
ATOM     25  O   UNL d   1     -47.722  32.685  33.665  0.00  0.00    -0.295 OA
ATOM     26  C   UNL d   1     -47.602  33.498  33.688  0.00  0.00     0.185 C 
ENDBRANCH  23  25
ENDBRANCH  22  23
ENDBRANCH  21  22
ENDBRANCH   2  21
TORSDOF 9
ENDMDL
MODEL 3
REMARK VINA RESULT:      56.9      1.973      2.791
REMARK  9 active torsions:
REMARK  status: ('A' for Active; 'I' for Inactive)
REMARK    1  A    between atoms: C_14  and  N_1 
REMARK    2  A    between atoms: S_6  and  C_2 
REMARK    3  A    between atoms: C_8  and  C_3 
REMARK    4  A    between atoms: C_16  and  S_6 
REMARK    5  A    between atoms: O_11  and  C_8 
REMARK    6  A    between atoms: C_9  and  C_16 
REMARK    7  A    between atoms: O_19  and  C_9 
REMARK    8  A    between atoms: C_12  and  O_11 
REMARK    9  A    between atoms: C_15  and  C_14 
ROOT
ATOM      1  N   UNL d   1     -48.531  29.428  34.534  0.00  0.00    -0.266 N 
ATOM      2  C   UNL d   1     -48.426  30.205  34.294  0.00  0.00     0.202 A 
ATOM      3  C   UNL d   1     -49.085  29.079  34.030  0.00  0.00     0.196 A 
ATOM      4  N   UNL d   1     -48.913  30.341  33.642  0.00  0.00    -0.121 NA
ATOM      5  N   UNL d   1     -49.323  29.640  33.479  0.00  0.00    -0.126 NA
ENDROOT
BRANCH   3   6
ATOM      6  C   UNL d   1     -49.356  28.301  34.071  0.00  0.00     0.162 C 
BRANCH   6   7
ATOM      7  O   UNL d   1     -49.552  27.894  33.379  0.00  0.00    -0.300 OA
BRANCH   7   8
ATOM      8  C   UNL d   1     -50.220  27.410  33.356  0.00  0.00     0.118 A 
ATOM      9  C   UNL d   1     -50.131  26.596  33.344  0.00  0.00     0.104 A 
ATOM     10  N   UNL d   1     -49.375  26.262  33.357  0.00  0.00    -0.242 NA
ATOM     11  C   UNL d   1     -50.794  26.106  33.321  0.00  0.00     0.020 A 
ATOM     12  C   UNL d   1     -49.286  25.448  33.345  0.00  0.00     0.099 A 
ATOM     13  C   UNL d   1     -49.949  24.950  33.322  0.00  0.00     0.021 A 
ATOM     14  C   UNL d   1     -50.703  25.287  33.309  0.00  0.00     0.003 A 
ATOM     15  C   UNL d   1     -51.551  26.436  33.308  0.00  0.00     0.002 A 
ATOM     16  C   UNL d   1     -51.636  27.257  33.320  0.00  0.00     0.002 A 
ATOM     17  C   UNL d   1     -50.979  27.740  33.343  0.00  0.00     0.026 A 
ENDBRANCH   7   8
ENDBRANCH   6   7
ENDBRANCH   3   6
BRANCH   1  18
ATOM     18  C   UNL d   1     -48.155  29.059  35.162  0.00  0.00     0.084 C 
BRANCH  18  19
ATOM     19  C   UNL d   1     -48.202  29.390  35.917  0.00  0.00     0.019 C 
ATOM     20  C   UNL d   1     -47.797  29.042  36.542  0.00  0.00     0.002 C 
ENDBRANCH  18  19
ENDBRANCH   1  18
BRANCH   2  21
ATOM     21  S   UNL d   1     -47.927  30.757  34.636  0.00  0.00    -0.042 SA
BRANCH  21  22
ATOM     22  C   UNL d   1     -47.712  31.442  34.231  0.00  0.00     0.107 C 
BRANCH  22  23
ATOM     23  C   UNL d   1     -47.646  32.159  34.626  0.00  0.00     0.303 C 
ATOM     24  O   UNL d   1     -47.209  32.206  35.330  0.00  0.00    -0.259 OA
BRANCH  23  25
ATOM     25  O   UNL d   1     -48.011  32.837  34.331  0.00  0.00    -0.295 OA
ATOM     26  C   UNL d   1     -47.622  33.323  33.794  0.00  0.00     0.185 C 
ENDBRANCH  23  25
ENDBRANCH  22  23
ENDBRANCH  21  22
ENDBRANCH   2  21
TORSDOF 9
ENDMDL
