MODEL 1
REMARK VINA RESULT:      -7.4      0.000      0.000
REMARK  6 active torsions:
REMARK  status: ('A' for Active; 'I' for Inactive)
REMARK    1  A    between atoms: C_6  and  C_2 
REMARK    2  A    between atoms: C_7  and  C_6 
REMARK    3  A    between atoms: C_8  and  C_15 
REMARK       I    between atoms: N_9  and  C_8 
REMARK    4  A    between atoms: C_16  and  N_9 
REMARK    5  A    between atoms: O_13  and  C_12 
REMARK    6  A    between atoms: C_15  and  O_13 
ROOT
ATOM      1  C   UNL d   1     -46.825  13.203  22.851  0.00  0.00     0.023 A 
ATOM      2  C   UNL d   1     -47.469  13.460  22.405  0.00  0.00     0.100 A 
ATOM      3  C   UNL d   1     -46.382  13.737  23.287  0.00  0.00     0.002 A 
ATOM      4  C   UNL d   1     -47.672  14.260  22.396  0.00  0.00     0.025 A 
ATOM      5  C   UNL d   1     -46.578  14.542  23.283  0.00  0.00     0.000 A 
ATOM      6  C   UNL d   1     -47.226  14.798  22.834  0.00  0.00     0.002 A 
ENDROOT
BRANCH   2   7
ATOM      7  O   UNL d   1     -47.916  12.920  21.965  0.00  0.00    -0.300 OA
BRANCH   7   8
ATOM      8  C   UNL d   1     -48.746  12.969  21.983  0.00  0.00     0.185 C 
BRANCH   8   9
ATOM      9  C   UNL d   1     -49.193  12.597  21.388  0.00  0.00     0.304 C 
ATOM     10  N   UNL d   1     -49.990  12.424  21.526  0.00  0.00    -0.206 NA
ATOM     11  O   UNL d   1     -48.841  12.403  20.667  0.00  0.00    -0.263 OA
BRANCH  10  12
ATOM     12  C   UNL d   1     -50.341  12.618  22.246  0.00  0.00     0.085 A 
ATOM     13  C   UNL d   1     -50.326  12.070  22.872  0.00  0.00     0.019 A 
ATOM     14  C   UNL d   1     -50.675  12.258  23.595  0.00  0.00     0.002 A 
ATOM     15  C   UNL d   1     -51.042  12.997  23.698  0.00  0.00     0.000 A 
ATOM     16  C   UNL d   1     -51.054  13.538  23.070  0.00  0.00     0.002 A 
ATOM     17  C   UNL d   1     -50.703  13.344  22.349  0.00  0.00     0.019 A 
ENDBRANCH  10  12
ENDBRANCH   8   9
ENDBRANCH   7   8
ENDBRANCH   2   7
BRANCH   1  18
ATOM     18  C   UNL d   1     -46.620  12.401  22.862  0.00  0.00     0.013 C 
BRANCH  18  19
ATOM     19  C   UNL d   1     -45.830  12.170  22.836  0.00  0.00     0.092 A 
ATOM     20  C   UNL d   1     -45.498  11.524  23.217  0.00  0.00     0.288 A 
ATOM     21  N   UNL d   1     -44.696  11.502  23.040  0.00  0.00    -0.163 NA
ATOM     22  O   UNL d   1     -45.901  10.987  23.698  0.00  0.00    -0.265 OA
ATOM     23  C   UNL d   1     -44.528  12.143  22.542  0.00  0.00     0.313 A 
ATOM     24  S   UNL d   1     -45.232  12.558  22.416  0.00  0.00    -0.021 SA
ATOM     25  O   UNL d   1     -43.784  12.335  22.226  0.00  0.00    -0.258 OA
ENDBRANCH  18  19
ENDBRANCH   1  18
TORSDOF 6
ENDMDL
MODEL 2
REMARK VINA RESULT:      -7.0      1.364      2.035
REMARK  6 active torsions:
REMARK  status: ('A' for Active; 'I' for Inactive)
REMARK    1  A    between atoms: C_6  and  C_2 
REMARK    2  A    between atoms: C_7  and  C_6 
REMARK    3  A    between atoms: C_8  and  C_15 
REMARK       I    between atoms: N_9  and  C_8 
REMARK    4  A    between atoms: C_16  and  N_9 
REMARK    5  A    between atoms: O_13  and  C_12 
REMARK    6  A    between atoms: C_15  and  O_13 
ROOT
ATOM      1  C   UNL d   1     -47.533  12.543  22.740  0.00  0.00     0.023 A 
ATOM      2  C   UNL d   1     -48.297  12.274  22.589  0.00  0.00     0.100 A 
ATOM      3  C   UNL d   1     -47.059  12.161  23.290  0.00  0.00     0.002 A 
ATOM      4  C   UNL d   1     -48.590  11.615  22.991  0.00  0.00     0.025 A 
ATOM      5  C   UNL d   1     -47.345  11.500  23.698  0.00  0.00     0.000 A 
ATOM      6  C   UNL d   1     -48.114  11.230  23.544  0.00  0.00     0.002 A 
ENDROOT
BRANCH   2   7
ATOM      7  O   UNL d   1     -48.774  12.660  22.034  0.00  0.00    -0.300 OA
BRANCH   7   8
ATOM      8  C   UNL d   1     -49.533  12.914  22.257  0.00  0.00     0.185 C 
BRANCH   8   9
ATOM      9  C   UNL d   1     -50.130  12.983  21.682  0.00  0.00     0.304 C 
ATOM     10  N   UNL d   1     -50.682  13.597  21.738  0.00  0.00    -0.206 NA
ATOM     11  O   UNL d   1     -50.170  12.440  21.062  0.00  0.00    -0.263 OA
BRANCH  10  12
ATOM     12  C   UNL d   1     -50.641  14.139  22.358  0.00  0.00     0.085 A 
ATOM     13  C   UNL d   1     -51.033  13.975  23.073  0.00  0.00     0.019 A 
ATOM     14  C   UNL d   1     -50.996  14.513  23.698  0.00  0.00     0.002 A 
ATOM     15  C   UNL d   1     -50.567  15.219  23.611  0.00  0.00     0.000 A 
ATOM     16  C   UNL d   1     -50.179  15.376  22.896  0.00  0.00     0.002 A 
ATOM     17  C   UNL d   1     -50.219  14.835  22.275  0.00  0.00     0.019 A 
ENDBRANCH  10  12
ENDBRANCH   8   9
ENDBRANCH   7   8
ENDBRANCH   2   7
BRANCH   1  18
ATOM     18  C   UNL d   1     -47.236  13.204  22.338  0.00  0.00     0.013 C 
BRANCH  18  19
ATOM     19  C   UNL d   1     -46.427  13.362  22.331  0.00  0.00     0.092 A 
ATOM     20  C   UNL d   1     -46.066  14.062  22.558  0.00  0.00     0.288 A 
ATOM     21  N   UNL d   1     -45.254  13.978  22.462  0.00  0.00    -0.163 NA
ATOM     22  O   UNL d   1     -46.452  14.737  22.837  0.00  0.00    -0.265 OA
ATOM     23  C   UNL d   1     -45.110  13.215  22.171  0.00  0.00     0.313 A 
ATOM     24  S   UNL d   1     -45.839  12.833  22.090  0.00  0.00    -0.021 SA
ATOM     25  O   UNL d   1     -44.367  12.891  21.992  0.00  0.00    -0.258 OA
ENDBRANCH  18  19
ENDBRANCH   1  18
TORSDOF 6
ENDMDL
MODEL 3
REMARK VINA RESULT:      -5.6      1.440      2.169
REMARK  6 active torsions:
REMARK  status: ('A' for Active; 'I' for Inactive)
REMARK    1  A    between atoms: C_6  and  C_2 
REMARK    2  A    between atoms: C_7  and  C_6 
REMARK    3  A    between atoms: C_8  and  C_15 
REMARK       I    between atoms: N_9  and  C_8 
REMARK    4  A    between atoms: C_16  and  N_9 
REMARK    5  A    between atoms: O_13  and  C_12 
REMARK    6  A    between atoms: C_15  and  O_13 
ROOT
ATOM      1  C   UNL d   1     -47.702  12.647  22.133  0.00  0.00     0.023 A 
ATOM      2  C   UNL d   1     -48.497  12.497  21.974  0.00  0.00     0.100 A 
ATOM      3  C   UNL d   1     -47.159  12.699  21.520  0.00  0.00     0.002 A 
ATOM      4  C   UNL d   1     -48.751  12.399  21.196  0.00  0.00     0.025 A 
ATOM      5  C   UNL d   1     -47.406  12.602  20.736  0.00  0.00     0.000 A 
ATOM      6  C   UNL d   1     -48.206  12.451  20.579  0.00  0.00     0.002 A 
ENDROOT
BRANCH   2   7
ATOM      7  O   UNL d   1     -49.043  12.445  22.594  0.00  0.00    -0.300 OA
BRANCH   7   8
ATOM      8  C   UNL d   1     -49.713  12.937  22.587  0.00  0.00     0.185 C 
BRANCH   8   9
ATOM      9  C   UNL d   1     -50.433  12.656  22.895  0.00  0.00     0.304 C 
ATOM     10  N   UNL d   1     -51.012  13.197  23.134  0.00  0.00    -0.206 NA
ATOM     11  O   UNL d   1     -50.566  11.844  22.960  0.00  0.00    -0.263 OA
BRANCH  10  12
ATOM     12  C   UNL d   1     -50.879  14.007  23.069  0.00  0.00     0.085 A 
ATOM     13  C   UNL d   1     -51.063  14.398  22.359  0.00  0.00     0.019 A 
ATOM     14  C   UNL d   1     -50.931  15.210  22.287  0.00  0.00     0.002 A 
ATOM     15  C   UNL d   1     -50.615  15.636  22.927  0.00  0.00     0.000 A 
ATOM     16  C   UNL d   1     -50.434  15.240  23.632  0.00  0.00     0.002 A 
ATOM     17  C   UNL d   1     -50.567  14.429  23.698  0.00  0.00     0.019 A 
ENDBRANCH  10  12
ENDBRANCH   8   9
ENDBRANCH   7   8
ENDBRANCH   2   7
BRANCH   1  18
ATOM     18  C   UNL d   1     -47.443  12.746  22.913  0.00  0.00     0.013 C 
BRANCH  18  19
ATOM     19  C   UNL d   1     -46.767  12.360  23.184  0.00  0.00     0.092 A 
ATOM     20  C   UNL d   1     -46.090  12.714  23.479  0.00  0.00     0.288 A 
ATOM     21  N   UNL d   1     -45.556  12.124  23.683  0.00  0.00    -0.163 NA
ATOM     22  O   UNL d   1     -45.964  13.527  23.558  0.00  0.00    -0.265 OA
ATOM     23  C   UNL d   1     -45.908  11.393  23.511  0.00  0.00     0.313 A 
ATOM     24  S   UNL d   1     -46.660  11.540  23.201  0.00  0.00    -0.021 SA
ATOM     25  O   UNL d   1     -45.566  10.645  23.630  0.00  0.00    -0.258 OA
ENDBRANCH  18  19
ENDBRANCH   1  18
TORSDOF 6
ENDMDL
