MODEL 1
REMARK VINA RESULT:      33.5      0.000      0.000
REMARK  3 active torsions:
REMARK  status: ('A' for Active; 'I' for Inactive)
REMARK    1  A    between atoms: C_12  and  C_5 
REMARK    2  A    between atoms: C_14  and  C_12 
REMARK    3  A    between atoms: C_15  and  C_14 
ROOT
ATOM      1  C   UNL d   1      15.326  13.283  -0.382  0.00  0.00     0.206 A 
ATOM      2  C   UNL d   1      14.804  13.139  -1.005  0.00  0.00     0.063 A 
ATOM      3  C   UNL d   1      14.809  14.521  -1.326  0.00  0.00     0.111 A 
ATOM      4  C   UNL d   1      15.327  14.664  -0.706  0.00  0.00     0.214 A 
ATOM      5  C   UNL d   1      14.547  13.754  -1.475  0.00  0.00     0.018 A 
ATOM      6  O   UNL d   1      15.585  14.039  -0.234  0.00  0.00    -0.268 OA
ATOM      7  N   UNL d   1      15.488  12.595  -0.015  0.00  0.00    -0.123 NA
ATOM      8  N   UNL d   1      15.086  12.003  -0.382  0.00  0.00    -0.146 NA
ATOM      9  C   UNL d   1      14.656  12.328  -1.000  0.00  0.00     0.106 A 
ATOM     10  C   UNL d   1      14.551  15.146  -1.799  0.00  0.00     0.105 C 
ATOM     11  N   UNL d   1      14.296  15.761  -2.266  0.00  0.00    -0.191 NA
ATOM     12  N   UNL d   1      15.579  15.404  -0.563  0.00  0.00    -0.120 N 
ATOM     13  C   UNL d   1      14.141  11.779  -1.521  0.00  0.00     0.023 C 
ENDROOT
BRANCH   5  14
ATOM     14  C   UNL d   1      14.035  13.613  -2.087  0.00  0.00     0.001 C 
BRANCH  14  15
ATOM     15  C   UNL d   1      14.158  13.687  -3.007  0.00  0.00     0.000 C 
BRANCH  15  16
ATOM     16  C   UNL d   1      13.697  13.349  -3.604  0.00  0.00     0.000 A 
ATOM     17  C   UNL d   1      13.666  12.516  -3.697  0.00  0.00     0.000 A 
ATOM     18  C   UNL d   1      13.210  12.195  -4.288  0.00  0.00     0.000 A 
ATOM     19  C   UNL d   1      12.772  12.690  -4.801  0.00  0.00     0.000 A 
ATOM     20  C   UNL d   1      12.803  13.510  -4.710  0.00  0.00     0.000 A 
ATOM     21  C   UNL d   1      13.269  13.831  -4.107  0.00  0.00     0.000 A 
ENDBRANCH  15  16
ENDBRANCH  14  15
ENDBRANCH   5  14
TORSDOF 3
ENDMDL
MODEL 2
REMARK VINA RESULT:      33.6      1.945      3.668
REMARK  3 active torsions:
REMARK  status: ('A' for Active; 'I' for Inactive)
REMARK    1  A    between atoms: C_12  and  C_5 
REMARK    2  A    between atoms: C_14  and  C_12 
REMARK    3  A    between atoms: C_15  and  C_14 
ROOT
ATOM      1  C   UNL d   1      13.195  13.703  -4.805  0.00  0.00     0.206 A 
ATOM      2  C   UNL d   1      13.258  13.295  -4.091  0.00  0.00     0.063 A 
ATOM      3  C   UNL d   1      13.759  14.466  -3.466  0.00  0.00     0.111 A 
ATOM      4  C   UNL d   1      13.696  14.873  -4.177  0.00  0.00     0.214 A 
ATOM      5  C   UNL d   1      13.539  13.673  -3.426  0.00  0.00     0.018 A 
ATOM      6  O   UNL d   1      13.412  14.486  -4.848  0.00  0.00    -0.268 OA
ATOM      7  N   UNL d   1      12.909  13.211  -5.362  0.00  0.00    -0.123 NA
ATOM      8  N   UNL d   1      12.784  12.489  -5.031  0.00  0.00    -0.146 NA
ATOM      9  C   UNL d   1      12.997  12.527  -4.240  0.00  0.00     0.106 A 
ATOM     10  C   UNL d   1      14.043  14.853  -2.795  0.00  0.00     0.105 C 
ATOM     11  N   UNL d   1      14.323  15.233  -2.133  0.00  0.00    -0.191 NA
ATOM     12  N   UNL d   1      13.909  15.638  -4.216  0.00  0.00    -0.120 N 
ATOM     13  C   UNL d   1      12.912  11.779  -3.720  0.00  0.00     0.023 C 
ENDROOT
BRANCH   5  14
ATOM     14  C   UNL d   1      13.601  13.272  -2.724  0.00  0.00     0.001 C 
BRANCH  14  15
ATOM     15  C   UNL d   1      14.287  12.736  -2.393  0.00  0.00     0.000 C 
BRANCH  15  16
ATOM     16  C   UNL d   1      14.400  12.491  -1.612  0.00  0.00     0.000 A 
ATOM     17  C   UNL d   1      15.118  12.662  -1.214  0.00  0.00     0.000 A 
ATOM     18  C   UNL d   1      15.219  12.417  -0.446  0.00  0.00     0.000 A 
ATOM     19  C   UNL d   1      14.613  11.996  -0.052  0.00  0.00     0.000 A 
ATOM     20  C   UNL d   1      13.906  11.827  -0.444  0.00  0.00     0.000 A 
ATOM     21  C   UNL d   1      13.809  12.080  -1.226  0.00  0.00     0.000 A 
ENDBRANCH  15  16
ENDBRANCH  14  15
ENDBRANCH   5  14
TORSDOF 3
ENDMDL
MODEL 3
REMARK VINA RESULT:      35.8      1.465      3.251
REMARK  3 active torsions:
REMARK  status: ('A' for Active; 'I' for Inactive)
REMARK    1  A    between atoms: C_12  and  C_5 
REMARK    2  A    between atoms: C_14  and  C_12 
REMARK    3  A    between atoms: C_15  and  C_14 
ROOT
ATOM      1  C   UNL d   1      14.426  12.097  -1.134  0.00  0.00     0.206 A 
ATOM      2  C   UNL d   1      14.697  12.876  -1.171  0.00  0.00     0.063 A 
ATOM      3  C   UNL d   1      14.129  13.012  -2.464  0.00  0.00     0.111 A 
ATOM      4  C   UNL d   1      13.860  12.237  -2.428  0.00  0.00     0.214 A 
ATOM      5  C   UNL d   1      14.550  13.331  -1.831  0.00  0.00     0.018 A 
ATOM      6  O   UNL d   1      14.011  11.781  -1.758  0.00  0.00    -0.268 OA
ATOM      7  N   UNL d   1      14.642  11.779  -0.437  0.00  0.00    -0.123 NA
ATOM      8  N   UNL d   1      15.048  12.330  -0.014  0.00  0.00    -0.146 NA
ATOM      9  C   UNL d   1      15.089  13.017  -0.459  0.00  0.00     0.106 A 
ATOM     10  C   UNL d   1      13.978  13.469  -3.134  0.00  0.00     0.105 C 
ATOM     11  N   UNL d   1      13.830  13.921  -3.794  0.00  0.00    -0.191 NA
ATOM     12  N   UNL d   1      13.455  11.930  -3.038  0.00  0.00    -0.120 N 
ATOM     13  C   UNL d   1      15.523  13.745  -0.114  0.00  0.00     0.023 C 
ENDROOT
BRANCH   5  14
ATOM     14  C   UNL d   1      14.816  14.096  -1.866  0.00  0.00     0.001 C 
BRANCH  14  15
ATOM     15  C   UNL d   1      14.403  14.892  -1.616  0.00  0.00     0.000 C 
BRANCH  15  16
ATOM     16  C   UNL d   1      14.746  15.641  -1.564  0.00  0.00     0.000 A 
ATOM     17  C   UNL d   1      14.737  16.158  -2.225  0.00  0.00     0.000 A 
ATOM     18  C   UNL d   1      15.078  16.894  -2.163  0.00  0.00     0.000 A 
ATOM     19  C   UNL d   1      15.436  17.136  -1.447  0.00  0.00     0.000 A 
ATOM     20  C   UNL d   1      15.445  16.627  -0.797  0.00  0.00     0.000 A 
ATOM     21  C   UNL d   1      15.096  15.880  -0.866  0.00  0.00     0.000 A 
ENDBRANCH  15  16
ENDBRANCH  14  15
ENDBRANCH   5  14
TORSDOF 3
ENDMDL
MODEL 4
REMARK VINA RESULT:      36.5      2.038      3.967
REMARK  3 active torsions:
REMARK  status: ('A' for Active; 'I' for Inactive)
REMARK    1  A    between atoms: C_12  and  C_5 
REMARK    2  A    between atoms: C_14  and  C_12 
REMARK    3  A    between atoms: C_15  and  C_14 
ROOT
ATOM      1  C   UNL d   1      13.772  14.842  -4.240  0.00  0.00     0.206 A 
ATOM      2  C   UNL d   1      13.890  14.515  -3.492  0.00  0.00     0.063 A 
ATOM      3  C   UNL d   1      13.278  13.309  -3.922  0.00  0.00     0.111 A 
ATOM      4  C   UNL d   1      13.159  13.635  -4.666  0.00  0.00     0.214 A 
ATOM      5  C   UNL d   1      13.646  13.754  -3.332  0.00  0.00     0.018 A 
ATOM      6  O   UNL d   1      13.409  14.405  -4.822  0.00  0.00    -0.268 OA
ATOM      7  N   UNL d   1      14.059  15.584  -4.248  0.00  0.00    -0.123 NA
ATOM      8  N   UNL d   1      14.364  15.753  -3.523  0.00  0.00    -0.146 NA
ATOM      9  C   UNL d   1      14.266  15.096  -3.043  0.00  0.00     0.106 A 
ATOM     10  C   UNL d   1      13.028  12.539  -3.766  0.00  0.00     0.105 C 
ATOM     11  N   UNL d   1      12.783  11.779  -3.610  0.00  0.00    -0.191 NA
ATOM     12  N   UNL d   1      12.805  13.206  -5.234  0.00  0.00    -0.120 N 
ATOM     13  C   UNL d   1      14.563  15.128  -2.178  0.00  0.00     0.023 C 
ENDROOT
BRANCH   5  14
ATOM     14  C   UNL d   1      13.762  13.433  -2.598  0.00  0.00     0.001 C 
BRANCH  14  15
ATOM     15  C   UNL d   1      14.024  12.575  -2.347  0.00  0.00     0.000 C 
BRANCH  15  16
ATOM     16  C   UNL d   1      14.213  12.309  -1.588  0.00  0.00     0.000 A 
ATOM     17  C   UNL d   1      13.608  12.065  -1.062  0.00  0.00     0.000 A 
ATOM     18  C   UNL d   1      13.805  11.805  -0.317  0.00  0.00     0.000 A 
ATOM     19  C   UNL d   1      14.605  11.779  -0.075  0.00  0.00     0.000 A 
ATOM     20  C   UNL d   1      15.201  12.019  -0.594  0.00  0.00     0.000 A 
ATOM     21  C   UNL d   1      14.994  12.283  -1.351  0.00  0.00     0.000 A 
ENDBRANCH  15  16
ENDBRANCH  14  15
ENDBRANCH   5  14
TORSDOF 3
ENDMDL
