MODEL 1
REMARK VINA RESULT:      -5.5      0.000      0.000
REMARK  2 active torsions:
REMARK  status: ('A' for Active; 'I' for Inactive)
REMARK    1  A    between atoms: C_5  and  C_1 
REMARK    2  A    between atoms: O_15  and  C_12 
ROOT
ATOM      1  C   UNL d   1      55.715   0.257  33.479  0.00  0.00     0.042 A 
ATOM      2  C   UNL d   1      54.896   0.362  33.445  0.00  0.00     0.045 A 
ATOM      3  C   UNL d   1      56.117   0.364  34.192  0.00  0.00     0.196 A 
ATOM      4  C   UNL d   1      55.699   0.577  34.871  0.00  0.00     0.045 A 
ATOM      5  C   UNL d   1      54.478   0.575  34.124  0.00  0.00     0.196 A 
ATOM      6  C   UNL d   1      54.880   0.682  34.837  0.00  0.00     0.045 A 
ATOM      7  O   UNL d   1      56.936   0.259  34.226  0.00  0.00    -0.287 OA
ATOM      8  O   UNL d   1      53.659   0.680  34.090  0.00  0.00    -0.287 OA
ENDROOT
BRANCH   1   9
ATOM      9  C   UNL d   1      56.133   0.044  32.800  0.00  0.00     0.003 A 
ATOM     10  C   UNL d   1      56.458   0.637  32.320  0.00  0.00     0.002 A 
ATOM     11  C   UNL d   1      56.875   0.428  31.642  0.00  0.00     0.024 A 
ATOM     12  C   UNL d   1      56.971  -0.368  31.438  0.00  0.00     0.094 A 
ATOM     13  C   UNL d   1      56.642  -0.958  31.927  0.00  0.00     0.024 A 
ATOM     14  C   UNL d   1      56.224  -0.746  32.605  0.00  0.00     0.002 A 
BRANCH  12  15
ATOM     15  O   UNL d   1      57.390  -0.579  30.756  0.00  0.00    -0.328 OA
ATOM     16  C   UNL d   1      57.966  -0.070  30.452  0.00  0.00     0.181 C 
ENDBRANCH  12  15
ENDBRANCH   1   9
TORSDOF 2
ENDMDL
MODEL 2
REMARK VINA RESULT:      -5.1      1.116      1.846
REMARK  2 active torsions:
REMARK  status: ('A' for Active; 'I' for Inactive)
REMARK    1  A    between atoms: C_5  and  C_1 
REMARK    2  A    between atoms: O_15  and  C_12 
ROOT
ATOM      1  C   UNL d   1      56.438  -0.228  32.421  0.00  0.00     0.042 A 
ATOM      2  C   UNL d   1      56.021   0.341  32.853  0.00  0.00     0.045 A 
ATOM      3  C   UNL d   1      56.236  -1.025  32.486  0.00  0.00     0.196 A 
ATOM      4  C   UNL d   1      55.618  -1.254  32.982  0.00  0.00     0.045 A 
ATOM      5  C   UNL d   1      55.403   0.112  33.349  0.00  0.00     0.196 A 
ATOM      6  C   UNL d   1      55.202  -0.685  33.414  0.00  0.00     0.045 A 
ATOM      7  O   UNL d   1      56.652  -1.594  32.054  0.00  0.00    -0.287 OA
ATOM      8  O   UNL d   1      54.987   0.681  33.781  0.00  0.00    -0.287 OA
ENDROOT
BRANCH   1   9
ATOM      9  C   UNL d   1      57.055   0.001  31.924  0.00  0.00     0.003 A 
ATOM     10  C   UNL d   1      57.035  -0.213  31.124  0.00  0.00     0.002 A 
ATOM     11  C   UNL d   1      57.650   0.014  30.626  0.00  0.00     0.024 A 
ATOM     12  C   UNL d   1      58.286   0.453  30.920  0.00  0.00     0.094 A 
ATOM     13  C   UNL d   1      58.299   0.665  31.727  0.00  0.00     0.024 A 
ATOM     14  C   UNL d   1      57.682   0.436  32.223  0.00  0.00     0.002 A 
BRANCH  12  15
ATOM     15  O   UNL d   1      58.905   0.682  30.420  0.00  0.00    -0.328 OA
ATOM     16  C   UNL d   1      59.086   0.227  29.754  0.00  0.00     0.181 C 
ENDBRANCH  12  15
ENDBRANCH   1   9
TORSDOF 2
ENDMDL
MODEL 3
REMARK VINA RESULT:      -4.9      0.943      3.548
REMARK  2 active torsions:
REMARK  status: ('A' for Active; 'I' for Inactive)
REMARK    1  A    between atoms: C_5  and  C_1 
REMARK    2  A    between atoms: O_15  and  C_12 
ROOT
ATOM      1  C   UNL d   1      56.267  -0.230  32.669  0.00  0.00     0.042 A 
ATOM      2  C   UNL d   1      56.633   0.339  32.194  0.00  0.00     0.045 A 
ATOM      3  C   UNL d   1      56.287  -1.025  32.451  0.00  0.00     0.196 A 
ATOM      4  C   UNL d   1      56.672  -1.253  31.758  0.00  0.00     0.045 A 
ATOM      5  C   UNL d   1      57.019   0.112  31.501  0.00  0.00     0.196 A 
ATOM      6  C   UNL d   1      57.038  -0.684  31.282  0.00  0.00     0.045 A 
ATOM      7  O   UNL d   1      55.920  -1.594  32.927  0.00  0.00    -0.287 OA
ATOM      8  O   UNL d   1      57.385   0.680  31.025  0.00  0.00    -0.287 OA
ENDROOT
BRANCH   1   9
ATOM      9  C   UNL d   1      55.882  -0.003  33.363  0.00  0.00     0.003 A 
ATOM     10  C   UNL d   1      56.300  -0.001  34.079  0.00  0.00     0.002 A 
ATOM     11  C   UNL d   1      55.918   0.225  34.772  0.00  0.00     0.024 A 
ATOM     12  C   UNL d   1      55.123   0.450  34.757  0.00  0.00     0.094 A 
ATOM     13  C   UNL d   1      54.709   0.446  34.033  0.00  0.00     0.024 A 
ATOM     14  C   UNL d   1      55.094   0.218  33.340  0.00  0.00     0.002 A 
BRANCH  12  15
ATOM     15  O   UNL d   1      54.738   0.677  35.454  0.00  0.00    -0.328 OA
ATOM     16  C   UNL d   1      55.151   0.682  36.171  0.00  0.00     0.181 C 
ENDBRANCH  12  15
ENDBRANCH   1   9
TORSDOF 2
ENDMDL
MODEL 4
REMARK VINA RESULT:      -3.9      1.803      4.585
REMARK  2 active torsions:
REMARK  status: ('A' for Active; 'I' for Inactive)
REMARK    1  A    between atoms: C_5  and  C_1 
REMARK    2  A    between atoms: O_15  and  C_12 
ROOT
ATOM      1  C   UNL d   1      58.391   0.241  30.334  0.00  0.00     0.042 A 
ATOM      2  C   UNL d   1      59.192   0.210  30.539  0.00  0.00     0.045 A 
ATOM      3  C   UNL d   1      58.169   0.430  29.563  0.00  0.00     0.196 A 
ATOM      4  C   UNL d   1      58.746   0.587  28.995  0.00  0.00     0.045 A 
ATOM      5  C   UNL d   1      59.769   0.368  29.971  0.00  0.00     0.196 A 
ATOM      6  C   UNL d   1      59.547   0.557  29.199  0.00  0.00     0.045 A 
ATOM      7  O   UNL d   1      57.368   0.461  29.358  0.00  0.00    -0.287 OA
ATOM      8  O   UNL d   1      60.570   0.337  30.175  0.00  0.00    -0.287 OA
ENDROOT
BRANCH   1   9
ATOM      9  C   UNL d   1      57.814   0.083  30.902  0.00  0.00     0.003 A 
ATOM     10  C   UNL d   1      57.506  -0.683  30.967  0.00  0.00     0.002 A 
ATOM     11  C   UNL d   1      56.930  -0.844  31.532  0.00  0.00     0.024 A 
ATOM     12  C   UNL d   1      56.658  -0.245  32.034  0.00  0.00     0.094 A 
ATOM     13  C   UNL d   1      56.972   0.524  31.962  0.00  0.00     0.024 A 
ATOM     14  C   UNL d   1      57.549   0.682  31.395  0.00  0.00     0.002 A 
BRANCH  12  15
ATOM     15  O   UNL d   1      56.078  -0.405  32.603  0.00  0.00    -0.328 OA
ATOM     16  C   UNL d   1      55.935  -1.185  32.839  0.00  0.00     0.181 C 
ENDBRANCH  12  15
ENDBRANCH   1   9
TORSDOF 2
ENDMDL
MODEL 5
REMARK VINA RESULT:      -2.9      2.108      3.619
REMARK  2 active torsions:
REMARK  status: ('A' for Active; 'I' for Inactive)
REMARK    1  A    between atoms: C_5  and  C_1 
REMARK    2  A    between atoms: O_15  and  C_12 
ROOT
ATOM      1  C   UNL d   1      57.773  -0.218  30.802  0.00  0.00     0.042 A 
ATOM      2  C   UNL d   1      57.479   0.344  31.332  0.00  0.00     0.045 A 
ATOM      3  C   UNL d   1      57.533  -1.005  30.861  0.00  0.00     0.196 A 
ATOM      4  C   UNL d   1      57.000  -1.230  31.448  0.00  0.00     0.045 A 
ATOM      5  C   UNL d   1      56.945   0.119  31.920  0.00  0.00     0.196 A 
ATOM      6  C   UNL d   1      56.706  -0.668  31.978  0.00  0.00     0.045 A 
ATOM      7  O   UNL d   1      57.828  -1.568  30.331  0.00  0.00    -0.287 OA
ATOM      8  O   UNL d   1      56.651   0.682  32.450  0.00  0.00    -0.287 OA
ENDROOT
BRANCH   1   9
ATOM      9  C   UNL d   1      58.306   0.007  30.215  0.00  0.00     0.003 A 
ATOM     10  C   UNL d   1      59.117   0.030  30.388  0.00  0.00     0.002 A 
ATOM     11  C   UNL d   1      59.651   0.254  29.804  0.00  0.00     0.024 A 
ATOM     12  C   UNL d   1      59.384   0.456  29.048  0.00  0.00     0.094 A 
ATOM     13  C   UNL d   1      58.568   0.431  28.881  0.00  0.00     0.024 A 
ATOM     14  C   UNL d   1      58.034   0.206  29.468  0.00  0.00     0.002 A 
BRANCH  12  15
ATOM     15  O   UNL d   1      59.922   0.682  28.459  0.00  0.00    -0.328 OA
ATOM     16  C   UNL d   1      60.697   0.395  28.476  0.00  0.00     0.181 C 
ENDBRANCH  12  15
ENDBRANCH   1   9
TORSDOF 2
ENDMDL
MODEL 6
REMARK VINA RESULT:      -2.9      9.302     10.133
REMARK  2 active torsions:
REMARK  status: ('A' for Active; 'I' for Inactive)
REMARK    1  A    between atoms: C_5  and  C_1 
REMARK    2  A    between atoms: O_15  and  C_12 
ROOT
ATOM      1  C   UNL d   1      60.060  -8.830  34.792  0.00  0.00     0.042 A 
ATOM      2  C   UNL d   1      59.477  -8.258  34.924  0.00  0.00     0.045 A 
ATOM      3  C   UNL d   1      60.470  -9.156  35.429  0.00  0.00     0.196 A 
ATOM      4  C   UNL d   1      60.298  -8.911  36.198  0.00  0.00     0.045 A 
ATOM      5  C   UNL d   1      59.305  -8.013  35.692  0.00  0.00     0.196 A 
ATOM      6  C   UNL d   1      59.715  -8.339  36.329  0.00  0.00     0.045 A 
ATOM      7  O   UNL d   1      61.052  -9.728  35.297  0.00  0.00    -0.287 OA
ATOM      8  O   UNL d   1      58.722  -7.441  35.824  0.00  0.00    -0.287 OA
ENDROOT
BRANCH   1   9
ATOM      9  C   UNL d   1      60.231  -9.075  34.023  0.00  0.00     0.003 A 
ATOM     10  C   UNL d   1      59.661  -9.495  33.593  0.00  0.00     0.002 A 
ATOM     11  C   UNL d   1      59.829  -9.741  32.826  0.00  0.00     0.024 A 
ATOM     12  C   UNL d   1      60.563  -9.571  32.484  0.00  0.00     0.094 A 
ATOM     13  C   UNL d   1      61.132  -9.148  32.923  0.00  0.00     0.024 A 
ATOM     14  C   UNL d   1      60.960  -8.903  33.692  0.00  0.00     0.002 A 
BRANCH  12  15
ATOM     15  O   UNL d   1      60.734  -9.818  31.712  0.00  0.00    -0.328 OA
ATOM     16  C   UNL d   1      61.079  -9.290  31.177  0.00  0.00     0.181 C 
ENDBRANCH  12  15
ENDBRANCH   1   9
TORSDOF 2
ENDMDL
