MODEL 1
REMARK VINA RESULT:      42.1      0.000      0.000
REMARK  5 active torsions:
REMARK  status: ('A' for Active; 'I' for Inactive)
REMARK    1  A    between atoms: N_2  and  S_1 
REMARK    2  A    between atoms: C_4  and  S_1 
REMARK    3  A    between atoms: C_3  and  N_2 
REMARK    4  A    between atoms: N_7  and  C_3 
REMARK    5  A    between atoms: C_12  and  N_7 
ROOT
ATOM      1  S   UNL d   1     -51.221  25.632  33.391  0.00  0.00     0.287 S 
ATOM      2  O   UNL d   1     -51.839  26.183  33.420  0.00  0.00    -0.198 OA
ATOM      3  O   UNL d   1     -50.612  25.066  33.361  0.00  0.00    -0.198 OA
ENDROOT
BRANCH   1   4
ATOM      4  N   UNL d   1     -50.663  26.243  33.406  0.00  0.00    -0.128 NA
BRANCH   4   5
ATOM      5  C   UNL d   1     -50.420  26.969  33.718  0.00  0.00     0.232 C 
ATOM      6  S   UNL d   1     -50.563  27.666  33.306  0.00  0.00    -0.036 SA
BRANCH   5   7
ATOM      7  N   UNL d   1     -50.035  26.987  34.444  0.00  0.00    -0.217 NA
BRANCH   7   8
ATOM      8  C   UNL d   1     -49.435  27.536  34.572  0.00  0.00     0.084 A 
ATOM      9  C   UNL d   1     -49.415  28.223  34.126  0.00  0.00     0.019 A 
ATOM     10  C   UNL d   1     -48.821  28.774  34.249  0.00  0.00     0.002 A 
ATOM     11  C   UNL d   1     -48.244  28.635  34.819  0.00  0.00     0.000 A 
ATOM     12  C   UNL d   1     -48.274  27.938  35.262  0.00  0.00     0.002 A 
ATOM     13  C   UNL d   1     -48.861  27.398  35.140  0.00  0.00     0.019 A 
ENDBRANCH   7   8
ENDBRANCH   5   7
ENDBRANCH   4   5
ENDBRANCH   1   4
BRANCH   1  14
ATOM     14  C   UNL d   1     -51.783  25.014  33.375  0.00  0.00     0.105 A 
ATOM     15  C   UNL d   1     -52.589  25.194  33.322  0.00  0.00     0.015 A 
ATOM     16  C   UNL d   1     -53.146  24.588  33.307  0.00  0.00     0.030 A 
ATOM     17  C   UNL d   1     -52.911  23.785  33.343  0.00  0.00     0.140 A 
ATOM     18  C   UNL d   1     -52.098  23.612  33.396  0.00  0.00     0.030 A 
ATOM     19  F   UNL d   1     -53.469  23.190  33.327  0.00  0.00    -0.204 F 
ATOM     20  C   UNL d   1     -51.537  24.222  33.412  0.00  0.00     0.015 A 
ENDBRANCH   1  14
TORSDOF 5
ENDMDL
