MODEL 1
REMARK VINA RESULT:       8.0      0.000      0.000
REMARK  0 active torsions:
REMARK  status: ('A' for Active; 'I' for Inactive)
ROOT
ATOM      1  N   UNL d   1     -50.290  25.021  33.318  0.00  0.00    -0.208 NA
ATOM      2  C   UNL d   1     -50.601  24.258  33.318  0.00  0.00     0.279 A 
ATOM      3  C   UNL d   1     -51.928  24.793  33.310  0.00  0.00     0.006 A 
ATOM      4  C   UNL d   1     -51.418  24.143  33.314  0.00  0.00     0.058 A 
ATOM      5  C   UNL d   1     -50.800  25.675  33.314  0.00  0.00     0.085 A 
ATOM      6  C   UNL d   1     -51.621  25.554  33.310  0.00  0.00     0.018 A 
ATOM      7  O   UNL d   1     -50.090  23.608  33.321  0.00  0.00    -0.265 OA
ATOM      8  C   UNL d   1     -52.737  24.678  33.306  0.00  0.00     0.000 A 
ATOM      9  C   UNL d   1     -51.731  23.389  33.314  0.00  0.00     0.005 A 
ATOM     10  C   UNL d   1     -52.130  26.200  33.306  0.00  0.00     0.002 A 
ATOM     11  C   UNL d   1     -50.494  26.441  33.314  0.00  0.00     0.019 A 
ATOM     12  C   UNL d   1     -53.042  23.925  33.306  0.00  0.00     0.000 A 
ATOM     13  C   UNL d   1     -52.544  23.273  33.310  0.00  0.00     0.000 A 
ATOM     14  C   UNL d   1     -51.820  26.971  33.306  0.00  0.00     0.000 A 
ATOM     15  C   UNL d   1     -51.004  27.090  33.310  0.00  0.00     0.002 A 
ENDROOT
TORSDOF 0
ENDMDL
