MODEL 1
REMARK VINA RESULT:      34.9      0.000      0.000
REMARK  2 active torsions:
REMARK  status: ('A' for Active; 'I' for Inactive)
REMARK    1  A    between atoms: C_10  and  C_3 
REMARK    2  A    between atoms: O_20  and  C_16 
ROOT
ATOM      1  C   UNL d   1     -51.637  26.429  33.355  0.00  0.00     0.203 A 
ATOM      2  C   UNL d   1     -51.087  27.050  33.354  0.00  0.00     0.101 A 
ATOM      3  C   UNL d   1     -51.382  25.636  33.332  0.00  0.00     0.064 A 
ATOM      4  C   UNL d   1     -50.269  26.872  33.330  0.00  0.00     0.109 A 
ATOM      5  C   UNL d   1     -50.561  25.466  33.309  0.00  0.00     0.126 A 
ATOM      6  C   UNL d   1     -51.342  27.831  33.377  0.00  0.00     0.204 A 
ATOM      7  O   UNL d   1     -50.007  26.086  33.308  0.00  0.00    -0.305 OA
ATOM      8  C   UNL d   1     -49.719  27.495  33.329  0.00  0.00     0.067 A 
ATOM      9  C   UNL d   1     -50.793  28.445  33.376  0.00  0.00     0.084 A 
ATOM     10  O   UNL d   1     -52.445  26.597  33.379  0.00  0.00    -0.286 OA
ATOM     11  C   UNL d   1     -49.985  28.277  33.352  0.00  0.00     0.201 A 
ATOM     12  O   UNL d   1     -52.149  27.999  33.400  0.00  0.00    -0.286 OA
ATOM     13  O   UNL d   1     -49.437  28.891  33.351  0.00  0.00    -0.286 OA
ENDROOT
BRANCH   3  14
ATOM     14  C   UNL d   1     -51.930  25.022  33.333  0.00  0.00     0.005 A 
ATOM     15  C   UNL d   1     -52.736  25.197  33.308  0.00  0.00     0.002 A 
ATOM     16  C   UNL d   1     -53.285  24.584  33.309  0.00  0.00     0.024 A 
ATOM     17  C   UNL d   1     -53.035  23.804  33.335  0.00  0.00     0.094 A 
ATOM     18  C   UNL d   1     -52.219  23.635  33.360  0.00  0.00     0.024 A 
ATOM     19  C   UNL d   1     -51.670  24.249  33.359  0.00  0.00     0.002 A 
BRANCH  17  20
ATOM     20  O   UNL d   1     -53.583  23.191  33.336  0.00  0.00    -0.328 OA
ATOM     21  C   UNL d   1     -54.303  23.274  33.741  0.00  0.00     0.181 C 
ENDBRANCH  17  20
ENDBRANCH   3  14
TORSDOF 2
ENDMDL
MODEL 2
REMARK VINA RESULT:      35.6      0.975      4.157
REMARK  2 active torsions:
REMARK  status: ('A' for Active; 'I' for Inactive)
REMARK    1  A    between atoms: C_10  and  C_3 
REMARK    2  A    between atoms: O_20  and  C_16 
ROOT
ATOM      1  C   UNL d   1     -51.906  25.451  33.366  0.00  0.00     0.203 A 
ATOM      2  C   UNL d   1     -52.513  24.886  33.351  0.00  0.00     0.101 A 
ATOM      3  C   UNL d   1     -51.107  25.216  33.395  0.00  0.00     0.064 A 
ATOM      4  C   UNL d   1     -52.314  24.072  33.365  0.00  0.00     0.109 A 
ATOM      5  C   UNL d   1     -50.916  24.400  33.409  0.00  0.00     0.126 A 
ATOM      6  C   UNL d   1     -53.300  25.120  33.322  0.00  0.00     0.204 A 
ATOM      7  O   UNL d   1     -51.521  23.830  33.394  0.00  0.00    -0.305 OA
ATOM      8  C   UNL d   1     -52.921  23.506  33.350  0.00  0.00     0.067 A 
ATOM      9  C   UNL d   1     -53.898  24.556  33.307  0.00  0.00     0.084 A 
ATOM     10  O   UNL d   1     -52.094  26.255  33.352  0.00  0.00    -0.286 OA
ATOM     11  C   UNL d   1     -53.710  23.752  33.321  0.00  0.00     0.201 A 
ATOM     12  O   UNL d   1     -53.488  25.923  33.308  0.00  0.00    -0.286 OA
ATOM     13  O   UNL d   1     -54.310  23.188  33.306  0.00  0.00    -0.286 OA
ENDROOT
BRANCH   3  14
ATOM     14  C   UNL d   1     -50.507  25.780  33.410  0.00  0.00     0.005 A 
ATOM     15  C   UNL d   1     -49.722  25.541  33.320  0.00  0.00     0.002 A 
ATOM     16  C   UNL d   1     -49.122  26.103  33.335  0.00  0.00     0.024 A 
ATOM     17  C   UNL d   1     -49.300  26.897  33.437  0.00  0.00     0.094 A 
ATOM     18  C   UNL d   1     -50.096  27.131  33.527  0.00  0.00     0.024 A 
ATOM     19  C   UNL d   1     -50.695  26.567  33.512  0.00  0.00     0.002 A 
BRANCH  17  20
ATOM     20  O   UNL d   1     -48.701  27.460  33.452  0.00  0.00    -0.328 OA
ATOM     21  C   UNL d   1     -48.398  27.729  34.177  0.00  0.00     0.181 C 
ENDBRANCH  17  20
ENDBRANCH   3  14
TORSDOF 2
ENDMDL
