MODEL 1
REMARK VINA RESULT:      -7.4      0.000      0.000
REMARK  6 active torsions:
REMARK  status: ('A' for Active; 'I' for Inactive)
REMARK    1  A    between atoms: C_7  and  C_1 
REMARK    2  A    between atoms: C_10  and  C_2 
REMARK    3  A    between atoms: C_8  and  C_7 
REMARK    4  A    between atoms: C_9  and  C_8 
REMARK    5  A    between atoms: C_13  and  C_9 
REMARK    6  A    between atoms: O_20  and  C_16 
ROOT
ATOM      1  C   UNL d   1     -47.779  13.891  22.523  0.00  0.00     0.097 A 
ATOM      2  C   UNL d   1     -48.574  13.803  22.721  0.00  0.00     0.009 A 
ATOM      3  C   UNL d   1     -47.422  14.638  22.575  0.00  0.00     0.282 A 
ATOM      4  C   UNL d   1     -49.020  14.452  22.971  0.00  0.00     0.018 A 
ATOM      5  N   UNL d   1     -47.871  15.275  22.824  0.00  0.00    -0.208 NA
ATOM      6  C   UNL d   1     -48.663  15.199  23.024  0.00  0.00     0.085 A 
ATOM      7  C   UNL d   1     -49.802  14.358  23.165  0.00  0.00     0.008 A 
ATOM      8  O   UNL d   1     -46.629  14.733  22.379  0.00  0.00    -0.265 OA
ATOM      9  C   UNL d   1     -49.099  15.830  23.268  0.00  0.00     0.020 A 
ATOM     10  C   UNL d   1     -50.251  15.009  23.417  0.00  0.00     0.035 A 
ATOM     11  C   UNL d   1     -49.895  15.755  23.469  0.00  0.00     0.008 A 
ATOM     12 BR   UNL d   1     -51.062  14.927  23.621  0.00  0.00    -0.049 Br
ENDROOT
BRANCH   1  13
ATOM     13  C   UNL d   1     -47.314  13.233  22.265  0.00  0.00     0.200 C 
ATOM     14  O   UNL d   1     -47.423  12.943  21.505  0.00  0.00    -0.286 OA
BRANCH  13  15
ATOM     15  C   UNL d   1     -46.768  12.891  22.759  0.00  0.00     0.042 C 
BRANCH  15  16
ATOM     16  C   UNL d   1     -46.034  12.644  22.463  0.00  0.00     0.005 C 
BRANCH  16  17
ATOM     17  C   UNL d   1     -45.627  12.035  22.820  0.00  0.00     0.022 A 
ATOM     18  C   UNL d   1     -44.832  11.941  22.653  0.00  0.00     0.094 A 
ATOM     19  C   UNL d   1     -44.407  11.322  23.012  0.00  0.00     0.024 A 
ATOM     20  C   UNL d   1     -44.808  10.819  23.529  0.00  0.00     0.002 A 
ATOM     21  C   UNL d   1     -45.597  10.921  23.687  0.00  0.00     0.000 A 
ATOM     22  C   UNL d   1     -46.009  11.521  23.340  0.00  0.00     0.002 A 
BRANCH  18  23
ATOM     23  O   UNL d   1     -44.429  12.447  22.134  0.00  0.00    -0.328 OA
ATOM     24  C   UNL d   1     -43.620  12.371  22.029  0.00  0.00     0.181 C 
ENDBRANCH  18  23
ENDBRANCH  16  17
ENDBRANCH  15  16
ENDBRANCH  13  15
ENDBRANCH   1  13
BRANCH   2  25
ATOM     25  C   UNL d   1     -48.937  13.043  22.668  0.00  0.00     0.000 A 
ATOM     26  C   UNL d   1     -48.997  12.568  23.343  0.00  0.00     0.000 A 
ATOM     27  C   UNL d   1     -49.355  11.818  23.290  0.00  0.00     0.000 A 
ATOM     28  C   UNL d   1     -49.642  11.564  22.564  0.00  0.00     0.000 A 
ATOM     29  C   UNL d   1     -49.580  12.043  21.892  0.00  0.00     0.000 A 
ATOM     30  C   UNL d   1     -49.230  12.777  21.943  0.00  0.00     0.000 A 
ENDBRANCH   2  25
TORSDOF 6
ENDMDL
MODEL 2
REMARK VINA RESULT:      -6.7      1.400      2.571
REMARK  6 active torsions:
REMARK  status: ('A' for Active; 'I' for Inactive)
REMARK    1  A    between atoms: C_7  and  C_1 
REMARK    2  A    between atoms: C_10  and  C_2 
REMARK    3  A    between atoms: C_8  and  C_7 
REMARK    4  A    between atoms: C_9  and  C_8 
REMARK    5  A    between atoms: C_13  and  C_9 
REMARK    6  A    between atoms: O_20  and  C_16 
ROOT
ATOM      1  C   UNL d   1     -47.586  12.464  23.150  0.00  0.00     0.097 A 
ATOM      2  C   UNL d   1     -48.241  12.895  22.896  0.00  0.00     0.009 A 
ATOM      3  C   UNL d   1     -47.683  11.682  23.407  0.00  0.00     0.282 A 
ATOM      4  C   UNL d   1     -48.994  12.555  22.895  0.00  0.00     0.018 A 
ATOM      5  N   UNL d   1     -48.433  11.353  23.403  0.00  0.00    -0.208 NA
ATOM      6  C   UNL d   1     -49.091  11.773  23.152  0.00  0.00     0.085 A 
ATOM      7  C   UNL d   1     -49.634  12.986  22.643  0.00  0.00     0.008 A 
ATOM      8  O   UNL d   1     -47.034  11.245  23.662  0.00  0.00    -0.265 OA
ATOM      9  C   UNL d   1     -49.826  11.443  23.151  0.00  0.00     0.020 A 
ATOM     10  C   UNL d   1     -50.391  12.646  22.642  0.00  0.00     0.035 A 
ATOM     11  C   UNL d   1     -50.489  11.864  22.899  0.00  0.00     0.008 A 
ATOM     12 BR   UNL d   1     -51.064  13.078  22.384  0.00  0.00    -0.049 Br
ENDROOT
BRANCH   1  13
ATOM     13  C   UNL d   1     -46.811  12.802  23.154  0.00  0.00     0.200 C 
ATOM     14  O   UNL d   1     -46.639  13.394  23.697  0.00  0.00    -0.286 OA
BRANCH  13  15
ATOM     15  C   UNL d   1     -46.244  12.549  22.632  0.00  0.00     0.042 C 
BRANCH  15  16
ATOM     16  C   UNL d   1     -45.479  12.373  22.899  0.00  0.00     0.005 C 
BRANCH  16  17
ATOM     17  C   UNL d   1     -44.837  12.460  22.405  0.00  0.00     0.022 A 
ATOM     18  C   UNL d   1     -44.189  11.973  22.512  0.00  0.00     0.094 A 
ATOM     19  C   UNL d   1     -43.527  12.054  22.012  0.00  0.00     0.024 A 
ATOM     20  C   UNL d   1     -43.550  12.629  21.420  0.00  0.00     0.002 A 
ATOM     21  C   UNL d   1     -44.199  13.107  21.324  0.00  0.00     0.000 A 
ATOM     22  C   UNL d   1     -44.840  13.029  21.808  0.00  0.00     0.002 A 
BRANCH  18  23
ATOM     23  O   UNL d   1     -44.165  11.396  23.106  0.00  0.00    -0.328 OA
ATOM     24  C   UNL d   1     -43.565  10.837  23.116  0.00  0.00     0.181 C 
ENDBRANCH  18  23
ENDBRANCH  16  17
ENDBRANCH  15  16
ENDBRANCH  13  15
ENDBRANCH   1  13
BRANCH   2  25
ATOM     25  C   UNL d   1     -48.142  13.690  22.634  0.00  0.00     0.000 A 
ATOM     26  C   UNL d   1     -48.169  14.311  23.181  0.00  0.00     0.000 A 
ATOM     27  C   UNL d   1     -48.071  15.095  22.923  0.00  0.00     0.000 A 
ATOM     28  C   UNL d   1     -47.949  15.239  22.124  0.00  0.00     0.000 A 
ATOM     29  C   UNL d   1     -47.923  14.616  21.580  0.00  0.00     0.000 A 
ATOM     30  C   UNL d   1     -48.018  13.848  21.832  0.00  0.00     0.000 A 
ENDBRANCH   2  25
TORSDOF 6
ENDMDL
