MODEL 1
REMARK VINA RESULT:      90.3      0.000      0.000
REMARK  6 active torsions:
REMARK  status: ('A' for Active; 'I' for Inactive)
REMARK    1  A    between atoms: N_3  and  C_1 
REMARK       I    between atoms: C_4  and  N_3 
REMARK       I    between atoms: N_10  and  C_4 
REMARK    2  A    between atoms: C_7  and  C_5 
REMARK    3  A    between atoms: C_9  and  C_7 
REMARK       I    between atoms: N_12  and  C_9 
REMARK    4  A    between atoms: C_13  and  N_10 
REMARK    5  A    between atoms: C_18  and  N_12 
REMARK    6  A    between atoms: C_17  and  C_18 
ROOT
ATOM      1  C   UNL d   1      61.970  46.868  49.353  0.00  0.00     0.199 A 
ATOM      2  N   UNL d   1      61.549  46.282  49.754  0.00  0.00    -0.220 NA
ATOM      3  C   UNL d   1      61.821  45.554  49.491  0.00  0.00     0.095 A 
ATOM      4  S   UNL d   1      62.493  46.512  48.851  0.00  0.00    -0.046 SA
ATOM      5  C   UNL d   1      62.410  45.697  48.928  0.00  0.00     0.058 A 
ENDROOT
BRANCH   1   6
ATOM      6  N   UNL d   1      61.874  47.694  49.447  0.00  0.00    -0.166 NA
ATOM      7  C   UNL d   1      61.426  47.990  50.083  0.00  0.00     0.370 C 
ATOM      8  N   UNL d   1      61.325  48.804  50.185  0.00  0.00    -0.191 NA
ATOM      9  O   UNL d   1      61.073  47.468  50.623  0.00  0.00    -0.242 OA
BRANCH   8  10
ATOM     10  C   UNL d   1      60.885  49.102  50.807  0.00  0.00     0.087 A 
ATOM     11  C   UNL d   1      60.083  49.257  50.720  0.00  0.00     0.031 A 
ATOM     12  C   UNL d   1      59.643  49.552  51.333  0.00  0.00     0.059 A 
ATOM     13 CL   UNL d   1      58.836  49.706  51.239  0.00  0.00    -0.082 Cl
ATOM     14  C   UNL d   1      60.013  49.701  52.067  0.00  0.00     0.011 A 
ATOM     15  C   UNL d   1      60.816  49.546  52.153  0.00  0.00     0.002 A 
ATOM     16  C   UNL d   1      61.254  49.246  51.523  0.00  0.00     0.019 A 
ENDBRANCH   8  10
ENDBRANCH   1   6
BRANCH   3  17
ATOM     17  C   UNL d   1      61.554  44.811  49.745  0.00  0.00     0.082 C 
BRANCH  17  18
ATOM     18  C   UNL d   1      62.050  44.138  49.696  0.00  0.00     0.281 C 
ATOM     19  N   UNL d   1      62.468  43.874  50.355  0.00  0.00    -0.206 NA
ATOM     20  O   UNL d   1      62.110  43.746  48.974  0.00  0.00    -0.265 OA
BRANCH  19  21
ATOM     21  C   UNL d   1      62.952  43.214  50.298  0.00  0.00     0.104 C 
BRANCH  21  22
ATOM     22  C   UNL d   1      62.856  42.590  50.829  0.00  0.00     0.038 A 
ATOM     23  C   UNL d   1      62.456  42.706  51.543  0.00  0.00     0.101 A 
ATOM     24  N   UNL d   1      62.367  42.072  52.068  0.00  0.00    -0.242 NA
ATOM     25  C   UNL d   1      62.675  41.323  51.879  0.00  0.00     0.099 A 
ATOM     26  C   UNL d   1      63.067  41.222  51.170  0.00  0.00     0.021 A 
ATOM     27  C   UNL d   1      63.157  41.857  50.645  0.00  0.00     0.005 A 
ENDBRANCH  21  22
ENDBRANCH  19  21
ENDBRANCH  17  18
ENDBRANCH   3  17
TORSDOF 6
ENDMDL
