MODEL 1
REMARK VINA RESULT:      -3.2      0.000      0.000
REMARK  6 active torsions:
REMARK  status: ('A' for Active; 'I' for Inactive)
REMARK    1  A    between atoms: C_9  and  N_1 
REMARK    2  A    between atoms: S_11  and  C_6 
REMARK    3  A    between atoms: C_24  and  S_11 
REMARK    4  A    between atoms: C_13  and  C_24 
REMARK       I    between atoms: N_18  and  C_13 
REMARK    5  A    between atoms: C_26  and  N_18 
REMARK    6  A    between atoms: C_25  and  C_26 
ROOT
ATOM      1  N   UNL d   1      57.383   0.519  32.689  0.00  0.00    -0.212 N 
ATOM      2  C   UNL d   1      57.368   0.481  31.869  0.00  0.00     0.169 A 
ATOM      3  N   UNL d   1      58.146   0.642  32.933  0.00  0.00    -0.162 NA
ATOM      4  C   UNL d   1      58.142   0.582  31.601  0.00  0.00     0.081 A 
ATOM      5  C   UNL d   1      58.625   0.682  32.259  0.00  0.00     0.126 A 
ATOM      6  C   UNL d   1      58.303   0.570  30.795  0.00  0.00     0.117 A 
ATOM      7  N   UNL d   1      56.756   0.368  31.332  0.00  0.00    -0.205 NA
ATOM      8  N   UNL d   1      57.691   0.456  30.254  0.00  0.00    -0.217 NA
ATOM      9  C   UNL d   1      56.917   0.355  30.522  0.00  0.00     0.201 A 
ENDROOT
BRANCH   6  10
ATOM     10  S   UNL d   1      59.077   0.670  30.527  0.00  0.00    -0.062 SA
BRANCH  10  11
ATOM     11  C   UNL d   1      59.322   0.305  29.841  0.00  0.00     0.099 C 
BRANCH  11  12
ATOM     12  C   UNL d   1      60.120   0.129  29.729  0.00  0.00     0.286 C 
ATOM     13  N   UNL d   1      60.343  -0.447  29.181  0.00  0.00    -0.206 NA
ATOM     14  O   UNL d   1      60.696   0.529  30.164  0.00  0.00    -0.265 OA
BRANCH  13  15
ATOM     15  C   UNL d   1      59.767  -0.848  28.745  0.00  0.00     0.102 C 
BRANCH  15  16
ATOM     16  C   UNL d   1      59.805  -1.669  28.667  0.00  0.00     0.021 A 
ATOM     17  C   UNL d   1      59.117  -2.121  28.714  0.00  0.00     0.028 A 
ATOM     18  C   UNL d   1      59.156  -2.941  28.636  0.00  0.00     0.119 A 
ATOM     19  O   UNL d   1      58.567  -3.523  28.659  0.00  0.00    -0.300 OA
ATOM     20  C   UNL d   1      59.883  -3.310  28.510  0.00  0.00     0.119 A 
ATOM     21  C   UNL d   1      58.934  -4.244  28.547  0.00  0.00     0.304 A 
ATOM     22  O   UNL d   1      59.737  -4.123  28.456  0.00  0.00    -0.300 OA
ATOM     23  C   UNL d   1      60.572  -2.858  28.462  0.00  0.00     0.026 A 
ATOM     24  C   UNL d   1      60.533  -2.037  28.541  0.00  0.00     0.004 A 
ENDBRANCH  15  16
ENDBRANCH  13  15
ENDBRANCH  11  12
ENDBRANCH  10  11
ENDBRANCH   6  10
BRANCH   1  25
ATOM     25  C   UNL d   1      56.679   0.436  33.122  0.00  0.00     0.085 A 
ATOM     26  C   UNL d   1      56.648   0.682  33.906  0.00  0.00     0.020 A 
ATOM     27  C   UNL d   1      55.956   0.601  34.334  0.00  0.00     0.013 A 
ATOM     28  C   UNL d   1      55.281   0.268  33.975  0.00  0.00     0.058 A 
ATOM     29  C   UNL d   1      55.326   0.025  33.187  0.00  0.00     0.013 A 
ATOM     30 CL   UNL d   1      54.567   0.181  34.407  0.00  0.00    -0.082 Cl
ATOM     31  C   UNL d   1      56.019   0.109  32.766  0.00  0.00     0.020 A 
ENDBRANCH   1  25
TORSDOF 6
ENDMDL
