MODEL 1
REMARK VINA RESULT:      24.5      0.000      0.000
REMARK  3 active torsions:
REMARK  status: ('A' for Active; 'I' for Inactive)
REMARK    1  A    between atoms: C_2  and  C_1 
REMARK       I    between atoms: N_7  and  C_2 
REMARK    2  A    between atoms: C_9  and  N_7 
REMARK    3  A    between atoms: O_13  and  C_11 
ROOT
ATOM      1  C   UNL d   1      15.302  12.087  -1.295  0.00  0.00     0.280 C 
ATOM      2  N   UNL d   1      15.081  11.784  -2.025  0.00  0.00    -0.208 NA
ATOM      3  O   UNL d   1      16.068  11.976  -1.017  0.00  0.00    -0.265 OA
ENDROOT
BRANCH   1   4
ATOM      4  C   UNL d   1      14.754  12.504  -0.838  0.00  0.00     0.065 A 
ATOM      5  C   UNL d   1      14.737  13.316  -0.718  0.00  0.00     0.011 A 
ATOM      6  C   UNL d   1      14.099  13.499  -0.226  0.00  0.00     0.030 A 
ATOM      7  C   UNL d   1      15.228  13.915  -1.000  0.00  0.00     0.001 A 
ATOM      8  C   UNL d   1      13.952  14.282  -0.015  0.00  0.00     0.006 A 
ATOM      9  S   UNL d   1      13.706  12.793  -0.031  0.00  0.00    -0.086 SA
ATOM     10  C   UNL d   1      14.443  14.882  -0.296  0.00  0.00     0.001 A 
ATOM     11  C   UNL d   1      15.080  14.699  -0.788  0.00  0.00     0.000 A 
ATOM     12  C   UNL d   1      14.104  12.171  -0.405  0.00  0.00     0.040 A 
ENDBRANCH   1   4
BRANCH   2  13
ATOM     13  C   UNL d   1      14.306  11.896  -2.307  0.00  0.00     0.087 A 
ATOM     14  C   UNL d   1      14.190  12.117  -3.093  0.00  0.00     0.043 A 
ATOM     15  C   UNL d   1      13.416  12.228  -3.371  0.00  0.00     0.096 A 
ATOM     16  C   UNL d   1      12.772  12.117  -2.863  0.00  0.00     0.024 A 
ATOM     17  C   UNL d   1      12.903  11.895  -2.075  0.00  0.00     0.004 A 
ATOM     18  C   UNL d   1      13.667  11.785  -1.797  0.00  0.00     0.019 A 
BRANCH  15  19
ATOM     19  O   UNL d   1      13.300  12.448  -4.155  0.00  0.00    -0.328 OA
ATOM     20  C   UNL d   1      12.910  11.942  -4.678  0.00  0.00     0.181 C 
ENDBRANCH  15  19
ENDBRANCH   2  13
TORSDOF 3
ENDMDL
MODEL 2
REMARK VINA RESULT:      25.8      1.400      1.862
REMARK  3 active torsions:
REMARK  status: ('A' for Active; 'I' for Inactive)
REMARK    1  A    between atoms: C_2  and  C_1 
REMARK       I    between atoms: N_7  and  C_2 
REMARK    2  A    between atoms: C_9  and  N_7 
REMARK    3  A    between atoms: O_13  and  C_11 
ROOT
ATOM      1  C   UNL d   1      13.293  12.049  -1.442  0.00  0.00     0.280 C 
ATOM      2  N   UNL d   1      12.788  12.075  -2.090  0.00  0.00    -0.208 NA
ATOM      3  O   UNL d   1      13.013  11.797  -0.712  0.00  0.00    -0.265 OA
ENDROOT
BRANCH   1   4
ATOM      4  C   UNL d   1      14.083  12.277  -1.525  0.00  0.00     0.065 A 
ATOM      5  C   UNL d   1      14.486  12.816  -1.055  0.00  0.00     0.011 A 
ATOM      6  C   UNL d   1      15.262  12.880  -1.330  0.00  0.00     0.030 A 
ATOM      7  C   UNL d   1      14.238  13.260  -0.406  0.00  0.00     0.001 A 
ATOM      8  C   UNL d   1      15.792  13.388  -0.956  0.00  0.00     0.006 A 
ATOM      9  S   UNL d   1      15.352  12.374  -1.984  0.00  0.00    -0.086 SA
ATOM     10  C   UNL d   1      15.546  13.833  -0.306  0.00  0.00     0.001 A 
ATOM     11  C   UNL d   1      14.770  13.769  -0.031  0.00  0.00     0.000 A 
ATOM     12  C   UNL d   1      14.627  11.996  -2.112  0.00  0.00     0.040 A 
ENDBRANCH   1   4
BRANCH   2  13
ATOM     13  C   UNL d   1      13.071  12.331  -2.831  0.00  0.00     0.087 A 
ATOM     14  C   UNL d   1      13.028  13.130  -3.025  0.00  0.00     0.043 A 
ATOM     15  C   UNL d   1      13.311  13.382  -3.764  0.00  0.00     0.096 A 
ATOM     16  C   UNL d   1      13.631  12.833  -4.295  0.00  0.00     0.024 A 
ATOM     17  C   UNL d   1      13.668  12.032  -4.086  0.00  0.00     0.004 A 
ATOM     18  C   UNL d   1      13.389  11.780  -3.357  0.00  0.00     0.019 A 
BRANCH  15  19
ATOM     19  O   UNL d   1      13.268  14.180  -3.958  0.00  0.00    -0.328 OA
ATOM     20  C   UNL d   1      12.834  14.427  -4.615  0.00  0.00     0.181 C 
ENDBRANCH  15  19
ENDBRANCH   2  13
TORSDOF 3
ENDMDL
MODEL 3
REMARK VINA RESULT:      26.4      1.072      1.543
REMARK  3 active torsions:
REMARK  status: ('A' for Active; 'I' for Inactive)
REMARK    1  A    between atoms: C_2  and  C_1 
REMARK       I    between atoms: N_7  and  C_2 
REMARK    2  A    between atoms: C_9  and  N_7 
REMARK    3  A    between atoms: O_13  and  C_11 
ROOT
ATOM      1  C   UNL d   1      15.799  12.593  -0.270  0.00  0.00     0.280 C 
ATOM      2  N   UNL d   1      15.470  11.890  -0.539  0.00  0.00    -0.208 NA
ATOM      3  O   UNL d   1      16.599  12.629  -0.085  0.00  0.00    -0.265 OA
ENDROOT
BRANCH   1   4
ATOM      4  C   UNL d   1      15.325  13.265  -0.185  0.00  0.00     0.065 A 
ATOM      5  C   UNL d   1      15.585  14.042  -0.153  0.00  0.00     0.011 A 
ATOM      6  C   UNL d   1      14.930  14.538  -0.066  0.00  0.00     0.030 A 
ATOM      7  C   UNL d   1      16.344  14.362  -0.192  0.00  0.00     0.001 A 
ATOM      8  C   UNL d   1      15.034  15.354  -0.018  0.00  0.00     0.006 A 
ATOM      9  S   UNL d   1      14.245  14.068  -0.043  0.00  0.00    -0.086 SA
ATOM     10  C   UNL d   1      15.793  15.675  -0.057  0.00  0.00     0.001 A 
ATOM     11  C   UNL d   1      16.448  15.179  -0.144  0.00  0.00     0.000 A 
ATOM     12  C   UNL d   1      14.479  13.277  -0.116  0.00  0.00     0.040 A 
ENDBRANCH   1   4
BRANCH   2  13
ATOM     13  C   UNL d   1      14.659  11.853  -0.727  0.00  0.00     0.087 A 
ATOM     14  C   UNL d   1      14.429  11.835  -1.517  0.00  0.00     0.043 A 
ATOM     15  C   UNL d   1      13.620  11.798  -1.702  0.00  0.00     0.096 A 
ATOM     16  C   UNL d   1      13.056  11.779  -1.096  0.00  0.00     0.024 A 
ATOM     17  C   UNL d   1      13.302  11.797  -0.305  0.00  0.00     0.004 A 
ATOM     18  C   UNL d   1      14.101  11.834  -0.119  0.00  0.00     0.019 A 
BRANCH  15  19
ATOM     19  O   UNL d   1      13.390  11.781  -2.491  0.00  0.00    -0.328 OA
ATOM     20  C   UNL d   1      13.764  12.265  -3.046  0.00  0.00     0.181 C 
ENDBRANCH  15  19
ENDBRANCH   2  13
TORSDOF 3
ENDMDL
