MODEL 1
REMARK VINA RESULT:      -8.9      0.000      0.000
REMARK  6 active torsions:
REMARK  status: ('A' for Active; 'I' for Inactive)
REMARK    1  A    between atoms: N_2  and  S_1 
REMARK    2  A    between atoms: C_16  and  S_1 
REMARK    3  A    between atoms: C_4  and  C_3 
REMARK       I    between atoms: N_6  and  C_4 
REMARK    4  A    between atoms: C_15  and  N_6 
REMARK    5  A    between atoms: C_9  and  C_15 
REMARK    6  A    between atoms: C_20  and  C_16 
ROOT
ATOM      1  N   UNL d   1      52.844  33.971  53.804  0.00  0.00    -0.229 N 
ATOM      2  C   UNL d   1      53.992  33.130  53.869  0.00  0.00     0.076 A 
ATOM      3  C   UNL d   1      53.358  33.429  53.450  0.00  0.00     0.096 A 
ATOM      4  C   UNL d   1      52.967  34.212  54.575  0.00  0.00     0.092 A 
ATOM      5  C   UNL d   1      54.119  33.370  54.644  0.00  0.00     0.008 A 
ATOM      6  C   UNL d   1      53.604  33.913  54.998  0.00  0.00     0.020 A 
ENDROOT
BRANCH   2   7
ATOM      7  C   UNL d   1      54.511  32.587  53.523  0.00  0.00     0.281 C 
ATOM      8  N   UNL d   1      54.316  31.788  53.475  0.00  0.00    -0.204 NA
ATOM      9  O   UNL d   1      55.239  32.857  53.220  0.00  0.00    -0.265 OA
BRANCH   8  10
ATOM     10  C   UNL d   1      53.595  31.526  53.776  0.00  0.00     0.127 C 
BRANCH  10  11
ATOM     11  C   UNL d   1      53.389  30.728  53.712  0.00  0.00     0.119 A 
ATOM     12  O   UNL d   1      53.588  30.135  54.250  0.00  0.00    -0.304 OA
ATOM     13  C   UNL d   1      53.273  29.424  53.972  0.00  0.00     0.123 A 
ATOM     14  C   UNL d   1      52.880  29.583  53.262  0.00  0.00     0.029 A 
ATOM     15  C   UNL d   1      52.956  30.389  53.108  0.00  0.00     0.028 A 
ENDBRANCH  10  11
ENDBRANCH   8  10
ENDBRANCH   2   7
BRANCH   1  16
ATOM     16  S   UNL d   1      52.200  34.271  53.371  0.00  0.00     0.272 S 
ATOM     17  O   UNL d   1      52.688  34.799  53.002  0.00  0.00    -0.200 OA
ATOM     18  O   UNL d   1      51.705  33.726  53.754  0.00  0.00    -0.200 OA
BRANCH  16  19
ATOM     19  C   UNL d   1      51.563  34.575  52.936  0.00  0.00     0.116 C 
BRANCH  19  20
ATOM     20  C   UNL d   1      50.855  34.153  52.870  0.00  0.00     0.014 C 
ATOM     21  C   UNL d   1      50.228  34.474  52.444  0.00  0.00     0.001 C 
ENDBRANCH  19  20
ENDBRANCH  16  19
ENDBRANCH   1  16
TORSDOF 6
ENDMDL
MODEL 2
REMARK VINA RESULT:      -7.5      1.271      3.866
REMARK  6 active torsions:
REMARK  status: ('A' for Active; 'I' for Inactive)
REMARK    1  A    between atoms: N_2  and  S_1 
REMARK    2  A    between atoms: C_16  and  S_1 
REMARK    3  A    between atoms: C_4  and  C_3 
REMARK       I    between atoms: N_6  and  C_4 
REMARK    4  A    between atoms: C_15  and  N_6 
REMARK    5  A    between atoms: C_9  and  C_15 
REMARK    6  A    between atoms: C_20  and  C_16 
ROOT
ATOM      1  N   UNL d   1      53.697  31.708  53.661  0.00  0.00    -0.229 N 
ATOM      2  C   UNL d   1      53.440  33.062  54.024  0.00  0.00     0.076 A 
ATOM      3  C   UNL d   1      53.224  32.274  54.035  0.00  0.00     0.096 A 
ATOM      4  C   UNL d   1      54.383  31.932  53.277  0.00  0.00     0.092 A 
ATOM      5  C   UNL d   1      54.129  33.290  53.639  0.00  0.00     0.008 A 
ATOM      6  C   UNL d   1      54.601  32.724  53.265  0.00  0.00     0.020 A 
ENDROOT
BRANCH   2   7
ATOM      7  C   UNL d   1      52.973  33.635  54.395  0.00  0.00     0.281 C 
ATOM      8  N   UNL d   1      52.322  33.962  54.011  0.00  0.00    -0.204 NA
ATOM      9  O   UNL d   1      53.169  33.879  55.167  0.00  0.00    -0.265 OA
BRANCH   8  10
ATOM     10  C   UNL d   1      52.133  33.717  53.247  0.00  0.00     0.127 C 
BRANCH  10  11
ATOM     11  C   UNL d   1      51.436  33.983  52.892  0.00  0.00     0.119 A 
ATOM     12  O   UNL d   1      50.718  34.115  53.279  0.00  0.00    -0.304 OA
ATOM     13  C   UNL d   1      50.172  34.376  52.717  0.00  0.00     0.123 A 
ATOM     14  C   UNL d   1      50.556  34.404  51.985  0.00  0.00     0.029 A 
ATOM     15  C   UNL d   1      51.335  34.160  52.101  0.00  0.00     0.028 A 
ENDBRANCH  10  11
ENDBRANCH   8  10
ENDBRANCH   2   7
BRANCH   1  16
ATOM     16  S   UNL d   1      53.471  30.907  53.676  0.00  0.00     0.272 S 
ATOM     17  O   UNL d   1      53.258  30.947  52.898  0.00  0.00    -0.200 OA
ATOM     18  O   UNL d   1      53.691  30.874  54.476  0.00  0.00    -0.200 OA
BRANCH  16  19
ATOM     19  C   UNL d   1      53.243  30.110  53.684  0.00  0.00     0.116 C 
BRANCH  19  20
ATOM     20  C   UNL d   1      53.364  29.641  54.355  0.00  0.00     0.014 C 
ATOM     21  C   UNL d   1      53.193  28.837  54.326  0.00  0.00     0.001 C 
ENDBRANCH  19  20
ENDBRANCH  16  19
ENDBRANCH   1  16
TORSDOF 6
ENDMDL
MODEL 3
REMARK VINA RESULT:      -7.1      1.513      2.045
REMARK  6 active torsions:
REMARK  status: ('A' for Active; 'I' for Inactive)
REMARK    1  A    between atoms: N_2  and  S_1 
REMARK    2  A    between atoms: C_16  and  S_1 
REMARK    3  A    between atoms: C_4  and  C_3 
REMARK       I    between atoms: N_6  and  C_4 
REMARK    4  A    between atoms: C_15  and  N_6 
REMARK    5  A    between atoms: C_9  and  C_15 
REMARK    6  A    between atoms: C_20  and  C_16 
ROOT
ATOM      1  N   UNL d   1      53.664  33.282  53.934  0.00  0.00    -0.229 N 
ATOM      2  C   UNL d   1      53.432  32.058  53.242  0.00  0.00     0.076 A 
ATOM      3  C   UNL d   1      53.143  32.714  53.634  0.00  0.00     0.096 A 
ATOM      4  C   UNL d   1      54.471  33.191  53.842  0.00  0.00     0.092 A 
ATOM      5  C   UNL d   1      54.243  31.964  53.148  0.00  0.00     0.008 A 
ATOM      6  C   UNL d   1      54.763  32.532  53.448  0.00  0.00     0.020 A 
ENDROOT
BRANCH   2   7
ATOM      7  C   UNL d   1      52.919  31.485  52.939  0.00  0.00     0.281 C 
ATOM      8  N   UNL d   1      52.869  30.738  53.284  0.00  0.00    -0.204 NA
ATOM      9  O   UNL d   1      52.448  31.671  52.277  0.00  0.00    -0.265 OA
BRANCH   8  10
ATOM     10  C   UNL d   1      53.336  30.559  53.938  0.00  0.00     0.127 C 
BRANCH  10  11
ATOM     11  C   UNL d   1      53.310  29.801  54.266  0.00  0.00     0.119 A 
ATOM     12  O   UNL d   1      53.280  29.093  53.842  0.00  0.00    -0.304 OA
ATOM     13  C   UNL d   1      53.260  28.472  54.386  0.00  0.00     0.123 A 
ATOM     14  C   UNL d   1      53.277  28.800  55.144  0.00  0.00     0.029 A 
ATOM     15  C   UNL d   1      53.308  29.620  55.062  0.00  0.00     0.028 A 
ENDBRANCH  10  11
ENDBRANCH   8  10
ENDBRANCH   2   7
BRANCH   1  16
ATOM     16  S   UNL d   1      53.362  33.948  54.332  0.00  0.00     0.272 S 
ATOM     17  O   UNL d   1      53.588  33.632  55.041  0.00  0.00    -0.200 OA
ATOM     18  O   UNL d   1      53.134  34.266  53.600  0.00  0.00    -0.200 OA
BRANCH  16  19
ATOM     19  C   UNL d   1      53.064  34.607  54.736  0.00  0.00     0.116 C 
BRANCH  19  20
ATOM     20  C   UNL d   1      53.012  35.344  54.362  0.00  0.00     0.014 C 
ATOM     21  C   UNL d   1      52.828  36.013  54.806  0.00  0.00     0.001 C 
ENDBRANCH  19  20
ENDBRANCH  16  19
ENDBRANCH   1  16
TORSDOF 6
ENDMDL
MODEL 4
REMARK VINA RESULT:      -7.0      1.670      4.124
REMARK  6 active torsions:
REMARK  status: ('A' for Active; 'I' for Inactive)
REMARK    1  A    between atoms: N_2  and  S_1 
REMARK    2  A    between atoms: C_16  and  S_1 
REMARK    3  A    between atoms: C_4  and  C_3 
REMARK       I    between atoms: N_6  and  C_4 
REMARK    4  A    between atoms: C_15  and  N_6 
REMARK    5  A    between atoms: C_9  and  C_15 
REMARK    6  A    between atoms: C_20  and  C_16 
ROOT
ATOM      1  N   UNL d   1      53.180  30.962  53.413  0.00  0.00    -0.229 N 
ATOM      2  C   UNL d   1      53.731  32.269  53.275  0.00  0.00     0.076 A 
ATOM      3  C   UNL d   1      53.787  31.505  53.557  0.00  0.00     0.096 A 
ATOM      4  C   UNL d   1      52.520  31.186  52.987  0.00  0.00     0.092 A 
ATOM      5  C   UNL d   1      53.068  32.498  52.847  0.00  0.00     0.008 A 
ATOM      6  C   UNL d   1      52.461  31.955  52.703  0.00  0.00     0.020 A 
ENDROOT
BRANCH   2   7
ATOM      7  C   UNL d   1      54.333  32.819  53.415  0.00  0.00     0.281 C 
ATOM      8  N   UNL d   1      54.174  33.529  53.802  0.00  0.00    -0.204 NA
ATOM      9  O   UNL d   1      55.107  32.646  53.160  0.00  0.00    -0.265 OA
BRANCH   8  10
ATOM     10  C   UNL d   1      53.407  33.695  54.052  0.00  0.00     0.127 C 
BRANCH  10  11
ATOM     11  C   UNL d   1      53.242  34.417  54.419  0.00  0.00     0.119 A 
ATOM     12  O   UNL d   1      53.384  34.597  55.212  0.00  0.00    -0.304 OA
ATOM     13  C   UNL d   1      53.138  35.375  55.343  0.00  0.00     0.123 A 
ATOM     14  C   UNL d   1      52.845  35.670  54.629  0.00  0.00     0.029 A 
ATOM     15  C   UNL d   1      52.913  35.074  54.064  0.00  0.00     0.028 A 
ENDBRANCH  10  11
ENDBRANCH   8  10
ENDBRANCH   2   7
BRANCH   1  16
ATOM     16  S   UNL d   1      53.245  30.185  53.703  0.00  0.00     0.272 S 
ATOM     17  O   UNL d   1      53.250  29.898  52.948  0.00  0.00    -0.200 OA
ATOM     18  O   UNL d   1      53.239  30.487  54.477  0.00  0.00    -0.200 OA
BRANCH  16  19
ATOM     19  C   UNL d   1      53.309  29.408  53.985  0.00  0.00     0.116 C 
BRANCH  19  20
ATOM     20  C   UNL d   1      53.332  29.252  54.797  0.00  0.00     0.014 C 
ATOM     21  C   UNL d   1      53.385  28.474  55.061  0.00  0.00     0.001 C 
ENDBRANCH  19  20
ENDBRANCH  16  19
ENDBRANCH   1  16
TORSDOF 6
ENDMDL
MODEL 5
REMARK VINA RESULT:      -6.9      1.411      2.715
REMARK  6 active torsions:
REMARK  status: ('A' for Active; 'I' for Inactive)
REMARK    1  A    between atoms: N_2  and  S_1 
REMARK    2  A    between atoms: C_16  and  S_1 
REMARK    3  A    between atoms: C_4  and  C_3 
REMARK       I    between atoms: N_6  and  C_4 
REMARK    4  A    between atoms: C_15  and  N_6 
REMARK    5  A    between atoms: C_9  and  C_15 
REMARK    6  A    between atoms: C_20  and  C_16 
ROOT
ATOM      1  N   UNL d   1      52.979  34.168  53.846  0.00  0.00    -0.229 N 
ATOM      2  C   UNL d   1      51.886  33.448  53.284  0.00  0.00     0.076 A 
ATOM      3  C   UNL d   1      52.443  33.539  53.874  0.00  0.00     0.096 A 
ATOM      4  C   UNL d   1      52.956  34.703  53.228  0.00  0.00     0.092 A 
ATOM      5  C   UNL d   1      51.859  33.984  52.662  0.00  0.00     0.008 A 
ATOM      6  C   UNL d   1      52.395  34.613  52.634  0.00  0.00     0.020 A 
ENDROOT
BRANCH   2   7
ATOM      7  C   UNL d   1      51.346  32.822  53.304  0.00  0.00     0.281 C 
ATOM      8  N   UNL d   1      51.592  32.048  53.163  0.00  0.00    -0.204 NA
ATOM      9  O   UNL d   1      50.545  32.982  53.470  0.00  0.00    -0.265 OA
BRANCH   8  10
ATOM     10  C   UNL d   1      52.385  31.896  53.000  0.00  0.00     0.127 C 
BRANCH  10  11
ATOM     11  C   UNL d   1      52.649  31.115  52.942  0.00  0.00     0.119 A 
ATOM     12  O   UNL d   1      52.696  30.672  52.247  0.00  0.00    -0.304 OA
ATOM     13  C   UNL d   1      52.988  29.924  52.442  0.00  0.00     0.123 A 
ATOM     14  C   UNL d   1      53.118  29.909  53.258  0.00  0.00     0.029 A 
ATOM     15  C   UNL d   1      52.907  30.647  53.560  0.00  0.00     0.028 A 
ENDBRANCH  10  11
ENDBRANCH   8  10
ENDBRANCH   2   7
BRANCH   1  16
ATOM     16  S   UNL d   1      53.545  34.255  54.451  0.00  0.00     0.272 S 
ATOM     17  O   UNL d   1      54.114  33.944  53.969  0.00  0.00    -0.200 OA
ATOM     18  O   UNL d   1      52.954  34.573  54.940  0.00  0.00    -0.200 OA
BRANCH  16  19
ATOM     19  C   UNL d   1      54.113  34.338  55.048  0.00  0.00     0.116 C 
BRANCH  19  20
ATOM     20  C   UNL d   1      54.722  33.783  55.133  0.00  0.00     0.014 C 
ATOM     21  C   UNL d   1      55.262  33.864  55.749  0.00  0.00     0.001 C 
ENDBRANCH  19  20
ENDBRANCH  16  19
ENDBRANCH   1  16
TORSDOF 6
ENDMDL
MODEL 6
REMARK VINA RESULT:      -6.5      2.252      4.581
REMARK  6 active torsions:
REMARK  status: ('A' for Active; 'I' for Inactive)
REMARK    1  A    between atoms: N_2  and  S_1 
REMARK    2  A    between atoms: C_16  and  S_1 
REMARK    3  A    between atoms: C_4  and  C_3 
REMARK       I    between atoms: N_6  and  C_4 
REMARK    4  A    between atoms: C_15  and  N_6 
REMARK    5  A    between atoms: C_9  and  C_15 
REMARK    6  A    between atoms: C_20  and  C_16 
ROOT
ATOM      1  N   UNL d   1      52.671  34.174  53.604  0.00  0.00    -0.229 N 
ATOM      2  C   UNL d   1      51.408  33.823  53.045  0.00  0.00     0.076 A 
ATOM      3  C   UNL d   1      51.934  33.803  53.669  0.00  0.00     0.096 A 
ATOM      4  C   UNL d   1      52.876  34.564  52.916  0.00  0.00     0.092 A 
ATOM      5  C   UNL d   1      51.611  34.213  52.352  0.00  0.00     0.008 A 
ATOM      6  C   UNL d   1      52.347  34.584  52.287  0.00  0.00     0.020 A 
ENDROOT
BRANCH   2   7
ATOM      7  C   UNL d   1      50.670  33.454  53.101  0.00  0.00     0.281 C 
ATOM      8  N   UNL d   1      49.974  33.894  53.058  0.00  0.00    -0.204 NA
ATOM      9  O   UNL d   1      50.635  32.628  53.204  0.00  0.00    -0.265 OA
BRANCH   8  10
ATOM     10  C   UNL d   1      50.013  34.711  52.956  0.00  0.00     0.127 C 
BRANCH  10  11
ATOM     11  C   UNL d   1      49.320  35.160  52.970  0.00  0.00     0.119 A 
ATOM     12  O   UNL d   1      49.075  35.648  53.589  0.00  0.00    -0.304 OA
ATOM     13  C   UNL d   1      48.355  35.990  53.372  0.00  0.00     0.123 A 
ATOM     14  C   UNL d   1      48.159  35.710  52.619  0.00  0.00     0.029 A 
ATOM     15  C   UNL d   1      48.759  35.199  52.378  0.00  0.00     0.028 A 
ENDBRANCH  10  11
ENDBRANCH   8  10
ENDBRANCH   2   7
BRANCH   1  16
ATOM     16  S   UNL d   1      53.202  34.150  54.244  0.00  0.00     0.272 S 
ATOM     17  O   UNL d   1      52.934  34.868  54.500  0.00  0.00    -0.200 OA
ATOM     18  O   UNL d   1      53.472  33.412  53.975  0.00  0.00    -0.200 OA
BRANCH  16  19
ATOM     19  C   UNL d   1      53.729  34.133  54.884  0.00  0.00     0.116 C 
BRANCH  19  20
ATOM     20  C   UNL d   1      54.357  33.594  54.901  0.00  0.00     0.014 C 
ATOM     21  C   UNL d   1      54.892  33.613  55.527  0.00  0.00     0.001 C 
ENDBRANCH  19  20
ENDBRANCH  16  19
ENDBRANCH   1  16
TORSDOF 6
ENDMDL
MODEL 7
REMARK VINA RESULT:      -6.2      1.494      3.572
REMARK  6 active torsions:
REMARK  status: ('A' for Active; 'I' for Inactive)
REMARK    1  A    between atoms: N_2  and  S_1 
REMARK    2  A    between atoms: C_16  and  S_1 
REMARK    3  A    between atoms: C_4  and  C_3 
REMARK       I    between atoms: N_6  and  C_4 
REMARK    4  A    between atoms: C_15  and  N_6 
REMARK    5  A    between atoms: C_9  and  C_15 
REMARK    6  A    between atoms: C_20  and  C_16 
ROOT
ATOM      1  N   UNL d   1      52.032  32.285  53.045  0.00  0.00    -0.229 N 
ATOM      2  C   UNL d   1      52.268  33.688  53.126  0.00  0.00     0.076 A 
ATOM      3  C   UNL d   1      52.545  32.931  52.994  0.00  0.00     0.096 A 
ATOM      4  C   UNL d   1      51.243  32.399  53.226  0.00  0.00     0.092 A 
ATOM      5  C   UNL d   1      51.476  33.806  53.308  0.00  0.00     0.008 A 
ATOM      6  C   UNL d   1      50.962  33.160  53.359  0.00  0.00     0.020 A 
ENDROOT
BRANCH   2   7
ATOM      7  C   UNL d   1      52.775  34.340  53.077  0.00  0.00     0.281 C 
ATOM      8  N   UNL d   1      53.351  34.469  53.652  0.00  0.00    -0.204 NA
ATOM      9  O   UNL d   1      52.697  34.868  52.438  0.00  0.00    -0.265 OA
BRANCH   8  10
ATOM     10  C   UNL d   1      53.424  33.944  54.282  0.00  0.00     0.127 C 
BRANCH  10  11
ATOM     11  C   UNL d   1      54.082  33.989  54.780  0.00  0.00     0.119 A 
ATOM     12  O   UNL d   1      54.286  34.635  55.253  0.00  0.00    -0.304 OA
ATOM     13  C   UNL d   1      54.980  34.444  55.657  0.00  0.00     0.123 A 
ATOM     14  C   UNL d   1      55.202  33.680  55.431  0.00  0.00     0.029 A 
ATOM     15  C   UNL d   1      54.644  33.406  54.890  0.00  0.00     0.028 A 
ENDBRANCH  10  11
ENDBRANCH   8  10
ENDBRANCH   2   7
BRANCH   1  16
ATOM     16  S   UNL d   1      52.321  31.517  52.910  0.00  0.00     0.272 S 
ATOM     17  O   UNL d   1      52.619  31.750  52.195  0.00  0.00    -0.200 OA
ATOM     18  O   UNL d   1      52.012  31.285  53.644  0.00  0.00    -0.200 OA
BRANCH  16  19
ATOM     19  C   UNL d   1      52.613  30.755  52.768  0.00  0.00     0.116 C 
BRANCH  19  20
ATOM     20  C   UNL d   1      53.078  30.367  53.331  0.00  0.00     0.014 C 
ATOM     21  C   UNL d   1      53.291  29.581  53.213  0.00  0.00     0.001 C 
ENDBRANCH  19  20
ENDBRANCH  16  19
ENDBRANCH   1  16
TORSDOF 6
ENDMDL
