MODEL 1
REMARK VINA RESULT:      17.9      0.000      0.000
REMARK  4 active torsions:
REMARK  status: ('A' for Active; 'I' for Inactive)
REMARK    1  A    between atoms: N_3  and  S_1 
REMARK    2  A    between atoms: C_4  and  S_1 
REMARK    3  A    between atoms: C_13  and  N_3 
REMARK    4  A    between atoms: C_16  and  N_3 
ROOT
ATOM      1  S   UNL d   1      45.700 -14.141  44.379  0.00  0.00     0.271 S 
ATOM      2  O   UNL d   1      46.405 -13.770  44.168  0.00  0.00    -0.200 OA
ATOM      3  O   UNL d   1      45.039 -13.692  44.567  0.00  0.00    -0.200 OA
ENDROOT
BRANCH   1   4
ATOM      4  N   UNL d   1      45.734 -13.320  44.358  0.00  0.00    -0.231 N 
BRANCH   4   5
ATOM      5  C   UNL d   1      45.376 -12.903  43.729  0.00  0.00     0.075 A 
ATOM      6  C   UNL d   1      45.844 -12.520  43.175  0.00  0.00     0.018 A 
ATOM      7  C   UNL d   1      45.491 -12.109  42.555  0.00  0.00     0.002 A 
ATOM      8  C   UNL d   1      44.669 -12.080  42.488  0.00  0.00     0.000 A 
ATOM      9  C   UNL d   1      44.201 -12.462  43.041  0.00  0.00     0.002 A 
ATOM     10  C   UNL d   1      44.551 -12.876  43.666  0.00  0.00     0.018 A 
ENDBRANCH   4   5
BRANCH   4  11
ATOM     11  C   UNL d   1      46.120 -12.909  44.955  0.00  0.00     0.092 C 
ATOM     12  C   UNL d   1      46.172 -12.087  44.930  0.00  0.00     0.021 C 
ENDBRANCH   4  11
ENDBRANCH   1   4
BRANCH   1  13
ATOM     13  C   UNL d   1      45.658 -14.962  44.402  0.00  0.00     0.106 A 
ATOM     14  C   UNL d   1      46.132 -15.411  43.903  0.00  0.00     0.034 A 
ATOM     15  C   UNL d   1      46.092 -16.239  43.923  0.00  0.00     0.105 A 
ATOM     16  N   UNL d   1      46.490 -16.826  43.498  0.00  0.00    -0.189 NA
ATOM     17  C   UNL d   1      45.570 -16.614  44.451  0.00  0.00     0.104 A 
ATOM     18  C   UNL d   1      46.216 -17.569  43.762  0.00  0.00     0.369 A 
ATOM     19  O   UNL d   1      46.466 -18.304  43.486  0.00  0.00    -0.242 OA
ATOM     20  N   UNL d   1      45.649 -17.431  44.349  0.00  0.00    -0.189 NA
ATOM     21  C   UNL d   1      45.093 -16.158  44.954  0.00  0.00     0.021 A 
ATOM     22  C   UNL d   1      45.141 -15.334  44.925  0.00  0.00     0.015 A 
ENDBRANCH   1  13
TORSDOF 4
ENDMDL
