MODEL 1
REMARK VINA RESULT:      -3.0      0.000      0.000
REMARK  4 active torsions:
REMARK  status: ('A' for Active; 'I' for Inactive)
REMARK       I    between atoms: C_3  and  N_1 
REMARK    1  A    between atoms: C_7  and  C_3 
REMARK    2  A    between atoms: C_9  and  C_4 
REMARK    3  A    between atoms: C_12  and  C_5 
REMARK    4  A    between atoms: O_20  and  C_17 
ROOT
ATOM      1  N   UNL d   1      57.693  -0.955  30.742  0.00  0.00    -0.194 N 
ATOM      2  N   UNL d   1      57.159  -0.986  31.361  0.00  0.00    -0.163 NA
ATOM      3  C   UNL d   1      57.864  -1.583  30.199  0.00  0.00     0.286 C 
ATOM      4  C   UNL d   1      58.033  -0.205  30.744  0.00  0.00     0.088 A 
ATOM      5  C   UNL d   1      57.159  -0.267  31.749  0.00  0.00     0.103 A 
ATOM      6  C   UNL d   1      57.703   0.215  31.364  0.00  0.00     0.040 A 
ATOM      7  O   UNL d   1      57.460  -2.296  30.294  0.00  0.00    -0.265 OA
ENDROOT
BRANCH   4   8
ATOM      8  C   UNL d   1      58.608   0.006  30.176  0.00  0.00     0.018 A 
ATOM      9  C   UNL d   1      59.422  -0.155  30.307  0.00  0.00     0.004 A 
ATOM     10  C   UNL d   1      59.976   0.059  29.734  0.00  0.00     0.024 A 
ATOM     11  C   UNL d   1      59.745   0.433  29.028  0.00  0.00     0.094 A 
ATOM     12  C   UNL d   1      58.932   0.593  28.896  0.00  0.00     0.024 A 
ATOM     13  C   UNL d   1      58.372   0.377  29.474  0.00  0.00     0.004 A 
BRANCH  11  14
ATOM     14  O   UNL d   1      60.319   0.643  28.458  0.00  0.00    -0.328 OA
ATOM     15  C   UNL d   1      61.128   0.682  28.684  0.00  0.00     0.181 C 
ENDBRANCH  11  14
ENDBRANCH   4   8
BRANCH   3  16
ATOM     16  C   UNL d   1      58.410  -1.491  29.601  0.00  0.00     0.087 A 
ATOM     17  S   UNL d   1      58.383  -1.126  28.847  0.00  0.00    -0.082 SA
ATOM     18  C   UNL d   1      59.113  -1.215  28.498  0.00  0.00     0.036 A 
ATOM     19  C   UNL d   1      59.605  -1.625  29.006  0.00  0.00     0.008 A 
ATOM     20  C   UNL d   1      59.181  -1.795  29.680  0.00  0.00     0.012 A 
ENDBRANCH   3  16
BRANCH   5  21
ATOM     21  C   UNL d   1      56.736   0.008  32.400  0.00  0.00     0.019 A 
ATOM     22  C   UNL d   1      55.917  -0.115  32.432  0.00  0.00     0.002 A 
ATOM     23  C   UNL d   1      55.500   0.160  33.082  0.00  0.00     0.000 A 
ATOM     24  C   UNL d   1      55.880   0.552  33.697  0.00  0.00     0.000 A 
ATOM     25  C   UNL d   1      56.700   0.675  33.665  0.00  0.00     0.000 A 
ATOM     26  C   UNL d   1      57.119   0.398  33.012  0.00  0.00     0.002 A 
ENDBRANCH   5  21
TORSDOF 4
ENDMDL
MODEL 2
REMARK VINA RESULT:      -2.5      1.197      1.832
REMARK  4 active torsions:
REMARK  status: ('A' for Active; 'I' for Inactive)
REMARK       I    between atoms: C_3  and  N_1 
REMARK    1  A    between atoms: C_7  and  C_3 
REMARK    2  A    between atoms: C_9  and  C_4 
REMARK    3  A    between atoms: C_12  and  C_5 
REMARK    4  A    between atoms: O_20  and  C_17 
ROOT
ATOM      1  N   UNL d   1      57.708  -0.267  30.287  0.00  0.00    -0.194 N 
ATOM      2  N   UNL d   1      57.063  -0.057  30.745  0.00  0.00    -0.163 NA
ATOM      3  C   UNL d   1      57.925   0.078  29.544  0.00  0.00     0.286 C 
ATOM      4  C   UNL d   1      58.105  -0.872  30.680  0.00  0.00     0.088 A 
ATOM      5  C   UNL d   1      57.052  -0.522  31.418  0.00  0.00     0.103 A 
ATOM      6  C   UNL d   1      57.699  -1.026  31.374  0.00  0.00     0.040 A 
ATOM      7  O   UNL d   1      57.449   0.682  29.245  0.00  0.00    -0.265 OA
ENDROOT
BRANCH   4   8
ATOM      8  C   UNL d   1      58.795  -1.212  30.354  0.00  0.00     0.018 A 
ATOM      9  C   UNL d   1      58.750  -1.906  29.882  0.00  0.00     0.004 A 
ATOM     10  C   UNL d   1      59.442  -2.228  29.567  0.00  0.00     0.024 A 
ATOM     11  C   UNL d   1      60.184  -1.881  29.708  0.00  0.00     0.094 A 
ATOM     12  C   UNL d   1      60.229  -1.188  30.181  0.00  0.00     0.024 A 
ATOM     13  C   UNL d   1      59.531  -0.862  30.498  0.00  0.00     0.004 A 
BRANCH  11  14
ATOM     14  O   UNL d   1      60.875  -2.220  29.383  0.00  0.00    -0.328 OA
ATOM     15  C   UNL d   1      61.093  -3.001  29.603  0.00  0.00     0.181 C 
ENDBRANCH  11  14
ENDBRANCH   4   8
BRANCH   3  16
ATOM     16  C   UNL d   1      58.582  -0.176  29.134  0.00  0.00     0.087 A 
ATOM     17  S   UNL d   1      58.808  -0.913  28.807  0.00  0.00    -0.082 SA
ATOM     18  C   UNL d   1      59.537  -0.821  28.459  0.00  0.00     0.036 A 
ATOM     19  C   UNL d   1      59.784  -0.047  28.553  0.00  0.00     0.008 A 
ATOM     20  C   UNL d   1      59.205   0.350  28.965  0.00  0.00     0.012 A 
ENDBRANCH   3  16
BRANCH   5  21
ATOM     21  C   UNL d   1      56.536  -0.549  32.060  0.00  0.00     0.019 A 
ATOM     22  C   UNL d   1      56.297  -1.284  32.357  0.00  0.00     0.002 A 
ATOM     23  C   UNL d   1      55.784  -1.305  32.996  0.00  0.00     0.000 A 
ATOM     24  C   UNL d   1      55.506  -0.614  33.342  0.00  0.00     0.000 A 
ATOM     25  C   UNL d   1      55.745   0.123  33.045  0.00  0.00     0.000 A 
ATOM     26  C   UNL d   1      56.261   0.145  32.403  0.00  0.00     0.002 A 
ENDBRANCH   5  21
TORSDOF 4
ENDMDL
MODEL 3
REMARK VINA RESULT:      -0.9      9.134      9.973
REMARK  4 active torsions:
REMARK  status: ('A' for Active; 'I' for Inactive)
REMARK       I    between atoms: C_3  and  N_1 
REMARK    1  A    between atoms: C_7  and  C_3 
REMARK    2  A    between atoms: C_9  and  C_4 
REMARK    3  A    between atoms: C_12  and  C_5 
REMARK    4  A    between atoms: O_20  and  C_17 
ROOT
ATOM      1  N   UNL d   1      59.383  -9.489  32.284  0.00  0.00    -0.194 N 
ATOM      2  N   UNL d   1      59.054  -9.636  31.549  0.00  0.00    -0.163 NA
ATOM      3  C   UNL d   1      60.208  -9.509  32.474  0.00  0.00     0.286 C 
ATOM      4  C   UNL d   1      58.766  -9.318  32.803  0.00  0.00     0.088 A 
ATOM      5  C   UNL d   1      58.242  -9.560  31.601  0.00  0.00     0.103 A 
ATOM      6  C   UNL d   1      58.066  -9.363  32.380  0.00  0.00     0.040 A 
ATOM      7  O   UNL d   1      60.739  -9.693  31.869  0.00  0.00    -0.265 OA
ENDROOT
BRANCH   4   8
ATOM      8  C   UNL d   1      58.918  -9.141  33.605  0.00  0.00     0.018 A 
ATOM      9  C   UNL d   1      59.021  -8.347  33.858  0.00  0.00     0.004 A 
ATOM     10  C   UNL d   1      59.171  -8.190  34.654  0.00  0.00     0.024 A 
ATOM     11  C   UNL d   1      59.224  -8.804  35.213  0.00  0.00     0.094 A 
ATOM     12  C   UNL d   1      59.122  -9.599  34.960  0.00  0.00     0.024 A 
ATOM     13  C   UNL d   1      58.970  -9.757  34.156  0.00  0.00     0.004 A 
BRANCH  11  14
ATOM     14  O   UNL d   1      59.377  -8.629  36.016  0.00  0.00    -0.328 OA
ATOM     15  C   UNL d   1      59.127  -7.891  36.330  0.00  0.00     0.181 C 
ENDBRANCH  11  14
ENDBRANCH   4   8
BRANCH   3  16
ATOM     16  C   UNL d   1      60.475  -9.352  33.228  0.00  0.00     0.087 A 
ATOM     17  S   UNL d   1      60.553  -9.818  33.920  0.00  0.00    -0.082 SA
ATOM     18  C   UNL d   1      60.856  -9.345  34.509  0.00  0.00     0.036 A 
ATOM     19  C   UNL d   1      60.974  -8.591  34.214  0.00  0.00     0.008 A 
ATOM     20  C   UNL d   1      60.742  -8.591  33.433  0.00  0.00     0.012 A 
ENDBRANCH   3  16
BRANCH   5  21
ATOM     21  C   UNL d   1      57.644  -9.644  31.041  0.00  0.00     0.019 A 
ATOM     22  C   UNL d   1      56.860  -9.733  31.295  0.00  0.00     0.002 A 
ATOM     23  C   UNL d   1      56.269  -9.818  30.733  0.00  0.00     0.000 A 
ATOM     24  C   UNL d   1      56.442  -9.815  29.929  0.00  0.00     0.000 A 
ATOM     25  C   UNL d   1      57.226  -9.726  29.675  0.00  0.00     0.000 A 
ATOM     26  C   UNL d   1      57.821  -9.641  30.239  0.00  0.00     0.002 A 
ENDBRANCH   5  21
TORSDOF 4
ENDMDL
