MODEL 1
REMARK VINA RESULT:      37.9      0.000      0.000
REMARK  5 active torsions:
REMARK  status: ('A' for Active; 'I' for Inactive)
REMARK    1  A    between atoms: S_12  and  C_4 
REMARK    2  A    between atoms: C_7  and  C_5 
REMARK    3  A    between atoms: C_20  and  S_12 
REMARK    4  A    between atoms: C_14  and  C_20 
REMARK    5  A    between atoms: O_21  and  C_14 
ROOT
ATOM      1  C   UNL d   1      58.718  49.627  50.411  0.00  0.00     0.095 A 
ATOM      2  C   UNL d   1      57.668  49.645  51.397  0.00  0.00     0.108 A 
ATOM      3  N   UNL d   1      59.046  49.686  51.815  0.00  0.00    -0.217 NA
ATOM      4  C   UNL d   1      59.288  49.660  51.017  0.00  0.00     0.122 A 
ATOM      5  C   UNL d   1      57.909  49.619  50.606  0.00  0.00     0.047 A 
ATOM      6  C   UNL d   1      58.238  49.679  52.004  0.00  0.00     0.194 A 
ATOM      7  C   UNL d   1      56.881  49.637  51.572  0.00  0.00     0.104 C 
ATOM      8  C   UNL d   1      58.950  49.600  49.618  0.00  0.00     0.103 C 
ATOM      9  N   UNL d   1      59.178  49.575  48.839  0.00  0.00    -0.191 NA
ATOM     10  N   UNL d   1      56.107  49.630  51.750  0.00  0.00    -0.191 NA
ATOM     11  N   UNL d   1      57.996  49.705  52.801  0.00  0.00    -0.126 N 
ENDROOT
BRANCH   5  12
ATOM     12  C   UNL d   1      57.356  49.587  50.018  0.00  0.00     0.102 A 
ATOM     13  O   UNL d   1      56.563  49.459  50.125  0.00  0.00    -0.305 OA
ATOM     14  C   UNL d   1      56.199  49.470  49.366  0.00  0.00     0.123 A 
ATOM     15  C   UNL d   1      56.774  49.600  48.839  0.00  0.00     0.029 A 
ATOM     16  C   UNL d   1      57.481  49.674  49.208  0.00  0.00     0.027 A 
ENDBRANCH   5  12
BRANCH   4  17
ATOM     17  S   UNL d   1      60.095  49.668  50.830  0.00  0.00    -0.061 SA
BRANCH  17  18
ATOM     18  C   UNL d   1      60.614  49.235  51.253  0.00  0.00     0.105 C 
BRANCH  18  19
ATOM     19  C   UNL d   1      61.355  49.490  51.357  0.00  0.00     0.303 C 
ATOM     20  O   UNL d   1      61.734  49.541  50.956  0.00  0.00    -0.259 OA
BRANCH  19  21
ATOM     21  O   UNL d   1      61.605  49.698  52.092  0.00  0.00    -0.295 OA
ATOM     22  C   UNL d   1      62.366  49.574  52.308  0.00  0.00     0.185 C 
ENDBRANCH  19  21
ENDBRANCH  18  19
ENDBRANCH  17  18
ENDBRANCH   4  17
TORSDOF 5
ENDMDL
MODEL 2
REMARK VINA RESULT:      39.1      1.276      4.294
REMARK  5 active torsions:
REMARK  status: ('A' for Active; 'I' for Inactive)
REMARK    1  A    between atoms: S_12  and  C_4 
REMARK    2  A    between atoms: C_7  and  C_5 
REMARK    3  A    between atoms: C_20  and  S_12 
REMARK    4  A    between atoms: C_14  and  C_20 
REMARK    5  A    between atoms: O_21  and  C_14 
ROOT
ATOM      1  C   UNL d   1      59.388  49.690  51.492  0.00  0.00     0.095 A 
ATOM      2  C   UNL d   1      60.455  49.698  50.523  0.00  0.00     0.108 A 
ATOM      3  N   UNL d   1      59.083  49.697  50.081  0.00  0.00    -0.217 NA
ATOM      4  C   UNL d   1      58.828  49.692  50.876  0.00  0.00     0.122 A 
ATOM      5  C   UNL d   1      60.201  49.693  51.311  0.00  0.00     0.047 A 
ATOM      6  C   UNL d   1      59.895  49.700  49.907  0.00  0.00     0.194 A 
ATOM      7  C   UNL d   1      61.245  49.700  50.362  0.00  0.00     0.104 C 
ATOM      8  C   UNL d   1      59.143  49.685  52.281  0.00  0.00     0.103 C 
ATOM      9  N   UNL d   1      58.902  49.680  53.057  0.00  0.00    -0.191 NA
ATOM     10  N   UNL d   1      62.021  49.703  50.197  0.00  0.00    -0.191 NA
ATOM     11  N   UNL d   1      60.150  49.704  49.112  0.00  0.00    -0.126 N 
ENDROOT
BRANCH   5  12
ATOM     12  C   UNL d   1      60.744  49.691  51.909  0.00  0.00     0.102 A 
ATOM     13  O   UNL d   1      60.572  49.704  52.700  0.00  0.00    -0.305 OA
ATOM     14  C   UNL d   1      61.302  49.696  53.119  0.00  0.00     0.123 A 
ATOM     15  C   UNL d   1      61.876  49.679  52.577  0.00  0.00     0.029 A 
ATOM     16  C   UNL d   1      61.565  49.676  51.838  0.00  0.00     0.027 A 
ENDBRANCH   5  12
BRANCH   4  17
ATOM     17  S   UNL d   1      58.019  49.689  51.049  0.00  0.00    -0.061 SA
BRANCH  17  18
ATOM     18  C   UNL d   1      57.477  49.705  50.464  0.00  0.00     0.105 C 
BRANCH  18  19
ATOM     19  C   UNL d   1      56.788  49.327  50.546  0.00  0.00     0.303 C 
ATOM     20  O   UNL d   1      56.451  49.371  50.984  0.00  0.00    -0.259 OA
BRANCH  19  21
ATOM     21  O   UNL d   1      56.530  48.836  49.965  0.00  0.00    -0.295 OA
ATOM     22  C   UNL d   1      56.559  48.043  50.067  0.00  0.00     0.185 C 
ENDBRANCH  19  21
ENDBRANCH  18  19
ENDBRANCH  17  18
ENDBRANCH   4  17
TORSDOF 5
ENDMDL
