MODEL 1
REMARK VINA RESULT:      -0.8      0.000      0.000
REMARK  6 active torsions:
REMARK  status: ('A' for Active; 'I' for Inactive)
REMARK       I    between atoms: N_6  and  C_1 
REMARK       I    between atoms: N_9  and  C_1 
REMARK    1  A    between atoms: N_2  and  C_3 
REMARK    2  A    between atoms: C_3  and  C_5 
REMARK    3  A    between atoms: C_7  and  C_3 
REMARK    4  A    between atoms: C_16  and  N_4 
REMARK    5  A    between atoms: C_5  and  N_6 
REMARK    6  A    between atoms: C_19  and  N_9 
ROOT
ATOM      1  C   UNL d   1      58.732  -0.294  29.894  0.00  0.00     0.088 C 
ENDROOT
BRANCH   1   2
ATOM      2  N   UNL d   1      58.220  -0.198  30.538  0.00  0.00    -0.300 N 
ATOM      3  C   UNL d   1      58.197  -0.767  31.132  0.00  0.00     0.100 A 
ATOM      4  C   UNL d   1      57.690  -0.672  31.770  0.00  0.00     0.100 A 
ATOM      5  N   UNL d   1      57.196  -0.008  31.827  0.00  0.00    -0.301 N 
ATOM      6  C   UNL d   1      57.227   0.570  31.212  0.00  0.00     0.100 A 
ATOM      7  C   UNL d   1      57.737   0.463  30.583  0.00  0.00     0.100 A 
BRANCH   5   8
ATOM      8  C   UNL d   1      56.688   0.099  32.453  0.00  0.00     0.064 A 
ATOM      9  C   UNL d   1      56.968   0.205  33.217  0.00  0.00     0.018 A 
ATOM     10  C   UNL d   1      56.444   0.313  33.847  0.00  0.00     0.002 A 
ATOM     11  C   UNL d   1      55.626   0.315  33.706  0.00  0.00     0.000 A 
ATOM     12  C   UNL d   1      55.341   0.209  32.934  0.00  0.00     0.002 A 
ATOM     13  C   UNL d   1      55.871   0.101  32.311  0.00  0.00     0.018 A 
ENDBRANCH   5   8
ENDBRANCH   1   2
BRANCH   1  14
ATOM     14  C   UNL d   1      58.513  -0.764  29.256  0.00  0.00     0.103 C 
ATOM     15  C   UNL d   1      57.935  -0.506  28.740  0.00  0.00     0.022 C 
BRANCH  14  16
ATOM     16  N   UNL d   1      58.881  -1.490  29.145  0.00  0.00    -0.190 NA
ATOM     17  C   UNL d   1      58.482  -2.097  28.747  0.00  0.00     0.369 C 
ATOM     18  N   UNL d   1      58.849  -2.823  28.636  0.00  0.00    -0.191 NA
ATOM     19  O   UNL d   1      57.721  -1.966  28.468  0.00  0.00    -0.242 OA
BRANCH  18  20
ATOM     20  C   UNL d   1      59.614  -2.954  28.918  0.00  0.00     0.086 A 
ATOM     21  C   UNL d   1      59.719  -3.286  29.674  0.00  0.00     0.019 A 
ATOM     22  C   UNL d   1      60.478  -3.417  29.956  0.00  0.00     0.002 A 
ATOM     23  C   UNL d   1      61.133  -3.222  29.494  0.00  0.00     0.000 A 
ATOM     24  C   UNL d   1      61.023  -2.893  28.746  0.00  0.00     0.002 A 
ATOM     25  C   UNL d   1      60.259  -2.758  28.455  0.00  0.00     0.019 A 
ENDBRANCH  18  20
ENDBRANCH  14  16
ENDBRANCH   1  14
BRANCH   1  26
ATOM     26  C   UNL d   1      59.462   0.084  29.896  0.00  0.00     0.047 A 
ATOM     27  S   UNL d   1      59.907   0.295  30.560  0.00  0.00    -0.085 SA
ATOM     28  C   UNL d   1      60.598   0.660  30.303  0.00  0.00     0.035 A 
ATOM     29  C   UNL d   1      60.587   0.679  29.476  0.00  0.00     0.007 A 
ATOM     30  C   UNL d   1      59.886   0.324  29.227  0.00  0.00     0.009 A 
ENDBRANCH   1  26
TORSDOF 6
ENDMDL
MODEL 2
REMARK VINA RESULT:       1.1      0.813      1.233
REMARK  6 active torsions:
REMARK  status: ('A' for Active; 'I' for Inactive)
REMARK       I    between atoms: N_6  and  C_1 
REMARK       I    between atoms: N_9  and  C_1 
REMARK    1  A    between atoms: N_2  and  C_3 
REMARK    2  A    between atoms: C_3  and  C_5 
REMARK    3  A    between atoms: C_7  and  C_3 
REMARK    4  A    between atoms: C_16  and  N_4 
REMARK    5  A    between atoms: C_5  and  N_6 
REMARK    6  A    between atoms: C_19  and  N_9 
ROOT
ATOM      1  C   UNL d   1      58.951   0.309  30.448  0.00  0.00     0.088 C 
ENDROOT
BRANCH   1   2
ATOM      2  N   UNL d   1      58.375   0.354  31.042  0.00  0.00    -0.300 N 
ATOM      3  C   UNL d   1      58.597   0.527  31.816  0.00  0.00     0.100 A 
ATOM      4  C   UNL d   1      58.028   0.573  32.404  0.00  0.00     0.100 A 
ATOM      5  N   UNL d   1      57.225   0.446  32.232  0.00  0.00    -0.301 N 
ATOM      6  C   UNL d   1      57.008   0.269  31.435  0.00  0.00     0.100 A 
ATOM      7  C   UNL d   1      57.587   0.228  30.859  0.00  0.00     0.100 A 
BRANCH   5   8
ATOM      8  C   UNL d   1      56.650   0.488  32.805  0.00  0.00     0.064 A 
ATOM      9  C   UNL d   1      55.853   0.507  32.609  0.00  0.00     0.018 A 
ATOM     10  C   UNL d   1      55.275   0.549  33.199  0.00  0.00     0.002 A 
ATOM     11  C   UNL d   1      55.502   0.572  33.996  0.00  0.00     0.000 A 
ATOM     12  C   UNL d   1      56.307   0.553  34.196  0.00  0.00     0.002 A 
ATOM     13  C   UNL d   1      56.877   0.511  33.602  0.00  0.00     0.018 A 
ENDBRANCH   5   8
ENDBRANCH   1   2
BRANCH   1  14
ATOM     14  C   UNL d   1      58.736   0.125  29.675  0.00  0.00     0.103 C 
ATOM     15  C   UNL d   1      58.355   0.682  29.215  0.00  0.00     0.022 C 
BRANCH  14  16
ATOM     16  N   UNL d   1      58.909  -0.620  29.375  0.00  0.00    -0.190 NA
ATOM     17  C   UNL d   1      58.451  -0.933  28.760  0.00  0.00     0.369 C 
ATOM     18  N   UNL d   1      58.624  -1.677  28.460  0.00  0.00    -0.191 NA
ATOM     19  O   UNL d   1      57.828  -0.493  28.455  0.00  0.00    -0.242 OA
BRANCH  18  20
ATOM     20  C   UNL d   1      59.251  -2.119  28.767  0.00  0.00     0.086 A 
ATOM     21  C   UNL d   1      60.029  -1.938  28.535  0.00  0.00     0.019 A 
ATOM     22  C   UNL d   1      60.653  -2.375  28.838  0.00  0.00     0.002 A 
ATOM     23  C   UNL d   1      60.511  -2.989  29.369  0.00  0.00     0.000 A 
ATOM     24  C   UNL d   1      59.737  -3.164  29.596  0.00  0.00     0.002 A 
ATOM     25  C   UNL d   1      59.103  -2.727  29.293  0.00  0.00     0.019 A 
ENDBRANCH  18  20
ENDBRANCH  14  16
ENDBRANCH   1  14
BRANCH   1  26
ATOM     26  C   UNL d   1      59.739   0.449  30.634  0.00  0.00     0.047 A 
ATOM     27  S   UNL d   1      60.360   0.559  30.101  0.00  0.00    -0.085 SA
ATOM     28  C   UNL d   1      61.051   0.682  30.529  0.00  0.00     0.035 A 
ATOM     29  C   UNL d   1      60.863   0.649  31.334  0.00  0.00     0.007 A 
ATOM     30  C   UNL d   1      60.054   0.505  31.397  0.00  0.00     0.009 A 
ENDBRANCH   1  26
TORSDOF 6
ENDMDL
