MODEL 1
REMARK VINA RESULT:      38.0      0.000      0.000
REMARK  3 active torsions:
REMARK  status: ('A' for Active; 'I' for Inactive)
REMARK    1  A    between atoms: C_8  and  C_1 
REMARK    2  A    between atoms: N_7  and  C_8 
REMARK    3  A    between atoms: C_13  and  C_8 
ROOT
ATOM      1  C   UNL d   1      45.928 -18.291  43.435  0.00  0.00     0.075 C 
ENDROOT
BRANCH   1   2
ATOM      2  N   UNL d   1      45.811 -17.568  43.807  0.00  0.00    -0.303 N 
ATOM      3  C   UNL d   1      46.174 -16.891  43.526  0.00  0.00     0.080 A 
ATOM      4  C   UNL d   1      46.052 -16.168  43.905  0.00  0.00     0.018 A 
ATOM      5  C   UNL d   1      46.415 -15.490  43.623  0.00  0.00     0.002 C 
ATOM      6  C   UNL d   1      45.563 -16.122  44.569  0.00  0.00     0.003 A 
ATOM      7  C   UNL d   1      45.203 -16.811  44.842  0.00  0.00     0.019 A 
ATOM      8  C   UNL d   1      45.323 -17.535  44.466  0.00  0.00     0.080 A 
ENDBRANCH   1   2
BRANCH   1   9
ATOM      9  C   UNL d   1      45.945 -18.323  42.611  0.00  0.00     0.106 A 
ATOM     10  C   UNL d   1      45.282 -18.335  42.108  0.00  0.00     0.290 A 
ATOM     11  N   UNL d   1      45.551 -18.368  41.331  0.00  0.00    -0.169 N 
ATOM     12  O   UNL d   1      44.492 -18.317  42.351  0.00  0.00    -0.265 OA
ATOM     13  N   UNL d   1      45.317 -18.395  40.548  0.00  0.00    -0.138 NA
ATOM     14  C   UNL d   1      46.376 -18.376  41.350  0.00  0.00     0.200 A 
ATOM     15  C   UNL d   1      45.991 -18.421  40.076  0.00  0.00     0.222 A 
ATOM     16  N   UNL d   1      46.646 -18.409  40.573  0.00  0.00    -0.197 NA
ATOM     17  S   UNL d   1      46.619 -18.349  42.134  0.00  0.00    -0.042 SA
ENDBRANCH   1   9
BRANCH   1  18
ATOM     18  C   UNL d   1      46.027 -18.975  43.874  0.00  0.00     0.017 A 
ATOM     19  C   UNL d   1      45.616 -19.648  43.676  0.00  0.00     0.002 A 
ATOM     20  C   UNL d   1      45.720 -20.317  44.113  0.00  0.00     0.000 A 
ATOM     21  C   UNL d   1      46.244 -20.328  44.766  0.00  0.00     0.000 A 
ATOM     22  C   UNL d   1      46.646 -19.659  44.954  0.00  0.00     0.000 A 
ATOM     23  C   UNL d   1      46.548 -18.967  44.514  0.00  0.00     0.002 A 
ENDBRANCH   1  18
TORSDOF 3
ENDMDL
