MODEL 1
REMARK VINA RESULT:      -2.0      0.000      0.000
REMARK  4 active torsions:
REMARK  status: ('A' for Active; 'I' for Inactive)
REMARK    1  A    between atoms: C_13  and  C_2 
REMARK       I    between atoms: N_7  and  C_8 
REMARK    2  A    between atoms: C_8  and  C_15 
REMARK    3  A    between atoms: S_14  and  C_10 
REMARK    4  A    between atoms: C_15  and  S_14 
ROOT
ATOM      1  N   UNL d   1      31.427  16.731 -23.911  0.00  0.00    -0.191 N 
ATOM      2  C   UNL d   1      30.637  16.513 -23.895  0.00  0.00     0.187 A 
ATOM      3  N   UNL d   1      30.594  15.754 -23.585  0.00  0.00    -0.127 NA
ATOM      4  C   UNL d   1      31.882  16.119 -23.614  0.00  0.00     0.187 A 
ATOM      5  N   UNL d   1      31.804  17.436 -24.167  0.00  0.00    -0.156 NA
ATOM      6  N   UNL d   1      31.361  15.503 -23.408  0.00  0.00    -0.127 NA
ATOM      7  C   UNL d   1      32.624  17.508 -24.119  0.00  0.00     0.131 A 
ATOM      8  C   UNL d   1      32.703  16.191 -23.565  0.00  0.00     0.043 A 
ATOM      9  C   UNL d   1      33.074  16.885 -23.818  0.00  0.00     0.031 A 
ENDROOT
BRANCH   7  10
ATOM     10  S   UNL d   1      32.995  18.202 -24.371  0.00  0.00    -0.061 SA
BRANCH  10  11
ATOM     11  C   UNL d   1      32.963  18.878 -23.902  0.00  0.00     0.098 C 
BRANCH  11  12
ATOM     12  C   UNL d   1      33.033  19.611 -24.245  0.00  0.00     0.271 C 
ATOM     13  N   UNL d   1      33.102  20.279 -23.770  0.00  0.00    -0.273 N 
ATOM     14  C   UNL d   1      33.100  20.203 -22.955  0.00  0.00     0.067 A 
ATOM     15  C   UNL d   1      33.172  21.019 -24.124  0.00  0.00     0.083 A 
ATOM     16  C   UNL d   1      33.169  20.869 -22.490  0.00  0.00     0.016 A 
ATOM     17  C   UNL d   1      33.030  19.461 -22.611  0.00  0.00     0.018 A 
ATOM     18  C   UNL d   1      33.168  20.803 -21.665  0.00  0.00     0.001 A 
ATOM     19  C   UNL d   1      33.240  21.614 -22.822  0.00  0.00     0.003 A 
ATOM     20  C   UNL d   1      33.098  20.060 -21.308  0.00  0.00     0.000 A 
ATOM     21  C   UNL d   1      33.028  19.383 -21.787  0.00  0.00     0.002 A 
ATOM     22  C   UNL d   1      33.240  21.679 -23.651  0.00  0.00     0.019 A 
ATOM     23  O   UNL d   1      33.035  19.688 -25.067  0.00  0.00    -0.266 OA
ENDBRANCH  11  12
ENDBRANCH  10  11
ENDBRANCH   7  10
BRANCH   2  24
ATOM     24  C   UNL d   1      29.999  16.963 -24.142  0.00  0.00     0.038 A 
ATOM     25  C   UNL d   1      29.610  16.783 -24.840  0.00  0.00     0.003 A 
ATOM     26  C   UNL d   1      28.965  17.237 -25.092  0.00  0.00     0.000 A 
ATOM     27  C   UNL d   1      28.717  17.877 -24.630  0.00  0.00     0.000 A 
ATOM     28  C   UNL d   1      29.106  18.063 -23.927  0.00  0.00     0.000 A 
ATOM     29  C   UNL d   1      29.751  17.604 -23.681  0.00  0.00     0.003 A 
ENDBRANCH   2  24
TORSDOF 4
ENDMDL
MODEL 2
REMARK VINA RESULT:      -1.1      1.876      3.200
REMARK  4 active torsions:
REMARK  status: ('A' for Active; 'I' for Inactive)
REMARK    1  A    between atoms: C_13  and  C_2 
REMARK       I    between atoms: N_7  and  C_8 
REMARK    2  A    between atoms: C_8  and  C_15 
REMARK    3  A    between atoms: S_14  and  C_10 
REMARK    4  A    between atoms: C_15  and  S_14 
ROOT
ATOM      1  N   UNL d   1      32.511  18.847 -23.836  0.00  0.00    -0.191 N 
ATOM      2  C   UNL d   1      32.258  18.186 -24.249  0.00  0.00     0.187 A 
ATOM      3  N   UNL d   1      32.511  18.264 -25.026  0.00  0.00    -0.127 NA
ATOM      4  C   UNL d   1      32.922  19.341 -24.344  0.00  0.00     0.187 A 
ATOM      5  N   UNL d   1      32.417  19.070 -23.033  0.00  0.00    -0.156 NA
ATOM      6  N   UNL d   1      32.923  18.977 -25.093  0.00  0.00    -0.127 NA
ATOM      7  C   UNL d   1      32.736  19.781 -22.760  0.00  0.00     0.131 A 
ATOM      8  C   UNL d   1      33.241  20.052 -24.071  0.00  0.00     0.043 A 
ATOM      9  C   UNL d   1      33.148  20.271 -23.280  0.00  0.00     0.031 A 
ENDROOT
BRANCH   7  10
ATOM     10  S   UNL d   1      32.644  20.000 -21.969  0.00  0.00    -0.061 SA
BRANCH  10  11
ATOM     11  C   UNL d   1      32.871  20.752 -21.723  0.00  0.00     0.098 C 
BRANCH  11  12
ATOM     12  C   UNL d   1      33.041  20.886 -20.940  0.00  0.00     0.271 C 
ATOM     13  N   UNL d   1      33.012  21.653 -20.641  0.00  0.00    -0.273 N 
ATOM     14  C   UNL d   1      32.814  22.275 -21.133  0.00  0.00     0.067 A 
ATOM     15  C   UNL d   1      33.185  21.781 -19.847  0.00  0.00     0.083 A 
ATOM     16  C   UNL d   1      32.787  23.032 -20.832  0.00  0.00     0.016 A 
ATOM     17  C   UNL d   1      32.643  22.137 -21.925  0.00  0.00     0.018 A 
ATOM     18  C   UNL d   1      32.588  23.669 -21.320  0.00  0.00     0.001 A 
ATOM     19  C   UNL d   1      32.956  23.182 -20.044  0.00  0.00     0.003 A 
ATOM     20  C   UNL d   1      32.414  23.541 -22.118  0.00  0.00     0.000 A 
ATOM     21  C   UNL d   1      32.442  22.767 -22.423  0.00  0.00     0.002 A 
ATOM     22  C   UNL d   1      33.156  22.541 -19.554  0.00  0.00     0.019 A 
ATOM     23  O   UNL d   1      33.241  20.258 -20.443  0.00  0.00    -0.266 OA
ENDBRANCH  11  12
ENDBRANCH  10  11
ENDBRANCH   7  10
BRANCH   2  24
ATOM     24  C   UNL d   1      31.828  17.556 -23.950  0.00  0.00     0.038 A 
ATOM     25  C   UNL d   1      32.208  16.940 -23.566  0.00  0.00     0.003 A 
ATOM     26  C   UNL d   1      31.777  16.303 -23.263  0.00  0.00     0.000 A 
ATOM     27  C   UNL d   1      30.954  16.294 -23.350  0.00  0.00     0.000 A 
ATOM     28  C   UNL d   1      30.567  16.912 -23.735  0.00  0.00     0.000 A 
ATOM     29  C   UNL d   1      31.005  17.547 -24.037  0.00  0.00     0.003 A 
ENDBRANCH   2  24
TORSDOF 4
ENDMDL
MODEL 3
REMARK VINA RESULT:      -0.5      1.388      5.019
REMARK  4 active torsions:
REMARK  status: ('A' for Active; 'I' for Inactive)
REMARK    1  A    between atoms: C_13  and  C_2 
REMARK       I    between atoms: N_7  and  C_8 
REMARK    2  A    between atoms: C_8  and  C_15 
REMARK    3  A    between atoms: S_14  and  C_10 
REMARK    4  A    between atoms: C_15  and  S_14 
ROOT
ATOM      1  N   UNL d   1      32.903  21.373 -22.945  0.00  0.00    -0.191 N 
ATOM      2  C   UNL d   1      32.741  21.905 -22.343  0.00  0.00     0.187 A 
ATOM      3  N   UNL d   1      32.732  22.657 -22.669  0.00  0.00    -0.127 NA
ATOM      4  C   UNL d   1      32.996  21.782 -23.648  0.00  0.00     0.187 A 
ATOM      5  N   UNL d   1      32.980  20.537 -22.943  0.00  0.00    -0.156 NA
ATOM      6  N   UNL d   1      32.889  22.590 -23.477  0.00  0.00    -0.127 NA
ATOM      7  C   UNL d   1      33.149  20.135 -23.644  0.00  0.00     0.131 A 
ATOM      8  C   UNL d   1      33.165  21.380 -24.349  0.00  0.00     0.043 A 
ATOM      9  C   UNL d   1      33.241  20.558 -24.347  0.00  0.00     0.031 A 
ENDROOT
BRANCH   7  10
ATOM     10  S   UNL d   1      33.225  19.313 -23.641  0.00  0.00    -0.061 SA
BRANCH  10  11
ATOM     11  C   UNL d   1      32.557  18.840 -23.546  0.00  0.00     0.098 C 
BRANCH  11  12
ATOM     12  C   UNL d   1      32.633  18.093 -23.237  0.00  0.00     0.271 C 
ATOM     13  N   UNL d   1      32.111  17.499 -23.468  0.00  0.00    -0.273 N 
ATOM     14  C   UNL d   1      31.518  17.665 -24.007  0.00  0.00     0.067 A 
ATOM     15  C   UNL d   1      32.193  16.745 -23.150  0.00  0.00     0.083 A 
ATOM     16  C   UNL d   1      31.004  17.074 -24.232  0.00  0.00     0.016 A 
ATOM     17  C   UNL d   1      31.443  18.421 -24.319  0.00  0.00     0.018 A 
ATOM     18  C   UNL d   1      30.401  17.230 -24.776  0.00  0.00     0.001 A 
ATOM     19  C   UNL d   1      31.069  16.316 -23.927  0.00  0.00     0.003 A 
ATOM     20  C   UNL d   1      30.317  17.988 -25.096  0.00  0.00     0.000 A 
ATOM     21  C   UNL d   1      30.845  18.589 -24.864  0.00  0.00     0.002 A 
ATOM     22  C   UNL d   1      31.674  16.160 -23.380  0.00  0.00     0.019 A 
ATOM     23  O   UNL d   1      33.231  17.925 -22.692  0.00  0.00    -0.266 OA
ENDBRANCH  11  12
ENDBRANCH  10  11
ENDBRANCH   7  10
BRANCH   2  24
ATOM     24  C   UNL d   1      32.610  21.726 -21.554  0.00  0.00     0.038 A 
ATOM     25  C   UNL d   1      33.241  21.594 -21.048  0.00  0.00     0.003 A 
ATOM     26  C   UNL d   1      33.112  21.413 -20.252  0.00  0.00     0.000 A 
ATOM     27  C   UNL d   1      32.335  21.368 -19.969  0.00  0.00     0.000 A 
ATOM     28  C   UNL d   1      31.697  21.501 -20.474  0.00  0.00     0.000 A 
ATOM     29  C   UNL d   1      31.834  21.681 -21.271  0.00  0.00     0.003 A 
ENDBRANCH   2  24
TORSDOF 4
ENDMDL
MODEL 4
REMARK VINA RESULT:       0.3      1.446      4.924
REMARK  4 active torsions:
REMARK  status: ('A' for Active; 'I' for Inactive)
REMARK    1  A    between atoms: C_13  and  C_2 
REMARK       I    between atoms: N_7  and  C_8 
REMARK    2  A    between atoms: C_8  and  C_15 
REMARK    3  A    between atoms: S_14  and  C_10 
REMARK    4  A    between atoms: C_15  and  S_14 
ROOT
ATOM      1  N   UNL d   1      33.106  20.885 -21.850  0.00  0.00    -0.191 N 
ATOM      2  C   UNL d   1      33.045  21.679 -21.657  0.00  0.00     0.187 A 
ATOM      3  N   UNL d   1      33.049  21.738 -20.838  0.00  0.00    -0.127 NA
ATOM      4  C   UNL d   1      33.149  20.443 -21.162  0.00  0.00     0.187 A 
ATOM      5  N   UNL d   1      33.130  20.494 -22.592  0.00  0.00    -0.156 NA
ATOM      6  N   UNL d   1      33.113  20.977 -20.524  0.00  0.00    -0.127 NA
ATOM      7  C   UNL d   1      33.196  19.671 -22.624  0.00  0.00     0.131 A 
ATOM      8  C   UNL d   1      33.215  19.621 -21.194  0.00  0.00     0.043 A 
ATOM      9  C   UNL d   1      33.238  19.236 -21.925  0.00  0.00     0.031 A 
ENDROOT
BRANCH   7  10
ATOM     10  S   UNL d   1      33.219  19.286 -23.355  0.00  0.00    -0.061 SA
BRANCH  10  11
ATOM     11  C   UNL d   1      32.842  18.560 -23.447  0.00  0.00     0.098 C 
BRANCH  11  12
ATOM     12  C   UNL d   1      32.293  18.462 -24.037  0.00  0.00     0.271 C 
ATOM     13  N   UNL d   1      32.052  17.704 -24.251  0.00  0.00    -0.273 N 
ATOM     14  C   UNL d   1      32.367  17.054 -23.868  0.00  0.00     0.067 A 
ATOM     15  C   UNL d   1      31.495  17.613 -24.849  0.00  0.00     0.083 A 
ATOM     16  C   UNL d   1      32.125  16.306 -24.083  0.00  0.00     0.016 A 
ATOM     17  C   UNL d   1      32.922  17.155 -23.271  0.00  0.00     0.018 A 
ATOM     18  C   UNL d   1      32.436  15.641 -23.703  0.00  0.00     0.001 A 
ATOM     19  C   UNL d   1      31.571  16.193 -24.676  0.00  0.00     0.003 A 
ATOM     20  C   UNL d   1      32.996  15.731 -23.101  0.00  0.00     0.000 A 
ATOM     21  C   UNL d   1      33.241  16.497 -22.884  0.00  0.00     0.002 A 
ATOM     22  C   UNL d   1      31.259  16.862 -25.058  0.00  0.00     0.019 A 
ATOM     23  O   UNL d   1      31.975  19.119 -24.424  0.00  0.00    -0.266 OA
ENDBRANCH  11  12
ENDBRANCH  10  11
ENDBRANCH   7  10
BRANCH   2  24
ATOM     24  C   UNL d   1      32.989  22.307 -22.180  0.00  0.00     0.038 A 
ATOM     25  C   UNL d   1      33.241  22.226 -22.955  0.00  0.00     0.003 A 
ATOM     26  C   UNL d   1      33.185  22.858 -23.485  0.00  0.00     0.000 A 
ATOM     27  C   UNL d   1      32.871  23.578 -23.223  0.00  0.00     0.000 A 
ATOM     28  C   UNL d   1      32.616  23.665 -22.444  0.00  0.00     0.000 A 
ATOM     29  C   UNL d   1      32.674  23.027 -21.918  0.00  0.00     0.003 A 
ENDBRANCH   2  24
TORSDOF 4
ENDMDL
