MODEL 1
REMARK VINA RESULT:      38.2      0.000      0.000
REMARK  3 active torsions:
REMARK  status: ('A' for Active; 'I' for Inactive)
REMARK    1  A    between atoms: C_4  and  C_1 
REMARK    2  A    between atoms: C_9  and  N_2 
REMARK    3  A    between atoms: C_8  and  N_3 
ROOT
ATOM      1  C   UNL d   1      45.942 -17.625  43.727  0.00  0.00     0.139 A 
ATOM      2  N   UNL d   1      46.030 -17.088  44.346  0.00  0.00    -0.290 N 
ATOM      3  N   UNL d   1      46.270 -18.346  43.957  0.00  0.00    -0.290 N 
ATOM      4  C   UNL d   1      46.409 -17.470  44.955  0.00  0.00     0.101 A 
ATOM      5  C   UNL d   1      46.556 -18.238  44.721  0.00  0.00     0.101 A 
ENDROOT
BRANCH   2   6
ATOM      6  C   UNL d   1      45.807 -16.284  44.428  0.00  0.00     0.066 A 
ATOM      7  C   UNL d   1      46.294 -15.685  44.167  0.00  0.00     0.018 A 
ATOM      8  C   UNL d   1      46.073 -14.904  44.249  0.00  0.00     0.002 A 
ATOM      9  C   UNL d   1      45.349 -14.719  44.599  0.00  0.00     0.000 A 
ATOM     10  C   UNL d   1      44.861 -15.320  44.861  0.00  0.00     0.002 A 
ATOM     11  C   UNL d   1      45.082 -16.106  44.779  0.00  0.00     0.018 A 
ENDBRANCH   2   6
BRANCH   1  12
ATOM     12  C   UNL d   1      45.578 -17.442  43.004  0.00  0.00     0.063 A 
ATOM     13  S   UNL d   1      46.146 -17.574  42.383  0.00  0.00    -0.083 SA
ATOM     14  C   UNL d   1      45.772 -17.388  41.669  0.00  0.00     0.035 A 
ATOM     15  C   UNL d   1      45.006 -17.149  41.823  0.00  0.00     0.008 A 
ATOM     16  C   UNL d   1      44.875 -17.179  42.651  0.00  0.00     0.010 A 
ENDBRANCH   1  12
BRANCH   3  17
ATOM     17  C   UNL d   1      46.261 -18.988  43.450  0.00  0.00     0.066 A 
ATOM     18  C   UNL d   1      45.892 -19.691  43.664  0.00  0.00     0.018 A 
ATOM     19  C   UNL d   1      45.895 -20.329  43.136  0.00  0.00     0.002 A 
ATOM     20  C   UNL d   1      46.256 -20.273  42.411  0.00  0.00     0.000 A 
ATOM     21  C   UNL d   1      46.634 -19.567  42.178  0.00  0.00     0.002 A 
ATOM     22  C   UNL d   1      46.636 -18.926  42.699  0.00  0.00     0.018 A 
ENDBRANCH   3  17
TORSDOF 3
ENDMDL
MODEL 2
REMARK VINA RESULT:      39.0      1.072      3.852
REMARK  3 active torsions:
REMARK  status: ('A' for Active; 'I' for Inactive)
REMARK    1  A    between atoms: C_4  and  C_1 
REMARK    2  A    between atoms: C_9  and  N_2 
REMARK    3  A    between atoms: C_8  and  N_3 
ROOT
ATOM      1  C   UNL d   1      46.153 -17.722  43.011  0.00  0.00     0.139 A 
ATOM      2  N   UNL d   1      46.396 -18.013  42.279  0.00  0.00    -0.290 N 
ATOM      3  N   UNL d   1      46.178 -16.897  42.987  0.00  0.00    -0.290 N 
ATOM      4  C   UNL d   1      46.571 -17.378  41.804  0.00  0.00     0.101 A 
ATOM      5  C   UNL d   1      46.439 -16.695  42.232  0.00  0.00     0.101 A 
ENDROOT
BRANCH   2   6
ATOM      6  C   UNL d   1      46.480 -18.793  41.986  0.00  0.00     0.066 A 
ATOM      7  C   UNL d   1      46.481 -18.943  41.185  0.00  0.00     0.018 A 
ATOM      8  C   UNL d   1      46.563 -19.704  40.904  0.00  0.00     0.002 A 
ATOM      9  C   UNL d   1      46.646 -20.330  41.436  0.00  0.00     0.000 A 
ATOM     10  C   UNL d   1      46.646 -20.180  42.240  0.00  0.00     0.002 A 
ATOM     11  C   UNL d   1      46.563 -19.414  42.524  0.00  0.00     0.018 A 
ENDBRANCH   2   6
BRANCH   1  12
ATOM     12  C   UNL d   1      45.925 -18.202  43.648  0.00  0.00     0.063 A 
ATOM     13  S   UNL d   1      46.628 -18.557  43.975  0.00  0.00    -0.083 SA
ATOM     14  C   UNL d   1      46.388 -19.032  44.608  0.00  0.00     0.035 A 
ATOM     15  C   UNL d   1      45.576 -18.986  44.684  0.00  0.00     0.008 A 
ATOM     16  C   UNL d   1      45.278 -18.472  44.091  0.00  0.00     0.010 A 
ENDBRANCH   1  12
BRANCH   3  17
ATOM     17  C   UNL d   1      45.964 -16.455  43.641  0.00  0.00     0.066 A 
ATOM     18  C   UNL d   1      46.524 -16.231  44.200  0.00  0.00     0.018 A 
ATOM     19  C   UNL d   1      46.286 -15.783  44.856  0.00  0.00     0.002 A 
ATOM     20  C   UNL d   1      45.512 -15.560  44.954  0.00  0.00     0.000 A 
ATOM     21  C   UNL d   1      44.933 -15.779  44.396  0.00  0.00     0.002 A 
ATOM     22  C   UNL d   1      45.161 -16.226  43.740  0.00  0.00     0.018 A 
ENDBRANCH   3  17
TORSDOF 3
ENDMDL
