MODEL 1
REMARK VINA RESULT:      45.7      0.000      0.000
REMARK  6 active torsions:
REMARK  status: ('A' for Active; 'I' for Inactive)
REMARK    1  A    between atoms: N_2  and  C_1 
REMARK    2  A    between atoms: N_7  and  C_1 
REMARK    3  A    between atoms: C_5  and  C_3 
REMARK    4  A    between atoms: C_6  and  C_5 
REMARK       I    between atoms: N_8  and  C_6 
REMARK    5  A    between atoms: C_18  and  N_7 
REMARK    6  A    between atoms: C_9  and  N_8 
ROOT
ATOM      1  N   UNL d   1      13.356  12.373  -3.603  0.00  0.00    -0.278 N 
ATOM      2  C   UNL d   1      13.135  13.130  -3.826  0.00  0.00     0.127 A 
ATOM      3  C   UNL d   1      12.997  13.301  -4.636  0.00  0.00     0.274 A 
ATOM      4  N   UNL d   1      13.079  12.716  -5.210  0.00  0.00    -0.318 N 
ATOM      5  O   UNL d   1      12.776  14.060  -4.859  0.00  0.00    -0.266 OA
ATOM      6  C   UNL d   1      13.442  11.779  -4.168  0.00  0.00     0.101 A 
ATOM      7  C   UNL d   1      13.304  11.952  -4.966  0.00  0.00     0.094 A 
ATOM      8  H   UNL d   1      12.945  12.876  -6.008  0.00  0.00     0.169 HD
ENDROOT
BRANCH   2   9
ATOM      9  C   UNL d   1      13.051  13.715  -3.264  0.00  0.00     0.083 C 
BRANCH   9  10
ATOM     10  C   UNL d   1      13.461  14.421  -3.340  0.00  0.00     0.259 C 
ATOM     11  N   UNL d   1      13.830  14.756  -2.679  0.00  0.00    -0.321 N 
ATOM     12  H   UNL d   1      13.787  14.380  -1.942  0.00  0.00     0.169 HD
ATOM     13  O   UNL d   1      13.504  14.798  -4.076  0.00  0.00    -0.267 OA
BRANCH  11  14
ATOM     14  C   UNL d   1      14.238  15.465  -2.767  0.00  0.00     0.059 A 
ATOM     15  C   UNL d   1      14.682  15.756  -2.116  0.00  0.00     0.016 A 
ATOM     16  C   UNL d   1      15.092  16.464  -2.196  0.00  0.00     0.001 A 
ATOM     17  C   UNL d   1      14.707  15.339  -1.402  0.00  0.00     0.002 C 
ATOM     18  C   UNL d   1      15.067  16.888  -2.922  0.00  0.00     0.000 A 
ATOM     19  C   UNL d   1      14.626  16.599  -3.568  0.00  0.00     0.002 A 
ATOM     20  C   UNL d   1      15.482  17.601  -2.996  0.00  0.00     0.000 C 
ATOM     21  C   UNL d   1      14.211  15.879  -3.481  0.00  0.00     0.017 A 
ENDBRANCH  11  14
ENDBRANCH   9  10
ENDBRANCH   2   9
BRANCH   1  22
ATOM     22  C   UNL d   1      13.492  12.204  -2.809  0.00  0.00     0.184 C 
ATOM     23  S   UNL d   1      12.845  12.093  -2.313  0.00  0.00    -0.040 SA
BRANCH  22  24
ATOM     24  N   UNL d   1      14.262  12.151  -2.527  0.00  0.00    -0.331 N 
ATOM     25  H   UNL d   1      14.883  12.190  -3.063  0.00  0.00     0.168 HD
BRANCH  24  26
ATOM     26  C   UNL d   1      14.414  12.061  -1.726  0.00  0.00     0.058 A 
ATOM     27  C   UNL d   1      13.806  11.869  -1.209  0.00  0.00     0.017 A 
ATOM     28  C   UNL d   1      13.958  11.779  -0.408  0.00  0.00     0.002 A 
ATOM     29  C   UNL d   1      14.726  11.883  -0.127  0.00  0.00     0.000 A 
ATOM     30  C   UNL d   1      15.339  12.076  -0.644  0.00  0.00     0.002 A 
ATOM     31  C   UNL d   1      15.177  12.165  -1.447  0.00  0.00     0.017 A 
ENDBRANCH  24  26
ENDBRANCH  22  24
ENDBRANCH   1  22
TORSDOF 6
ENDMDL
MODEL 2
REMARK VINA RESULT:      47.7      1.613      3.192
REMARK  6 active torsions:
REMARK  status: ('A' for Active; 'I' for Inactive)
REMARK    1  A    between atoms: N_2  and  C_1 
REMARK    2  A    between atoms: N_7  and  C_1 
REMARK    3  A    between atoms: C_5  and  C_3 
REMARK    4  A    between atoms: C_6  and  C_5 
REMARK       I    between atoms: N_8  and  C_6 
REMARK    5  A    between atoms: C_18  and  N_7 
REMARK    6  A    between atoms: C_9  and  N_8 
ROOT
ATOM      1  N   UNL d   1      14.531  12.415  -1.525  0.00  0.00    -0.278 N 
ATOM      2  C   UNL d   1      14.678  13.034  -1.008  0.00  0.00     0.127 A 
ATOM      3  C   UNL d   1      15.372  13.025  -0.535  0.00  0.00     0.274 A 
ATOM      4  N   UNL d   1      15.907  12.401  -0.583  0.00  0.00    -0.318 N 
ATOM      5  O   UNL d   1      15.518  13.646  -0.018  0.00  0.00    -0.266 OA
ATOM      6  C   UNL d   1      15.059  11.784  -1.582  0.00  0.00     0.101 A 
ATOM      7  C   UNL d   1      15.742  11.779  -1.113  0.00  0.00     0.094 A 
ATOM      8  H   UNL d   1      16.589  12.384  -0.122  0.00  0.00     0.169 HD
ENDROOT
BRANCH   2   9
ATOM      9  C   UNL d   1      14.153  13.656  -0.954  0.00  0.00     0.083 C 
BRANCH   9  10
ATOM     10  C   UNL d   1      14.427  14.413  -0.796  0.00  0.00     0.259 C 
ATOM     11  N   UNL d   1      14.661  14.904  -1.420  0.00  0.00    -0.321 N 
ATOM     12  H   UNL d   1      14.620  14.634  -2.201  0.00  0.00     0.169 HD
ATOM     13  O   UNL d   1      14.468  14.684  -0.015  0.00  0.00    -0.267 OA
BRANCH  11  14
ATOM     14  C   UNL d   1      14.934  15.662  -1.250  0.00  0.00     0.059 A 
ATOM     15  C   UNL d   1      14.876  16.252  -1.844  0.00  0.00     0.016 A 
ATOM     16  C   UNL d   1      15.147  17.011  -1.682  0.00  0.00     0.001 A 
ATOM     17  C   UNL d   1      14.552  16.075  -2.584  0.00  0.00     0.002 C 
ATOM     18  C   UNL d   1      15.476  17.191  -0.929  0.00  0.00     0.000 A 
ATOM     19  C   UNL d   1      15.533  16.605  -0.339  0.00  0.00     0.002 A 
ATOM     20  C   UNL d   1      15.747  17.958  -0.771  0.00  0.00     0.000 C 
ATOM     21  C   UNL d   1      15.257  15.835  -0.509  0.00  0.00     0.017 A 
ENDBRANCH  11  14
ENDBRANCH   9  10
ENDBRANCH   2   9
BRANCH   1  22
ATOM     22  C   UNL d   1      13.852  12.423  -1.989  0.00  0.00     0.184 C 
ATOM     23  S   UNL d   1      13.213  12.880  -1.745  0.00  0.00    -0.040 SA
BRANCH  22  24
ATOM     24  N   UNL d   1      13.822  11.980  -2.680  0.00  0.00    -0.331 N 
ATOM     25  H   UNL d   1      14.134  11.220  -2.677  0.00  0.00     0.168 HD
BRANCH  24  26
ATOM     26  C   UNL d   1      13.488  12.284  -3.365  0.00  0.00     0.058 A 
ATOM     27  C   UNL d   1      13.282  11.784  -3.982  0.00  0.00     0.017 A 
ATOM     28  C   UNL d   1      12.948  12.087  -4.666  0.00  0.00     0.002 A 
ATOM     29  C   UNL d   1      12.822  12.899  -4.730  0.00  0.00     0.000 A 
ATOM     30  C   UNL d   1      13.029  13.405  -4.112  0.00  0.00     0.002 A 
ATOM     31  C   UNL d   1      13.363  13.091  -3.428  0.00  0.00     0.017 A 
ENDBRANCH  24  26
ENDBRANCH  22  24
ENDBRANCH   1  22
TORSDOF 6
ENDMDL
