MODEL 1
REMARK VINA RESULT:      -4.4      0.000      0.000
REMARK  3 active torsions:
REMARK  status: ('A' for Active; 'I' for Inactive)
REMARK    1  A    between atoms: C_11  and  N_2 
REMARK    2  A    between atoms: C_16  and  C_6 
REMARK    3  A    between atoms: C_12  and  C_11 
ROOT
ATOM      1  C   UNL d   1      57.734  -0.551  31.003  0.00  0.00     0.137 A 
ATOM      2  N   UNL d   1      58.594  -0.716  29.873  0.00  0.00    -0.256 N 
ATOM      3  C   UNL d   1      58.178   0.105  31.249  0.00  0.00     0.192 A 
ATOM      4  C   UNL d   1      57.942  -0.962  30.315  0.00  0.00     0.272 A 
ATOM      5  N   UNL d   1      58.827   0.350  30.810  0.00  0.00    -0.204 NA
ATOM      6  C   UNL d   1      59.040  -0.060  30.116  0.00  0.00     0.152 A 
ATOM      7  C   UNL d   1      57.080  -0.796  31.449  0.00  0.00     0.205 A 
ATOM      8  O   UNL d   1      57.966   0.509  31.934  0.00  0.00    -0.289 OA
ATOM      9  C   UNL d   1      56.873  -0.394  32.127  0.00  0.00     0.062 A 
ATOM     10  C   UNL d   1      57.312   0.259  32.375  0.00  0.00     0.105 A 
ATOM     11  O   UNL d   1      57.498  -1.614  30.074  0.00  0.00    -0.266 OA
ATOM     12  O   UNL d   1      56.641  -1.449  31.201  0.00  0.00    -0.286 OA
ATOM     13  C   UNL d   1      56.216  -0.642  32.571  0.00  0.00     0.005 A 
ATOM     14  C   UNL d   1      57.098   0.671  33.070  0.00  0.00     0.025 A 
ATOM     15  C   UNL d   1      56.008  -0.232  33.258  0.00  0.00     0.000 A 
ATOM     16  C   UNL d   1      56.448   0.422  33.507  0.00  0.00     0.002 A 
ENDROOT
BRANCH   2  17
ATOM     17  C   UNL d   1      58.795  -1.125  29.196  0.00  0.00     0.109 C 
BRANCH  17  18
ATOM     18  C   UNL d   1      58.919  -1.940  29.225  0.00  0.00     0.118 A 
ATOM     19  O   UNL d   1      59.429  -2.327  29.740  0.00  0.00    -0.304 OA
ATOM     20  C   UNL d   1      59.383  -3.128  29.581  0.00  0.00     0.123 A 
ATOM     21  C   UNL d   1      58.844  -3.237  28.966  0.00  0.00     0.029 A 
ATOM     22  C   UNL d   1      58.561  -2.502  28.750  0.00  0.00     0.028 A 
ENDBRANCH  17  18
ENDBRANCH   2  17
BRANCH   6  23
ATOM     23  C   UNL d   1      59.694   0.188  29.675  0.00  0.00     0.035 A 
ATOM     24  C   UNL d   1      59.603   0.431  28.892  0.00  0.00     0.003 A 
ATOM     25  C   UNL d   1      60.253   0.677  28.455  0.00  0.00     0.000 A 
ATOM     26  C   UNL d   1      61.003   0.682  28.804  0.00  0.00     0.000 A 
ATOM     27  C   UNL d   1      61.094   0.440  29.587  0.00  0.00     0.000 A 
ATOM     28  C   UNL d   1      60.445   0.192  30.029  0.00  0.00     0.003 A 
ENDBRANCH   6  23
TORSDOF 3
ENDMDL
MODEL 2
REMARK VINA RESULT:      -3.8      0.912      2.464
REMARK  3 active torsions:
REMARK  status: ('A' for Active; 'I' for Inactive)
REMARK    1  A    between atoms: C_11  and  N_2 
REMARK    2  A    between atoms: C_16  and  C_6 
REMARK    3  A    between atoms: C_12  and  C_11 
ROOT
ATOM      1  C   UNL d   1      57.600  -0.689  30.710  0.00  0.00     0.137 A 
ATOM      2  N   UNL d   1      58.502  -1.055  29.664  0.00  0.00    -0.256 N 
ATOM      3  C   UNL d   1      57.540  -1.483  30.940  0.00  0.00     0.192 A 
ATOM      4  C   UNL d   1      58.082  -0.475  30.071  0.00  0.00     0.272 A 
ATOM      5  N   UNL d   1      57.959  -2.062  30.535  0.00  0.00    -0.204 NA
ATOM      6  C   UNL d   1      58.445  -1.851  29.892  0.00  0.00     0.152 A 
ATOM      7  C   UNL d   1      57.176  -0.108  31.121  0.00  0.00     0.205 A 
ATOM      8  O   UNL d   1      57.059  -1.690  31.576  0.00  0.00    -0.289 OA
ATOM      9  C   UNL d   1      56.701  -0.316  31.750  0.00  0.00     0.062 A 
ATOM     10  C   UNL d   1      56.638  -1.105  31.982  0.00  0.00     0.105 A 
ATOM     11  O   UNL d   1      58.138   0.317  29.846  0.00  0.00    -0.266 OA
ATOM     12  O   UNL d   1      57.238   0.681  30.889  0.00  0.00    -0.286 OA
ATOM     13  C   UNL d   1      56.277   0.269  32.160  0.00  0.00     0.005 A 
ATOM     14  C   UNL d   1      56.151  -1.317  32.627  0.00  0.00     0.025 A 
ATOM     15  C   UNL d   1      55.796   0.055  32.798  0.00  0.00     0.000 A 
ATOM     16  C   UNL d   1      55.733  -0.735  33.030  0.00  0.00     0.002 A 
ENDROOT
BRANCH   2  17
ATOM     17  C   UNL d   1      58.976  -0.838  29.035  0.00  0.00     0.109 C 
BRANCH  17  18
ATOM     18  C   UNL d   1      59.604  -0.316  29.150  0.00  0.00     0.118 A 
ATOM     19  O   UNL d   1      60.137  -0.339  29.776  0.00  0.00    -0.304 OA
ATOM     20  C   UNL d   1      60.667   0.276  29.676  0.00  0.00     0.123 A 
ATOM     21  C   UNL d   1      60.462   0.681  28.987  0.00  0.00     0.029 A 
ATOM     22  C   UNL d   1      59.807   0.313  28.666  0.00  0.00     0.028 A 
ENDBRANCH  17  18
ENDBRANCH   2  17
BRANCH   6  23
ATOM     23  C   UNL d   1      58.866  -2.434  29.485  0.00  0.00     0.035 A 
ATOM     24  C   UNL d   1      58.506  -2.867  28.882  0.00  0.00     0.003 A 
ATOM     25  C   UNL d   1      58.925  -3.446  28.478  0.00  0.00     0.000 A 
ATOM     26  C   UNL d   1      59.713  -3.596  28.679  0.00  0.00     0.000 A 
ATOM     27  C   UNL d   1      60.074  -3.163  29.282  0.00  0.00     0.000 A 
ATOM     28  C   UNL d   1      59.657  -2.582  29.689  0.00  0.00     0.003 A 
ENDBRANCH   6  23
TORSDOF 3
ENDMDL
