MODEL 1
REMARK VINA RESULT:      68.0      0.000      0.000
REMARK  3 active torsions:
REMARK  status: ('A' for Active; 'I' for Inactive)
REMARK    1  A    between atoms: C_9  and  C_1 
REMARK    2  A    between atoms: C_4  and  C_9 
REMARK       I    between atoms: N_5  and  C_4 
REMARK    3  A    between atoms: C_10  and  N_8 
ROOT
ATOM      1  C   UNL d   1     -55.126-101.749 -42.561  0.00  0.00     0.265 C 
ATOM      2  N   UNL d   1     -55.190-101.923 -41.757  0.00  0.00    -0.269 N 
ATOM      3  N   UNL d   1     -55.312-102.266 -40.131  0.00  0.00    -0.299 N 
ATOM      4  C   UNL d   1     -54.854-101.402 -41.195  0.00  0.00     0.102 A 
ATOM      5  C   UNL d   1     -55.576-102.598 -41.507  0.00  0.00     0.102 A 
ATOM      6  C   UNL d   1     -55.635-102.764 -40.701  0.00  0.00     0.100 A 
ATOM      7  C   UNL d   1     -54.913-101.569 -40.389  0.00  0.00     0.100 A 
ATOM      8  O   UNL d   1     -55.456-102.261 -43.116  0.00  0.00    -0.267 OA
ENDROOT
BRANCH   1   9
ATOM      9  C   UNL d   1     -54.733-101.062 -42.816  0.00  0.00     0.063 C 
BRANCH   9  10
ATOM     10  C   UNL d   1     -54.990-100.675 -43.502  0.00  0.00     0.024 A 
ATOM     11  C   UNL d   1     -55.307 -99.922 -43.527  0.00  0.00     0.080 A 
ATOM     12  N   UNL d   1     -55.490 -99.749 -44.316  0.00  0.00    -0.303 N 
ATOM     13  C   UNL d   1     -55.820 -99.052 -44.603  0.00  0.00     0.100 C 
ATOM     14  C   UNL d   1     -55.281-100.405 -44.767  0.00  0.00     0.064 A 
ATOM     15  C   UNL d   1     -54.975-100.970 -44.264  0.00  0.00     0.018 A 
ATOM     16  C   UNL d   1     -55.335-100.551 -45.581  0.00  0.00     0.018 A 
ATOM     17  C   UNL d   1     -54.718-101.692 -44.569  0.00  0.00     0.002 A 
ATOM     18  C   UNL d   1     -54.770-101.841 -45.371  0.00  0.00     0.000 A 
ATOM     19  C   UNL d   1     -55.078-101.271 -45.881  0.00  0.00     0.002 A 
ENDBRANCH   9  10
ENDBRANCH   1   9
BRANCH   3  20
ATOM     20  C   UNL d   1     -55.368-102.425 -39.336  0.00  0.00     0.092 A 
ATOM     21  C   UNL d   1     -56.079-102.303 -38.931  0.00  0.00     0.156 A 
ATOM     22  F   UNL d   1     -56.729-102.019 -39.337  0.00  0.00    -0.203 F 
ATOM     23  C   UNL d   1     -56.125-102.469 -38.122  0.00  0.00     0.031 A 
ATOM     24  C   UNL d   1     -55.457-102.756 -37.724  0.00  0.00     0.002 A 
ATOM     25  C   UNL d   1     -54.757-102.876 -38.127  0.00  0.00     0.002 A 
ATOM     26  C   UNL d   1     -54.715-102.709 -38.935  0.00  0.00     0.020 A 
ENDBRANCH   3  20
TORSDOF 3
ENDMDL
