MODEL 1
REMARK VINA RESULT:      -6.5      0.000      0.000
REMARK  3 active torsions:
REMARK  status: ('A' for Active; 'I' for Inactive)
REMARK    1  A    between atoms: N_2  and  S_1 
REMARK    2  A    between atoms: C_4  and  S_1 
REMARK    3  A    between atoms: C_3  and  N_2 
ROOT
ATOM      1  N   UNL d   1     -41.848-122.004 -52.473  0.00  0.00    -0.157 NA
ENDROOT
BRANCH   1   2
ATOM      2  S   UNL d   1     -41.832-122.249 -51.685  0.00  0.00     0.285 S 
ATOM      3  O   UNL d   1     -41.123-121.845 -51.573  0.00  0.00    -0.198 OA
ATOM      4  O   UNL d   1     -42.548-122.658 -51.790  0.00  0.00    -0.198 OA
BRANCH   2   5
ATOM      5  C   UNL d   1     -41.818-122.494 -50.897  0.00  0.00     0.105 A 
ATOM      6  C   UNL d   1     -42.499-122.415 -50.423  0.00  0.00     0.013 A 
ATOM      7  C   UNL d   1     -42.484-122.661 -49.635  0.00  0.00     0.001 A 
ATOM      8  C   UNL d   1     -41.798-122.985 -49.314  0.00  0.00     0.000 A 
ATOM      9  C   UNL d   1     -41.123-123.065 -49.781  0.00  0.00     0.001 A 
ATOM     10  C   UNL d   1     -41.791-123.230 -48.523  0.00  0.00     0.000 C 
ATOM     11  C   UNL d   1     -41.134-122.820 -50.570  0.00  0.00     0.013 A 
ENDBRANCH   2   5
ENDBRANCH   1   2
BRANCH   1  12
ATOM     12  C   UNL d   1     -41.652-122.535 -53.073  0.00  0.00     0.111 A 
ATOM     13  C   UNL d   1     -41.788-122.337 -53.864  0.00  0.00     0.100 A 
ATOM     14  N   UNL d   1     -42.125-121.597 -54.056  0.00  0.00    -0.242 NA
ATOM     15  C   UNL d   1     -41.592-122.868 -54.464  0.00  0.00     0.019 A 
ATOM     16  C   UNL d   1     -42.262-121.396 -54.850  0.00  0.00     0.099 A 
ATOM     17  C   UNL d   1     -42.066-121.927 -55.450  0.00  0.00     0.021 A 
ATOM     18  C   UNL d   1     -41.732-122.661 -55.259  0.00  0.00     0.003 A 
ATOM     19  C   UNL d   1     -41.260-123.598 -54.276  0.00  0.00     0.002 A 
ATOM     20  C   UNL d   1     -41.123-123.799 -53.487  0.00  0.00     0.002 A 
ATOM     21  C   UNL d   1     -41.318-123.268 -52.887  0.00  0.00     0.021 A 
ENDBRANCH   1  12
TORSDOF 3
ENDMDL
MODEL 2
REMARK VINA RESULT:      -6.0      1.334      2.083
REMARK  3 active torsions:
REMARK  status: ('A' for Active; 'I' for Inactive)
REMARK    1  A    between atoms: N_2  and  S_1 
REMARK    2  A    between atoms: C_4  and  S_1 
REMARK    3  A    between atoms: C_3  and  N_2 
ROOT
ATOM      1  N   UNL d   1     -41.860-123.585 -51.105  0.00  0.00    -0.157 NA
ENDROOT
BRANCH   1   2
ATOM      2  S   UNL d   1     -41.943-123.508 -50.288  0.00  0.00     0.285 S 
ATOM      3  O   UNL d   1     -41.143-123.685 -50.190  0.00  0.00    -0.198 OA
ATOM      4  O   UNL d   1     -42.749-123.330 -50.378  0.00  0.00    -0.198 OA
BRANCH   2   5
ATOM      5  C   UNL d   1     -42.027-123.432 -49.471  0.00  0.00     0.105 A 
ATOM      6  C   UNL d   1     -41.396-123.633 -48.966  0.00  0.00     0.013 A 
ATOM      7  C   UNL d   1     -41.480-123.556 -48.148  0.00  0.00     0.001 A 
ATOM      8  C   UNL d   1     -42.187-123.281 -47.828  0.00  0.00     0.000 A 
ATOM      9  C   UNL d   1     -42.814-123.080 -48.325  0.00  0.00     0.001 A 
ATOM     10  C   UNL d   1     -42.265-123.206 -47.006  0.00  0.00     0.000 C 
ATOM     11  C   UNL d   1     -42.733-123.155 -49.144  0.00  0.00     0.013 A 
ENDBRANCH   2   5
ENDBRANCH   1   2
BRANCH   1  12
ATOM     12  C   UNL d   1     -41.614-122.939 -51.557  0.00  0.00     0.111 A 
ATOM     13  C   UNL d   1     -41.537-123.010 -52.376  0.00  0.00     0.100 A 
ATOM     14  N   UNL d   1     -41.708-123.738 -52.749  0.00  0.00    -0.242 NA
ATOM     15  C   UNL d   1     -41.291-122.365 -52.828  0.00  0.00     0.019 A 
ATOM     16  C   UNL d   1     -41.630-123.811 -53.573  0.00  0.00     0.099 A 
ATOM     17  C   UNL d   1     -41.385-123.166 -54.024  0.00  0.00     0.021 A 
ATOM     18  C   UNL d   1     -41.216-122.444 -53.653  0.00  0.00     0.003 A 
ATOM     19  C   UNL d   1     -41.123-121.646 -52.461  0.00  0.00     0.002 A 
ATOM     20  C   UNL d   1     -41.199-121.571 -51.643  0.00  0.00     0.002 A 
ATOM     21  C   UNL d   1     -41.444-122.217 -51.191  0.00  0.00     0.021 A 
ENDBRANCH   1  12
TORSDOF 3
ENDMDL
MODEL 3
REMARK VINA RESULT:      -5.9      1.425      4.618
REMARK  3 active torsions:
REMARK  status: ('A' for Active; 'I' for Inactive)
REMARK    1  A    between atoms: N_2  and  S_1 
REMARK    2  A    between atoms: C_4  and  S_1 
REMARK    3  A    between atoms: C_3  and  N_2 
ROOT
ATOM      1  N   UNL d   1     -41.145-122.967 -50.223  0.00  0.00    -0.157 NA
ENDROOT
BRANCH   1   2
ATOM      2  S   UNL d   1     -41.163-122.987 -51.048  0.00  0.00     0.285 S 
ATOM      3  O   UNL d   1     -41.123-122.164 -51.069  0.00  0.00    -0.198 OA
ATOM      4  O   UNL d   1     -41.203-123.817 -51.035  0.00  0.00    -0.198 OA
BRANCH   2   5
ATOM      5  C   UNL d   1     -41.181-123.009 -51.872  0.00  0.00     0.105 A 
ATOM      6  C   UNL d   1     -41.219-122.300 -52.307  0.00  0.00     0.013 A 
ATOM      7  C   UNL d   1     -41.237-122.322 -53.133  0.00  0.00     0.001 A 
ATOM      8  C   UNL d   1     -41.217-123.043 -53.529  0.00  0.00     0.000 A 
ATOM      9  C   UNL d   1     -41.179-123.748 -53.102  0.00  0.00     0.001 A 
ATOM     10  C   UNL d   1     -41.235-123.058 -54.358  0.00  0.00     0.000 C 
ATOM     11  C   UNL d   1     -41.161-123.729 -52.275  0.00  0.00     0.013 A 
ENDBRANCH   2   5
ENDBRANCH   1   2
BRANCH   1  12
ATOM     12  C   UNL d   1     -41.850-122.944 -49.796  0.00  0.00     0.111 A 
ATOM     13  C   UNL d   1     -41.855-123.125 -48.990  0.00  0.00     0.100 A 
ATOM     14  N   UNL d   1     -41.144-123.332 -48.606  0.00  0.00    -0.242 NA
ATOM     15  C   UNL d   1     -42.561-123.101 -48.563  0.00  0.00     0.019 A 
ATOM     16  C   UNL d   1     -41.146-123.515 -47.796  0.00  0.00     0.099 A 
ATOM     17  C   UNL d   1     -41.851-123.491 -47.369  0.00  0.00     0.021 A 
ATOM     18  C   UNL d   1     -42.557-123.285 -47.751  0.00  0.00     0.003 A 
ATOM     19  C   UNL d   1     -43.264-122.896 -48.941  0.00  0.00     0.002 A 
ATOM     20  C   UNL d   1     -43.263-122.715 -49.746  0.00  0.00     0.002 A 
ATOM     21  C   UNL d   1     -42.558-122.738 -50.173  0.00  0.00     0.021 A 
ENDBRANCH   1  12
TORSDOF 3
ENDMDL
