MODEL 1
REMARK VINA RESULT:      21.1      0.000      0.000
REMARK  3 active torsions:
REMARK  status: ('A' for Active; 'I' for Inactive)
REMARK    1  A    between atoms: C_2  and  C_1 
REMARK       I    between atoms: N_7  and  C_2 
REMARK    2  A    between atoms: C_9  and  N_7 
REMARK    3  A    between atoms: O_16  and  C_10 
ROOT
ATOM      1  C   UNL d   1      46.340 -18.880  44.278  0.00  0.00     0.280 C 
ATOM      2  N   UNL d   1      46.073 -18.394  44.887  0.00  0.00    -0.208 NA
ATOM      3  O   UNL d   1      46.505 -19.679  44.435  0.00  0.00    -0.265 OA
ENDROOT
BRANCH   1   4
ATOM      4  C   UNL d   1      46.443 -18.579  43.518  0.00  0.00     0.065 A 
ATOM      5  C   UNL d   1      46.478 -19.016  42.822  0.00  0.00     0.011 A 
ATOM      6  C   UNL d   1      46.586 -18.487  42.203  0.00  0.00     0.030 A 
ATOM      7  C   UNL d   1      46.425 -19.828  42.670  0.00  0.00     0.001 A 
ATOM      8  C   UNL d   1      46.642 -18.766  41.423  0.00  0.00     0.006 A 
ATOM      9  S   UNL d   1      46.618 -17.728  42.512  0.00  0.00    -0.086 SA
ATOM     10  C   UNL d   1      46.590 -19.565  41.273  0.00  0.00     0.001 A 
ATOM     11  C   UNL d   1      46.481 -20.099  41.895  0.00  0.00     0.000 A 
ATOM     12  C   UNL d   1      46.529 -17.795  43.331  0.00  0.00     0.040 A 
ENDBRANCH   1   4
BRANCH   2  13
ATOM     13  C   UNL d   1      45.908 -17.599  44.730  0.00  0.00     0.085 A 
ATOM     14  C   UNL d   1      45.204 -17.394  44.359  0.00  0.00     0.021 A 
ATOM     15  C   UNL d   1      45.035 -16.593  44.200  0.00  0.00     0.026 A 
ATOM     16  C   UNL d   1      45.573 -16.006  44.414  0.00  0.00     0.094 A 
ATOM     17  C   UNL d   1      46.280 -16.219  44.787  0.00  0.00     0.026 A 
ATOM     18  C   UNL d   1      46.447 -17.011  44.944  0.00  0.00     0.021 A 
BRANCH  16  19
ATOM     19  O   UNL d   1      45.391 -15.209  44.248  0.00  0.00    -0.328 OA
ATOM     20  C   UNL d   1      45.424 -14.639  44.844  0.00  0.00     0.181 C 
ENDBRANCH  16  19
ENDBRANCH   2  13
TORSDOF 3
ENDMDL
MODEL 2
REMARK VINA RESULT:      23.6      2.153      4.860
REMARK  3 active torsions:
REMARK  status: ('A' for Active; 'I' for Inactive)
REMARK    1  A    between atoms: C_2  and  C_1 
REMARK       I    between atoms: N_7  and  C_2 
REMARK    2  A    between atoms: C_9  and  N_7 
REMARK    3  A    between atoms: O_16  and  C_10 
ROOT
ATOM      1  C   UNL d   1      44.157 -14.215  44.592  0.00  0.00     0.280 C 
ATOM      2  N   UNL d   1      44.043 -15.029  44.531  0.00  0.00    -0.208 NA
ATOM      3  O   UNL d   1      43.511 -13.724  44.769  0.00  0.00    -0.265 OA
ENDROOT
BRANCH   1   4
ATOM      4  C   UNL d   1      44.906 -13.889  44.479  0.00  0.00     0.065 A 
ATOM      5  C   UNL d   1      45.094 -13.269  43.972  0.00  0.00     0.011 A 
ATOM      6  C   UNL d   1      45.901 -13.131  44.041  0.00  0.00     0.030 A 
ATOM      7  C   UNL d   1      44.637 -12.812  43.456  0.00  0.00     0.001 A 
ATOM      8  C   UNL d   1      46.259 -12.531  43.592  0.00  0.00     0.006 A 
ATOM      9  S   UNL d   1      46.210 -13.660  44.586  0.00  0.00    -0.086 SA
ATOM     10  C   UNL d   1      45.810 -12.081  43.084  0.00  0.00     0.001 A 
ATOM     11  C   UNL d   1      44.997 -12.219  43.013  0.00  0.00     0.000 A 
ATOM     12  C   UNL d   1      45.584 -14.127  44.854  0.00  0.00     0.040 A 
ENDBRANCH   1   4
BRANCH   2  13
ATOM     13  C   UNL d   1      44.687 -15.518  44.354  0.00  0.00     0.085 A 
ATOM     14  C   UNL d   1      44.826 -15.742  43.576  0.00  0.00     0.021 A 
ATOM     15  C   UNL d   1      45.474 -16.235  43.395  0.00  0.00     0.026 A 
ATOM     16  C   UNL d   1      45.976 -16.497  43.995  0.00  0.00     0.094 A 
ATOM     17  C   UNL d   1      45.829 -16.267  44.777  0.00  0.00     0.026 A 
ATOM     18  C   UNL d   1      45.189 -15.780  44.955  0.00  0.00     0.021 A 
BRANCH  16  19
ATOM     19  O   UNL d   1      46.620 -16.989  43.799  0.00  0.00    -0.328 OA
ATOM     20  C   UNL d   1      46.515 -17.635  43.296  0.00  0.00     0.181 C 
ENDBRANCH  16  19
ENDBRANCH   2  13
TORSDOF 3
ENDMDL
