MODEL 1
REMARK VINA RESULT:      61.9      0.000      0.000
REMARK  8 active torsions:
REMARK  status: ('A' for Active; 'I' for Inactive)
REMARK    1  A    between atoms: C_5  and  C_1 
REMARK    2  A    between atoms: N_6  and  C_2 
REMARK    3  A    between atoms: C_7  and  C_5 
REMARK    4  A    between atoms: C_8  and  C_5 
REMARK    5  A    between atoms: O_12  and  C_7 
REMARK    6  A    between atoms: C_14  and  O_12 
REMARK    7  A    between atoms: C_19  and  C_14 
REMARK    8  A    between atoms: C_20  and  C_19 
ROOT
ATOM      1  C   UNL d   1      59.182  49.280  50.954  0.00  0.00     0.122 A 
ATOM      2  C   UNL d   1      59.069  49.491  51.740  0.00  0.00     0.166 A 
ATOM      3  N   UNL d   1      58.302  49.633  52.018  0.00  0.00    -0.225 NA
ATOM      4  N   UNL d   1      58.537  49.210  50.442  0.00  0.00    -0.241 NA
ATOM      5  C   UNL d   1      57.660  49.564  51.511  0.00  0.00     0.101 A 
ATOM      6  C   UNL d   1      57.777  49.352  50.721  0.00  0.00     0.099 A 
ATOM      7  C   UNL d   1      56.900  49.705  51.789  0.00  0.00     0.021 A 
ATOM      8  C   UNL d   1      57.135  49.282  50.214  0.00  0.00     0.021 A 
ATOM      9  C   UNL d   1      56.369  49.422  50.484  0.00  0.00     0.002 A 
ATOM     10  C   UNL d   1      56.255  49.635  51.278  0.00  0.00     0.002 A 
ENDROOT
BRANCH   1  11
ATOM     11  C   UNL d   1      59.952  49.136  50.668  0.00  0.00     0.105 C 
BRANCH  11  12
ATOM     12  C   UNL d   1      60.346  48.444  50.872  0.00  0.00     0.303 C 
ATOM     13  O   UNL d   1      60.223  48.098  51.608  0.00  0.00    -0.259 OA
BRANCH  12  14
ATOM     14  O   UNL d   1      60.870  48.096  50.333  0.00  0.00    -0.271 OA
BRANCH  14  15
ATOM     15  C   UNL d   1      61.288  47.439  50.079  0.00  0.00     0.126 C 
BRANCH  15  16
ATOM     16  C   UNL d   1      61.127  46.705  50.403  0.00  0.00     0.025 C 
ATOM     17  C   UNL d   1      60.469  46.610  50.879  0.00  0.00     0.002 C 
BRANCH  16  18
ATOM     18  C   UNL d   1      61.627  46.069  50.247  0.00  0.00     0.002 C 
ATOM     19  C   UNL d   1      61.819  45.873  49.468  0.00  0.00     0.000 C 
ENDBRANCH  16  18
ENDBRANCH  15  16
ENDBRANCH  14  15
ENDBRANCH  12  14
ENDBRANCH  11  12
BRANCH  11  20
ATOM     20  C   UNL d   1      60.323  49.695  50.173  0.00  0.00     0.129 C 
ATOM     21  N   UNL d   1      60.346  49.602  49.223  0.00  0.00    -0.146 N 
ENDBRANCH  11  20
ENDBRANCH   1  11
BRANCH   2  22
ATOM     22  N   UNL d   1      59.714  49.562  52.255  0.00  0.00    -0.288 N 
ATOM     23  C   UNL d   1      59.583  49.564  53.069  0.00  0.00     0.082 A 
ATOM     24  C   UNL d   1      60.231  49.636  53.582  0.00  0.00     0.019 A 
ATOM     25  C   UNL d   1      61.001  49.704  53.279  0.00  0.00     0.003 A 
ATOM     26  C   UNL d   1      61.122  49.702  52.461  0.00  0.00     0.019 A 
ATOM     27  C   UNL d   1      60.484  49.631  51.952  0.00  0.00     0.082 A 
ENDBRANCH   2  22
TORSDOF 8
ENDMDL
