MODEL 1
REMARK VINA RESULT:      26.1      0.000      0.000
REMARK  5 active torsions:
REMARK  status: ('A' for Active; 'I' for Inactive)
REMARK    1  A    between atoms: N_2  and  S_1 
REMARK    2  A    between atoms: C_5  and  S_1 
REMARK    3  A    between atoms: S_6  and  C_3 
REMARK    4  A    between atoms: C_15  and  S_6 
REMARK    5  A    between atoms: C_14  and  C_15 
ROOT
ATOM      1  N   UNL d   1      45.745 -15.928  43.833  0.00  0.00    -0.208 N 
ATOM      2  C   UNL d   1      46.109 -16.666  43.722  0.00  0.00     0.189 A 
ATOM      3  N   UNL d   1      46.642 -16.598  43.095  0.00  0.00    -0.219 NA
ATOM      4  C   UNL d   1      46.057 -15.402  43.270  0.00  0.00     0.114 A 
ATOM      5  C   UNL d   1      46.607 -15.818  42.819  0.00  0.00     0.121 A 
ENDROOT
BRANCH   1   6
ATOM      6  S   UNL d   1      45.172 -15.751  44.406  0.00  0.00     0.273 S 
ATOM      7  O   UNL d   1      44.558 -15.823  44.955  0.00  0.00    -0.200 OA
ATOM      8  O   UNL d   1      44.970 -16.544  44.396  0.00  0.00    -0.200 OA
BRANCH   6   9
ATOM      9  C   UNL d   1      45.362 -14.948  44.429  0.00  0.00     0.104 A 
ATOM     10  C   UNL d   1      44.947 -14.424  43.952  0.00  0.00     0.013 A 
ATOM     11  C   UNL d   1      45.141 -13.621  43.979  0.00  0.00     0.001 A 
ATOM     12  C   UNL d   1      45.742 -13.351  44.478  0.00  0.00     0.000 A 
ATOM     13  C   UNL d   1      46.153 -13.887  44.954  0.00  0.00     0.001 A 
ATOM     14  C   UNL d   1      45.932 -12.547  44.502  0.00  0.00     0.000 C 
ATOM     15  C   UNL d   1      45.960 -14.690  44.928  0.00  0.00     0.013 A 
ENDBRANCH   6   9
ENDBRANCH   1   6
BRANCH   2  16
ATOM     16  S   UNL d   1      45.961 -17.354  44.166  0.00  0.00    -0.049 SA
BRANCH  16  17
ATOM     17  C   UNL d   1      46.569 -17.891  44.301  0.00  0.00     0.040 C 
BRANCH  17  18
ATOM     18  C   UNL d   1      46.421 -18.699  44.249  0.00  0.00     0.026 A 
ATOM     19  C   UNL d   1      46.271 -19.143  44.945  0.00  0.00     0.099 A 
ATOM     20  N   UNL d   1      46.121 -19.949  44.909  0.00  0.00    -0.242 NA
ATOM     21  C   UNL d   1      46.120 -20.317  44.173  0.00  0.00     0.099 A 
ATOM     22  C   UNL d   1      46.267 -19.887  43.487  0.00  0.00     0.021 A 
ATOM     23  C   UNL d   1      46.417 -19.078  43.527  0.00  0.00     0.004 A 
ENDBRANCH  17  18
ENDBRANCH  16  17
ENDBRANCH   2  16
TORSDOF 5
ENDMDL
MODEL 2
REMARK VINA RESULT:      28.8      1.135      4.540
REMARK  5 active torsions:
REMARK  status: ('A' for Active; 'I' for Inactive)
REMARK    1  A    between atoms: N_2  and  S_1 
REMARK    2  A    between atoms: C_5  and  S_1 
REMARK    3  A    between atoms: S_6  and  C_3 
REMARK    4  A    between atoms: C_15  and  S_6 
REMARK    5  A    between atoms: C_14  and  C_15 
ROOT
ATOM      1  N   UNL d   1      45.666 -17.148  43.809  0.00  0.00    -0.208 N 
ATOM      2  C   UNL d   1      45.535 -16.334  43.910  0.00  0.00     0.189 A 
ATOM      3  N   UNL d   1      45.050 -16.073  43.295  0.00  0.00    -0.219 NA
ATOM      4  C   UNL d   1      45.259 -17.389  43.126  0.00  0.00     0.114 A 
ATOM      5  C   UNL d   1      44.882 -16.726  42.814  0.00  0.00     0.121 A 
ENDROOT
BRANCH   1   6
ATOM      6  S   UNL d   1      46.124 -17.630  44.305  0.00  0.00     0.273 S 
ATOM      7  O   UNL d   1      46.552 -17.913  44.953  0.00  0.00    -0.200 OA
ATOM      8  O   UNL d   1      46.083 -17.033  44.863  0.00  0.00    -0.200 OA
BRANCH   6   9
ATOM      9  C   UNL d   1      46.175 -18.243  43.754  0.00  0.00     0.104 A 
ATOM     10  C   UNL d   1      45.810 -18.960  43.917  0.00  0.00     0.013 A 
ATOM     11  C   UNL d   1      45.864 -19.571  43.362  0.00  0.00     0.001 A 
ATOM     12  C   UNL d   1      46.279 -19.461  42.656  0.00  0.00     0.000 A 
ATOM     13  C   UNL d   1      46.644 -18.735  42.503  0.00  0.00     0.001 A 
ATOM     14  C   UNL d   1      46.331 -20.074  42.105  0.00  0.00     0.000 C 
ATOM     15  C   UNL d   1      46.590 -18.123  43.056  0.00  0.00     0.013 A 
ENDBRANCH   6   9
ENDBRANCH   1   6
BRANCH   2  16
ATOM     16  S   UNL d   1      45.840 -15.864  44.525  0.00  0.00    -0.049 SA
BRANCH  16  17
ATOM     17  C   UNL d   1      45.372 -15.275  44.860  0.00  0.00     0.040 C 
BRANCH  17  18
ATOM     18  C   UNL d   1      45.593 -14.486  44.787  0.00  0.00     0.026 A 
ATOM     19  C   UNL d   1      46.384 -14.256  44.947  0.00  0.00     0.099 A 
ATOM     20  N   UNL d   1      46.620 -13.473  44.878  0.00  0.00    -0.242 NA
ATOM     21  C   UNL d   1      46.063 -12.913  44.647  0.00  0.00     0.099 A 
ATOM     22  C   UNL d   1      45.286 -13.132  44.488  0.00  0.00     0.021 A 
ATOM     23  C   UNL d   1      45.053 -13.920  44.559  0.00  0.00     0.004 A 
ENDBRANCH  17  18
ENDBRANCH  16  17
ENDBRANCH   2  16
TORSDOF 5
ENDMDL
