MODEL 1
REMARK VINA RESULT:      51.2      0.000      0.000
REMARK  4 active torsions:
REMARK  status: ('A' for Active; 'I' for Inactive)
REMARK    1  A    between atoms: C_4  and  C_1 
REMARK    2  A    between atoms: C_9  and  N_2 
REMARK    3  A    between atoms: C_10  and  N_3 
REMARK    4  A    between atoms: O_15  and  C_12 
ROOT
ATOM      1  C   UNL d   1      14.122  14.050  -2.888  0.00  0.00     0.133 A 
ATOM      2  N   UNL d   1      13.749  13.788  -3.564  0.00  0.00    -0.290 N 
ATOM      3  N   UNL d   1      14.224  14.861  -2.956  0.00  0.00    -0.290 N 
ATOM      4  C   UNL d   1      13.907  15.091  -3.685  0.00  0.00     0.101 A 
ATOM      5  C   UNL d   1      13.628  14.449  -4.039  0.00  0.00     0.101 A 
ENDROOT
BRANCH   1   6
ATOM      6  C   UNL d   1      14.308  13.486  -2.313  0.00  0.00     0.036 A 
ATOM      7  C   UNL d   1      13.753  13.317  -1.711  0.00  0.00     0.047 A 
ATOM      8  C   UNL d   1      13.938  12.753  -1.138  0.00  0.00     0.218 A 
ATOM      9  O   UNL d   1      13.381  12.583  -0.533  0.00  0.00    -0.284 OA
ATOM     10  C   UNL d   1      14.664  12.366  -1.163  0.00  0.00     0.133 A 
ATOM     11  C   UNL d   1      15.208  12.537  -1.758  0.00  0.00     0.028 A 
ATOM     12  C   UNL d   1      15.023  13.097  -2.329  0.00  0.00     0.005 A 
BRANCH  10  13
ATOM     13  O   UNL d   1      14.857  11.791  -0.580  0.00  0.00    -0.325 OA
ATOM     14  C   UNL d   1      15.433  11.963  -0.015  0.00  0.00     0.181 C 
ENDBRANCH  10  13
ENDBRANCH   1   6
BRANCH   2  15
ATOM     15  C   UNL d   1      13.443  13.117  -3.962  0.00  0.00     0.066 A 
ATOM     16  C   UNL d   1      13.074  12.521  -3.539  0.00  0.00     0.018 A 
ATOM     17  C   UNL d   1      12.769  11.858  -3.908  0.00  0.00     0.002 A 
ATOM     18  C   UNL d   1      12.831  11.779  -4.735  0.00  0.00     0.000 A 
ATOM     19  C   UNL d   1      13.207  12.383  -5.176  0.00  0.00     0.002 A 
ATOM     20  C   UNL d   1      13.513  13.054  -4.781  0.00  0.00     0.018 A 
ENDBRANCH   2  15
BRANCH   3  21
ATOM     21  C   UNL d   1      14.553  15.449  -2.482  0.00  0.00     0.066 A 
ATOM     22  C   UNL d   1      14.618  15.351  -1.664  0.00  0.00     0.018 A 
ATOM     23  C   UNL d   1      14.939  15.925  -1.201  0.00  0.00     0.002 A 
ATOM     24  C   UNL d   1      15.219  16.641  -1.532  0.00  0.00     0.000 A 
ATOM     25  C   UNL d   1      15.154  16.739  -2.355  0.00  0.00     0.002 A 
ATOM     26  C   UNL d   1      14.825  16.150  -2.827  0.00  0.00     0.018 A 
ENDBRANCH   3  21
TORSDOF 4
ENDMDL
