MODEL 1
REMARK VINA RESULT:      39.9      0.000      0.000
REMARK  5 active torsions:
REMARK  status: ('A' for Active; 'I' for Inactive)
REMARK    1  A    between atoms: C_6  and  C_1 
REMARK    2  A    between atoms: C_7  and  C_6 
REMARK    3  A    between atoms: C_11  and  C_19 
REMARK    4  A    between atoms: O_18  and  C_17 
REMARK    5  A    between atoms: C_19  and  O_18 
ROOT
ATOM      1  C   UNL d   1     -54.932-101.828 -42.862  0.00  0.00     0.139 A 
ATOM      2  C   UNL d   1     -55.228-101.233 -44.028  0.00  0.00     0.064 A 
ATOM      3  C   UNL d   1     -54.992-101.941 -43.682  0.00  0.00     0.220 A 
ATOM      4  C   UNL d   1     -55.316-100.675 -43.426  0.00  0.00     0.105 A 
ATOM      5  O   UNL d   1     -55.132-101.046 -42.703  0.00  0.00    -0.304 OA
ATOM      6  C   UNL d   1     -55.550 -99.906 -43.603  0.00  0.00     0.049 A 
ATOM      7  C   UNL d   1     -55.374-101.024 -44.808  0.00  0.00     0.007 A 
ATOM      8  O   UNL d   1     -54.841-102.647 -44.079  0.00  0.00    -0.284 OA
ATOM      9  C   UNL d   1     -55.695 -99.702 -44.390  0.00  0.00     0.097 A 
ATOM     10  C   UNL d   1     -55.607-100.258 -44.989  0.00  0.00     0.025 A 
ENDROOT
BRANCH   1  11
ATOM     11  C   UNL d   1     -54.712-102.396 -42.303  0.00  0.00     0.034 C 
BRANCH  11  12
ATOM     12  C   UNL d   1     -54.747-102.222 -41.499  0.00  0.00     0.032 A 
ATOM     13  S   UNL d   1     -54.776-102.766 -40.884  0.00  0.00    -0.086 SA
ATOM     14  C   UNL d   1     -54.806-102.346 -40.168  0.00  0.00     0.035 A 
ATOM     15  C   UNL d   1     -54.795-101.541 -40.347  0.00  0.00     0.007 A 
ATOM     16  C   UNL d   1     -54.758-101.456 -41.171  0.00  0.00     0.007 A 
ENDBRANCH  11  12
ENDBRANCH   1  11
BRANCH   9  17
ATOM     17  O   UNL d   1     -55.930 -98.930 -44.565  0.00  0.00    -0.319 OA
BRANCH  17  18
ATOM     18  C   UNL d   1     -56.706 -98.790 -44.813  0.00  0.00     0.246 C 
BRANCH  18  19
ATOM     19  C   UNL d   1     -57.313 -98.778 -44.257  0.00  0.00     0.217 C 
ATOM     20  O   UNL d   1     -57.138 -98.763 -43.449  0.00  0.00    -0.645 OA
ATOM     21  O   UNL d   1     -58.151 -98.780 -44.521  0.00  0.00    -0.645 OA
ENDBRANCH  18  19
ENDBRANCH  17  18
ENDBRANCH   9  17
TORSDOF 5
ENDMDL
