MODEL 1
REMARK VINA RESULT:      -6.9      0.000      0.000
REMARK  6 active torsions:
REMARK  status: ('A' for Active; 'I' for Inactive)
REMARK    1  A    between atoms: S_2  and  C_1 
REMARK    2  A    between atoms: N_3  and  C_1 
REMARK    3  A    between atoms: C_4  and  C_1 
REMARK    4  A    between atoms: C_6  and  S_2 
REMARK       I    between atoms: C_5  and  N_3 
REMARK    5  A    between atoms: C_9  and  C_5 
REMARK    6  A    between atoms: O_23  and  C_17 
ROOT
ATOM      1  C   UNL d   1     -48.547  12.717  22.735  0.00  0.00     0.193 C 
ENDROOT
BRANCH   1   2
ATOM      2  S   UNL d   1     -49.043  13.351  22.884  0.00  0.00     0.228 S 
ATOM      3  O   UNL d   1     -48.953  13.608  22.100  0.00  0.00    -0.216 OA
ATOM      4  O   UNL d   1     -49.139  13.100  23.668  0.00  0.00    -0.216 OA
BRANCH   2   5
ATOM      5  C   UNL d   1     -49.549  13.999  23.030  0.00  0.00     0.089 A 
ATOM      6  C   UNL d   1     -49.237  14.753  23.083  0.00  0.00     0.011 A 
ATOM      7  C   UNL d   1     -49.738  15.393  23.228  0.00  0.00     0.001 A 
ATOM      8  C   UNL d   1     -50.549  15.271  23.318  0.00  0.00     0.000 A 
ATOM      9  C   UNL d   1     -50.859  14.508  23.264  0.00  0.00     0.001 A 
ATOM     10  C   UNL d   1     -51.059  15.919  23.465  0.00  0.00     0.000 C 
ATOM     11  C   UNL d   1     -50.360  13.876  23.120  0.00  0.00     0.011 A 
ENDBRANCH   2   5
ENDBRANCH   1   2
BRANCH   1  12
ATOM     12  N   UNL d   1     -47.787  12.854  22.443  0.00  0.00    -0.195 NA
ATOM     13  C   UNL d   1     -47.134  12.722  22.924  0.00  0.00     0.280 C 
ATOM     14  O   UNL d   1     -47.236  12.455  23.698  0.00  0.00    -0.265 OA
BRANCH  13  15
ATOM     15  C   UNL d   1     -46.369  12.860  22.628  0.00  0.00     0.058 A 
ATOM     16  C   UNL d   1     -45.783  12.286  22.714  0.00  0.00     0.007 A 
ATOM     17  C   UNL d   1     -45.024  12.423  22.419  0.00  0.00     0.024 A 
ATOM     18  C   UNL d   1     -44.854  13.134  22.041  0.00  0.00     0.094 A 
ATOM     19  C   UNL d   1     -45.441  13.708  21.956  0.00  0.00     0.024 A 
ATOM     20  C   UNL d   1     -46.196  13.572  22.249  0.00  0.00     0.007 A 
BRANCH  18  21
ATOM     21  O   UNL d   1     -44.086  13.268  21.746  0.00  0.00    -0.328 OA
ATOM     22  C   UNL d   1     -43.557  12.633  21.654  0.00  0.00     0.181 C 
ENDBRANCH  18  21
ENDBRANCH  13  15
ENDBRANCH   1  12
BRANCH   1  23
ATOM     23  C   UNL d   1     -48.803  11.946  22.876  0.00  0.00     0.144 C 
ATOM     24 CL   UNL d   1     -48.868  11.669  23.651  0.00  0.00    -0.068 Cl
ATOM     25 CL   UNL d   1     -48.992  11.453  22.247  0.00  0.00    -0.068 Cl
ENDBRANCH   1  23
TORSDOF 6
ENDMDL
MODEL 2
REMARK VINA RESULT:      -6.7      7.842      9.411
REMARK  6 active torsions:
REMARK  status: ('A' for Active; 'I' for Inactive)
REMARK    1  A    between atoms: S_2  and  C_1 
REMARK    2  A    between atoms: N_3  and  C_1 
REMARK    3  A    between atoms: C_4  and  C_1 
REMARK    4  A    between atoms: C_6  and  S_2 
REMARK       I    between atoms: C_5  and  N_3 
REMARK    5  A    between atoms: C_9  and  C_5 
REMARK    6  A    between atoms: O_23  and  C_17 
ROOT
ATOM      1  C   UNL d   1     -40.298  14.938  20.483  0.00  0.00     0.193 C 
ENDROOT
BRANCH   1   2
ATOM      2  S   UNL d   1     -39.839  14.706  21.119  0.00  0.00     0.228 S 
ATOM      3  O   UNL d   1     -39.404  15.410  21.065  0.00  0.00    -0.216 OA
ATOM      4  O   UNL d   1     -40.269  13.999  21.180  0.00  0.00    -0.216 OA
BRANCH   2   5
ATOM      5  C   UNL d   1     -39.367  14.474  21.769  0.00  0.00     0.089 A 
ATOM      6  C   UNL d   1     -39.271  13.679  21.937  0.00  0.00     0.011 A 
ATOM      7  C   UNL d   1     -38.804  13.450  22.578  0.00  0.00     0.001 A 
ATOM      8  C   UNL d   1     -38.438  14.023  23.047  0.00  0.00     0.000 A 
ATOM      9  C   UNL d   1     -38.538  14.823  22.873  0.00  0.00     0.001 A 
ATOM     10  C   UNL d   1     -37.964  13.793  23.698  0.00  0.00     0.000 C 
ATOM     11  C   UNL d   1     -39.001  15.046  22.237  0.00  0.00     0.011 A 
ENDBRANCH   2   5
ENDBRANCH   1   2
BRANCH   1  12
ATOM     12  N   UNL d   1     -39.964  14.975  19.730  0.00  0.00    -0.195 NA
ATOM     13  C   UNL d   1     -40.297  14.546  19.112  0.00  0.00     0.280 C 
ATOM     14  O   UNL d   1     -40.965  14.080  19.245  0.00  0.00    -0.265 OA
BRANCH  13  15
ATOM     15  C   UNL d   1     -39.959  14.584  18.354  0.00  0.00     0.058 A 
ATOM     16  C   UNL d   1     -39.983  15.289  17.925  0.00  0.00     0.007 A 
ATOM     17  C   UNL d   1     -39.647  15.325  17.172  0.00  0.00     0.024 A 
ATOM     18  C   UNL d   1     -39.288  14.659  16.851  0.00  0.00     0.094 A 
ATOM     19  C   UNL d   1     -39.263  13.954  17.280  0.00  0.00     0.024 A 
ATOM     20  C   UNL d   1     -39.598  13.917  18.030  0.00  0.00     0.007 A 
BRANCH  18  21
ATOM     21  O   UNL d   1     -38.950  14.701  16.090  0.00  0.00    -0.328 OA
ATOM     22  C   UNL d   1     -38.328  15.231  15.938  0.00  0.00     0.181 C 
ENDBRANCH  18  21
ENDBRANCH  13  15
ENDBRANCH   1  12
BRANCH   1  23
ATOM     23  C   UNL d   1     -41.092  15.134  20.592  0.00  0.00     0.144 C 
ATOM     24 CL   UNL d   1     -41.653  14.538  20.698  0.00  0.00    -0.068 Cl
ATOM     25 CL   UNL d   1     -41.325  15.922  20.596  0.00  0.00    -0.068 Cl
ENDBRANCH   1  23
TORSDOF 6
ENDMDL
MODEL 3
REMARK VINA RESULT:      -6.4      1.553      2.036
REMARK  6 active torsions:
REMARK  status: ('A' for Active; 'I' for Inactive)
REMARK    1  A    between atoms: S_2  and  C_1 
REMARK    2  A    between atoms: N_3  and  C_1 
REMARK    3  A    between atoms: C_4  and  C_1 
REMARK    4  A    between atoms: C_6  and  S_2 
REMARK       I    between atoms: C_5  and  N_3 
REMARK    5  A    between atoms: C_9  and  C_5 
REMARK    6  A    between atoms: O_23  and  C_17 
ROOT
ATOM      1  C   UNL d   1     -48.045  13.941  22.327  0.00  0.00     0.193 C 
ENDROOT
BRANCH   1   2
ATOM      2  S   UNL d   1     -48.643  13.455  22.603  0.00  0.00     0.228 S 
ATOM      3  O   UNL d   1     -48.711  13.108  21.853  0.00  0.00    -0.216 OA
ATOM      4  O   UNL d   1     -48.582  13.797  23.356  0.00  0.00    -0.216 OA
BRANCH   2   5
ATOM      5  C   UNL d   1     -49.254  12.957  22.880  0.00  0.00     0.089 A 
ATOM      6  C   UNL d   1     -49.811  13.250  23.403  0.00  0.00     0.011 A 
ATOM      7  C   UNL d   1     -50.414  12.757  23.676  0.00  0.00     0.001 A 
ATOM      8  C   UNL d   1     -50.453  11.973  23.422  0.00  0.00     0.000 A 
ATOM      9  C   UNL d   1     -49.889  11.683  22.894  0.00  0.00     0.001 A 
ATOM     10  C   UNL d   1     -51.064  11.471  23.697  0.00  0.00     0.000 C 
ATOM     11  C   UNL d   1     -49.293  12.173  22.626  0.00  0.00     0.011 A 
ENDBRANCH   2   5
ENDBRANCH   1   2
BRANCH   1  12
ATOM     12  N   UNL d   1     -47.314  13.615  22.126  0.00  0.00    -0.195 NA
ATOM     13  C   UNL d   1     -46.694  13.638  22.665  0.00  0.00     0.280 C 
ATOM     14  O   UNL d   1     -46.800  13.986  23.405  0.00  0.00    -0.265 OA
BRANCH  13  15
ATOM     15  C   UNL d   1     -45.958  13.309  22.461  0.00  0.00     0.058 A 
ATOM     16  C   UNL d   1     -45.749  12.560  22.736  0.00  0.00     0.007 A 
ATOM     17  C   UNL d   1     -45.018  12.234  22.533  0.00  0.00     0.024 A 
ATOM     18  C   UNL d   1     -44.499  12.659  22.056  0.00  0.00     0.094 A 
ATOM     19  C   UNL d   1     -44.708  13.408  21.781  0.00  0.00     0.024 A 
ATOM     20  C   UNL d   1     -45.436  13.733  21.983  0.00  0.00     0.007 A 
BRANCH  18  21
ATOM     21  O   UNL d   1     -43.762  12.325  21.854  0.00  0.00    -0.328 OA
ATOM     22  C   UNL d   1     -43.167  12.799  21.520  0.00  0.00     0.181 C 
ENDBRANCH  18  21
ENDBRANCH  13  15
ENDBRANCH   1  12
BRANCH   1  23
ATOM     23  C   UNL d   1     -48.171  14.753  22.249  0.00  0.00     0.144 C 
ATOM     24 CL   UNL d   1     -48.128  15.241  22.913  0.00  0.00    -0.068 Cl
ATOM     25 CL   UNL d   1     -48.337  15.075  21.512  0.00  0.00    -0.068 Cl
ENDBRANCH   1  23
TORSDOF 6
ENDMDL
MODEL 4
REMARK VINA RESULT:      -5.9      2.043      5.066
REMARK  6 active torsions:
REMARK  status: ('A' for Active; 'I' for Inactive)
REMARK    1  A    between atoms: S_2  and  C_1 
REMARK    2  A    between atoms: N_3  and  C_1 
REMARK    3  A    between atoms: C_4  and  C_1 
REMARK    4  A    between atoms: C_6  and  S_2 
REMARK       I    between atoms: C_5  and  N_3 
REMARK    5  A    between atoms: C_9  and  C_5 
REMARK    6  A    between atoms: O_23  and  C_17 
ROOT
ATOM      1  C   UNL d   1     -46.071  12.974  22.847  0.00  0.00     0.193 C 
ENDROOT
BRANCH   1   2
ATOM      2  S   UNL d   1     -45.631  12.305  23.011  0.00  0.00     0.228 S 
ATOM      3  O   UNL d   1     -46.079  12.175  23.697  0.00  0.00    -0.216 OA
ATOM      4  O   UNL d   1     -45.178  12.427  22.327  0.00  0.00    -0.216 OA
BRANCH   2   5
ATOM      5  C   UNL d   1     -45.184  11.620  23.183  0.00  0.00     0.089 A 
ATOM      6  C   UNL d   1     -44.381  11.610  23.029  0.00  0.00     0.011 A 
ATOM      7  C   UNL d   1     -43.940  10.933  23.199  0.00  0.00     0.001 A 
ATOM      8  C   UNL d   1     -44.310  10.271  23.523  0.00  0.00     0.000 A 
ATOM      9  C   UNL d   1     -45.121  10.286  23.677  0.00  0.00     0.001 A 
ATOM     10  C   UNL d   1     -43.865   9.583  23.697  0.00  0.00     0.000 C 
ATOM     11  C   UNL d   1     -45.554  10.958  23.507  0.00  0.00     0.011 A 
ENDBRANCH   2   5
ENDBRANCH   1   2
BRANCH   1  12
ATOM     12  N   UNL d   1     -46.896  12.931  22.846  0.00  0.00    -0.195 NA
ATOM     13  C   UNL d   1     -47.313  13.099  22.158  0.00  0.00     0.280 C 
ATOM     14  O   UNL d   1     -46.910  13.311  21.470  0.00  0.00    -0.265 OA
BRANCH  13  15
ATOM     15  C   UNL d   1     -48.143  13.055  22.158  0.00  0.00     0.058 A 
ATOM     16  C   UNL d   1     -48.586  13.583  22.611  0.00  0.00     0.007 A 
ATOM     17  C   UNL d   1     -49.410  13.538  22.610  0.00  0.00     0.024 A 
ATOM     18  C   UNL d   1     -49.788  12.966  22.157  0.00  0.00     0.094 A 
ATOM     19  C   UNL d   1     -49.346  12.437  21.703  0.00  0.00     0.024 A 
ATOM     20  C   UNL d   1     -48.525  12.481  21.703  0.00  0.00     0.007 A 
BRANCH  18  21
ATOM     21  O   UNL d   1     -50.621  12.925  22.159  0.00  0.00    -0.328 OA
ATOM     22  C   UNL d   1     -51.064  13.395  21.637  0.00  0.00     0.181 C 
ENDBRANCH  18  21
ENDBRANCH  13  15
ENDBRANCH   1  12
BRANCH   1  23
ATOM     23  C   UNL d   1     -45.696  13.690  22.684  0.00  0.00     0.144 C 
ATOM     24 CL   UNL d   1     -45.148  13.737  22.068  0.00  0.00    -0.068 Cl
ATOM     25 CL   UNL d   1     -45.866  14.357  23.133  0.00  0.00    -0.068 Cl
ENDBRANCH   1  23
TORSDOF 6
ENDMDL
MODEL 5
REMARK VINA RESULT:      -4.2      8.970      9.803
REMARK  6 active torsions:
REMARK  status: ('A' for Active; 'I' for Inactive)
REMARK    1  A    between atoms: S_2  and  C_1 
REMARK    2  A    between atoms: N_3  and  C_1 
REMARK    3  A    between atoms: C_4  and  C_1 
REMARK    4  A    between atoms: C_6  and  S_2 
REMARK       I    between atoms: C_5  and  N_3 
REMARK    5  A    between atoms: C_9  and  C_5 
REMARK    6  A    between atoms: O_23  and  C_17 
ROOT
ATOM      1  C   UNL d   1     -39.107  14.509  19.169  0.00  0.00     0.193 C 
ENDROOT
BRANCH   1   2
ATOM      2  S   UNL d   1     -39.122  14.764  19.946  0.00  0.00     0.228 S 
ATOM      3  O   UNL d   1     -38.980  15.542  19.696  0.00  0.00    -0.216 OA
ATOM      4  O   UNL d   1     -39.263  13.989  20.204  0.00  0.00    -0.216 OA
BRANCH   2   5
ATOM      5  C   UNL d   1     -39.136  15.029  20.738  0.00  0.00     0.089 A 
ATOM      6  C   UNL d   1     -39.853  15.187  21.100  0.00  0.00     0.011 A 
ATOM      7  C   UNL d   1     -39.866  15.449  21.883  0.00  0.00     0.001 A 
ATOM      8  C   UNL d   1     -39.159  15.551  22.296  0.00  0.00     0.000 A 
ATOM      9  C   UNL d   1     -38.439  15.390  21.926  0.00  0.00     0.001 A 
ATOM     10  C   UNL d   1     -39.171  15.817  23.090  0.00  0.00     0.000 C 
ATOM     11  C   UNL d   1     -38.430  15.131  21.151  0.00  0.00     0.011 A 
ENDBRANCH   2   5
ENDBRANCH   1   2
BRANCH   1  12
ATOM     12  N   UNL d   1     -39.588  14.878  18.608  0.00  0.00    -0.195 NA
ATOM     13  C   UNL d   1     -39.929  14.434  18.006  0.00  0.00     0.280 C 
ATOM     14  O   UNL d   1     -39.791  13.622  17.961  0.00  0.00    -0.265 OA
BRANCH  13  15
ATOM     15  C   UNL d   1     -40.413  14.807  17.443  0.00  0.00     0.058 A 
ATOM     16  C   UNL d   1     -41.228  14.851  17.562  0.00  0.00     0.007 A 
ATOM     17  C   UNL d   1     -41.708  15.222  17.001  0.00  0.00     0.024 A 
ATOM     18  C   UNL d   1     -41.371  15.546  16.325  0.00  0.00     0.094 A 
ATOM     19  C   UNL d   1     -40.556  15.502  16.205  0.00  0.00     0.024 A 
ATOM     20  C   UNL d   1     -40.077  15.133  16.763  0.00  0.00     0.007 A 
BRANCH  18  21
ATOM     21  O   UNL d   1     -41.860  15.919  15.762  0.00  0.00    -0.328 OA
ATOM     22  C   UNL d   1     -42.686  15.903  15.850  0.00  0.00     0.181 C 
ENDBRANCH  18  21
ENDBRANCH  13  15
ENDBRANCH   1  12
BRANCH   1  23
ATOM     23  C   UNL d   1     -38.614  13.887  18.944  0.00  0.00     0.144 C 
ATOM     24 CL   UNL d   1     -38.783  13.117  19.190  0.00  0.00    -0.068 Cl
ATOM     25 CL   UNL d   1     -37.954  14.032  18.476  0.00  0.00    -0.068 Cl
ENDBRANCH   1  23
TORSDOF 6
ENDMDL
MODEL 6
REMARK VINA RESULT:      -3.9      1.553      2.031
REMARK  6 active torsions:
REMARK  status: ('A' for Active; 'I' for Inactive)
REMARK    1  A    between atoms: S_2  and  C_1 
REMARK    2  A    between atoms: N_3  and  C_1 
REMARK    3  A    between atoms: C_4  and  C_1 
REMARK    4  A    between atoms: C_6  and  S_2 
REMARK       I    between atoms: C_5  and  N_3 
REMARK    5  A    between atoms: C_9  and  C_5 
REMARK    6  A    between atoms: O_23  and  C_17 
ROOT
ATOM      1  C   UNL d   1     -47.640  12.024  22.857  0.00  0.00     0.193 C 
ENDROOT
BRANCH   1   2
ATOM      2  S   UNL d   1     -47.911  12.793  22.783  0.00  0.00     0.228 S 
ATOM      3  O   UNL d   1     -48.230  12.611  22.039  0.00  0.00    -0.216 OA
ATOM      4  O   UNL d   1     -47.594  12.983  23.525  0.00  0.00    -0.216 OA
BRANCH   2   5
ATOM      5  C   UNL d   1     -48.189  13.576  22.702  0.00  0.00     0.089 A 
ATOM      6  C   UNL d   1     -48.857  13.725  22.254  0.00  0.00     0.011 A 
ATOM      7  C   UNL d   1     -49.131  14.500  22.175  0.00  0.00     0.001 A 
ATOM      8  C   UNL d   1     -48.732  15.119  22.545  0.00  0.00     0.000 A 
ATOM      9  C   UNL d   1     -48.058  14.964  22.995  0.00  0.00     0.001 A 
ATOM     10  C   UNL d   1     -49.008  15.906  22.466  0.00  0.00     0.000 C 
ATOM     11  C   UNL d   1     -47.789  14.196  23.072  0.00  0.00     0.011 A 
ENDBRANCH   2   5
ENDBRANCH   1   2
BRANCH   1  12
ATOM     12  N   UNL d   1     -46.828  11.876  22.865  0.00  0.00    -0.195 NA
ATOM     13  C   UNL d   1     -46.534  11.232  23.284  0.00  0.00     0.280 C 
ATOM     14  O   UNL d   1     -47.048  10.736  23.697  0.00  0.00    -0.265 OA
BRANCH  13  15
ATOM     15  C   UNL d   1     -45.716  11.084  23.290  0.00  0.00     0.058 A 
ATOM     16  C   UNL d   1     -45.198  11.606  22.918  0.00  0.00     0.007 A 
ATOM     17  C   UNL d   1     -44.385  11.458  22.925  0.00  0.00     0.024 A 
ATOM     18  C   UNL d   1     -44.096  10.788  23.304  0.00  0.00     0.094 A 
ATOM     19  C   UNL d   1     -44.614  10.266  23.677  0.00  0.00     0.024 A 
ATOM     20  C   UNL d   1     -45.422  10.413  23.670  0.00  0.00     0.007 A 
BRANCH  18  21
ATOM     21  O   UNL d   1     -43.275  10.643  23.308  0.00  0.00    -0.328 OA
ATOM     22  C   UNL d   1     -42.761  11.136  22.880  0.00  0.00     0.181 C 
ENDBRANCH  18  21
ENDBRANCH  13  15
ENDBRANCH   1  12
BRANCH   1  23
ATOM     23  C   UNL d   1     -48.175  11.400  22.925  0.00  0.00     0.144 C 
ATOM     24 CL   UNL d   1     -48.545  11.251  23.647  0.00  0.00    -0.068 Cl
ATOM     25 CL   UNL d   1     -48.339  10.925  22.274  0.00  0.00    -0.068 Cl
ENDBRANCH   1  23
TORSDOF 6
ENDMDL
