MODEL 1
REMARK VINA RESULT:      -2.1      0.000      0.000
REMARK  8 active torsions:
REMARK  status: ('A' for Active; 'I' for Inactive)
REMARK    1  A    between atoms: C_3  and  C_1 
REMARK    2  A    between atoms: N_4  and  C_2 
REMARK    3  A    between atoms: O_21  and  C_3 
REMARK       I    between atoms: C_11  and  N_4 
REMARK    4  A    between atoms: C_6  and  C_7 
REMARK    5  A    between atoms: O_22  and  C_6 
REMARK    6  A    between atoms: C_10  and  C_20 
REMARK    7  A    between atoms: C_19  and  C_11 
REMARK    8  A    between atoms: C_20  and  C_19 
ROOT
ATOM      1  C   UNL d   1      32.679  23.115 -21.345  0.00  0.00     0.081 A 
ATOM      2  C   UNL d   1      32.999  22.407 -21.072  0.00  0.00     0.090 A 
ATOM      3  C   UNL d   1      32.903  22.866 -19.728  0.00  0.00     0.065 A 
ATOM      4  C   UNL d   1      33.112  22.279 -20.268  0.00  0.00     0.025 A 
ATOM      5  C   UNL d   1      32.470  23.702 -20.806  0.00  0.00     0.007 A 
ATOM      6  C   UNL d   1      32.582  23.578 -19.997  0.00  0.00     0.006 A 
ENDROOT
BRANCH   2   7
ATOM      7  N   UNL d   1      33.205  21.824 -21.614  0.00  0.00    -0.208 NA
ATOM      8  C   UNL d   1      33.035  21.029 -21.451  0.00  0.00     0.279 C 
ATOM      9  O   UNL d   1      32.658  20.831 -20.742  0.00  0.00    -0.265 OA
BRANCH   8  10
ATOM     10  C   UNL d   1      33.240  20.446 -21.990  0.00  0.00     0.065 C 
BRANCH  10  11
ATOM     11  C   UNL d   1      32.749  19.786 -22.093  0.00  0.00     0.030 C 
BRANCH  11  12
ATOM     12  C   UNL d   1      32.884  19.267 -22.714  0.00  0.00     0.100 A 
ATOM     13  O   UNL d   1      32.803  19.436 -23.519  0.00  0.00    -0.307 OA
ATOM     14  C   UNL d   1      32.993  18.762 -23.936  0.00  0.00     0.100 A 
ATOM     15  C   UNL d   1      32.987  18.684 -24.757  0.00  0.00     0.027 C 
ATOM     16  C   UNL d   1      33.193  18.171 -23.405  0.00  0.00     0.027 A 
ATOM     17  C   UNL d   1      33.128  18.473 -22.653  0.00  0.00     0.027 A 
ENDBRANCH  11  12
ENDBRANCH  10  11
ENDBRANCH   8  10
ENDBRANCH   2   7
BRANCH   1  18
ATOM     18  C   UNL d   1      32.570  23.232 -22.153  0.00  0.00     0.297 C 
ATOM     19  O   UNL d   1      33.212  23.374 -22.642  0.00  0.00    -0.259 OA
BRANCH  18  20
ATOM     20  O   UNL d   1      31.810  23.204 -22.473  0.00  0.00    -0.296 OA
ATOM     21  C   UNL d   1      31.658  23.571 -23.201  0.00  0.00     0.185 C 
ENDBRANCH  18  20
ENDBRANCH   1  18
BRANCH   3  22
ATOM     22  C   UNL d   1      33.015  22.743 -18.919  0.00  0.00     0.296 C 
ATOM     23  O   UNL d   1      33.064  21.976 -18.617  0.00  0.00    -0.259 OA
BRANCH  22  24
ATOM     24  O   UNL d   1      33.080  23.388 -18.407  0.00  0.00    -0.296 OA
ATOM     25  C   UNL d   1      33.010  23.279 -17.592  0.00  0.00     0.185 C 
ENDBRANCH  22  24
ENDBRANCH   3  22
TORSDOF 8
ENDMDL
MODEL 2
REMARK VINA RESULT:       0.4      1.113      1.395
REMARK  8 active torsions:
REMARK  status: ('A' for Active; 'I' for Inactive)
REMARK    1  A    between atoms: C_3  and  C_1 
REMARK    2  A    between atoms: N_4  and  C_2 
REMARK    3  A    between atoms: O_21  and  C_3 
REMARK       I    between atoms: C_11  and  N_4 
REMARK    4  A    between atoms: C_6  and  C_7 
REMARK    5  A    between atoms: O_22  and  C_6 
REMARK    6  A    between atoms: C_10  and  C_20 
REMARK    7  A    between atoms: C_19  and  C_11 
REMARK    8  A    between atoms: C_20  and  C_19 
ROOT
ATOM      1  C   UNL d   1      32.799  22.562 -22.639  0.00  0.00     0.081 A 
ATOM      2  C   UNL d   1      32.998  21.891 -22.203  0.00  0.00     0.090 A 
ATOM      3  C   UNL d   1      32.716  22.577 -20.989  0.00  0.00     0.065 A 
ATOM      4  C   UNL d   1      32.958  21.894 -21.383  0.00  0.00     0.025 A 
ATOM      5  C   UNL d   1      32.558  23.245 -22.245  0.00  0.00     0.007 A 
ATOM      6  C   UNL d   1      32.516  23.253 -21.420  0.00  0.00     0.006 A 
ENDROOT
BRANCH   2   7
ATOM      7  N   UNL d   1      33.239  21.212 -22.601  0.00  0.00    -0.208 NA
ATOM      8  C   UNL d   1      32.997  20.467 -22.328  0.00  0.00     0.279 C 
ATOM      9  O   UNL d   1      32.516  20.415 -21.658  0.00  0.00    -0.265 OA
BRANCH   8  10
ATOM     10  C   UNL d   1      33.236  19.789 -22.723  0.00  0.00     0.065 C 
BRANCH  10  11
ATOM     11  C   UNL d   1      32.844  19.071 -22.586  0.00  0.00     0.030 C 
BRANCH  11  12
ATOM     12  C   UNL d   1      32.697  18.559 -23.210  0.00  0.00     0.100 A 
ATOM     13  O   UNL d   1      31.995  18.147 -23.350  0.00  0.00    -0.307 OA
ATOM     14  C   UNL d   1      32.095  17.706 -24.028  0.00  0.00     0.100 A 
ATOM     15  C   UNL d   1      31.530  17.210 -24.370  0.00  0.00     0.027 C 
ATOM     16  C   UNL d   1      32.851  17.834 -24.317  0.00  0.00     0.027 A 
ATOM     17  C   UNL d   1      33.227  18.356 -23.820  0.00  0.00     0.027 A 
ENDBRANCH  11  12
ENDBRANCH  10  11
ENDBRANCH   8  10
ENDBRANCH   2   7
BRANCH   1  18
ATOM     18  C   UNL d   1      32.844  22.546 -23.461  0.00  0.00     0.297 C 
ATOM     19  O   UNL d   1      32.672  21.859 -23.872  0.00  0.00    -0.259 OA
BRANCH  18  20
ATOM     20  O   UNL d   1      33.062  23.226 -23.873  0.00  0.00    -0.296 OA
ATOM     21  C   UNL d   1      32.593  23.493 -24.502  0.00  0.00     0.185 C 
ENDBRANCH  18  20
ENDBRANCH   1  18
BRANCH   3  22
ATOM     22  C   UNL d   1      32.674  22.586 -20.164  0.00  0.00     0.296 C 
ATOM     23  O   UNL d   1      32.374  21.935 -19.755  0.00  0.00    -0.259 OA
BRANCH  22  24
ATOM     24  O   UNL d   1      32.933  23.248 -19.744  0.00  0.00    -0.296 OA
ATOM     25  C   UNL d   1      32.487  23.540 -19.114  0.00  0.00     0.185 C 
ENDBRANCH  22  24
ENDBRANCH   3  22
TORSDOF 8
ENDMDL
