MODEL 1
REMARK VINA RESULT:      -7.6      0.000      0.000
REMARK  4 active torsions:
REMARK  status: ('A' for Active; 'I' for Inactive)
REMARK    1  A    between atoms: N_2  and  S_1 
REMARK    2  A    between atoms: C_3  and  S_1 
REMARK    3  A    between atoms: C_6  and  N_2 
REMARK    4  A    between atoms: C_13  and  N_2 
ROOT
ATOM      1  S   UNL d   1     -48.479  13.170  22.606  0.00  0.00     0.271 S 
ATOM      2  O   UNL d   1     -48.936  12.808  23.081  0.00  0.00    -0.200 OA
ATOM      3  O   UNL d   1     -47.956  13.549  22.099  0.00  0.00    -0.200 OA
ENDROOT
BRANCH   1   4
ATOM      4  N   UNL d   1     -49.109  13.607  22.282  0.00  0.00    -0.231 N 
BRANCH   4   5
ATOM      5  C   UNL d   1     -49.429  14.243  22.705  0.00  0.00     0.075 A 
ATOM      6  C   UNL d   1     -50.024  14.103  23.270  0.00  0.00     0.018 A 
ATOM      7  C   UNL d   1     -50.349  14.738  23.697  0.00  0.00     0.002 A 
ATOM      8  C   UNL d   1     -50.079  15.513  23.560  0.00  0.00     0.000 A 
ATOM      9  C   UNL d   1     -49.483  15.650  22.993  0.00  0.00     0.002 A 
ATOM     10  C   UNL d   1     -49.158  15.015  22.566  0.00  0.00     0.018 A 
ENDBRANCH   4   5
BRANCH   4  11
ATOM     11  C   UNL d   1     -49.414  13.403  21.539  0.00  0.00     0.092 C 
ATOM     12  C   UNL d   1     -50.089  12.931  21.482  0.00  0.00     0.021 C 
ENDBRANCH   4  11
ENDBRANCH   1   4
BRANCH   1  13
ATOM     13  C   UNL d   1     -47.889  12.790  22.879  0.00  0.00     0.104 A 
ATOM     14  C   UNL d   1     -47.182  13.048  22.775  0.00  0.00     0.015 A 
ATOM     15  C   UNL d   1     -46.604  12.666  23.048  0.00  0.00     0.022 A 
ATOM     16  C   UNL d   1     -46.711  12.029  23.425  0.00  0.00     0.103 A 
ATOM     17  C   UNL d   1     -47.404  11.765  23.534  0.00  0.00     0.022 A 
ATOM     18  N   UNL d   1     -46.120  11.651  23.697  0.00  0.00    -0.148 N 
ATOM     19  C   UNL d   1     -47.996  12.143  23.262  0.00  0.00     0.015 A 
ENDBRANCH   1  13
TORSDOF 4
ENDMDL
MODEL 2
REMARK VINA RESULT:      -7.3      1.109      1.920
REMARK  4 active torsions:
REMARK  status: ('A' for Active; 'I' for Inactive)
REMARK    1  A    between atoms: N_2  and  S_1 
REMARK    2  A    between atoms: C_3  and  S_1 
REMARK    3  A    between atoms: C_6  and  N_2 
REMARK    4  A    between atoms: C_13  and  N_2 
ROOT
ATOM      1  S   UNL d   1     -48.381  13.941  22.574  0.00  0.00     0.271 S 
ATOM      2  O   UNL d   1     -48.362  14.011  23.323  0.00  0.00    -0.200 OA
ATOM      3  O   UNL d   1     -48.372  13.858  21.757  0.00  0.00    -0.200 OA
ENDROOT
BRANCH   1   4
ATOM      4  N   UNL d   1     -49.192  14.128  22.546  0.00  0.00    -0.231 N 
BRANCH   4   5
ATOM      5  C   UNL d   1     -49.755  13.548  22.729  0.00  0.00     0.075 A 
ATOM      6  C   UNL d   1     -50.128  13.130  22.115  0.00  0.00     0.018 A 
ATOM      7  C   UNL d   1     -50.693  12.547  22.292  0.00  0.00     0.002 A 
ATOM      8  C   UNL d   1     -50.886  12.382  23.085  0.00  0.00     0.000 A 
ATOM      9  C   UNL d   1     -50.510  12.804  23.698  0.00  0.00     0.002 A 
ATOM     10  C   UNL d   1     -49.945  13.386  23.521  0.00  0.00     0.018 A 
ENDBRANCH   4   5
BRANCH   4  11
ATOM     11  C   UNL d   1     -49.433  14.893  22.335  0.00  0.00     0.092 C 
ATOM     12  C   UNL d   1     -49.663  15.431  22.917  0.00  0.00     0.021 C 
ENDBRANCH   4  11
ENDBRANCH   1   4
BRANCH   1  13
ATOM     13  C   UNL d   1     -47.648  13.770  22.568  0.00  0.00     0.104 A 
ATOM     14  C   UNL d   1     -47.397  13.164  22.184  0.00  0.00     0.015 A 
ATOM     15  C   UNL d   1     -46.670  13.000  22.183  0.00  0.00     0.022 A 
ATOM     16  C   UNL d   1     -46.183  13.427  22.556  0.00  0.00     0.103 A 
ATOM     17  C   UNL d   1     -46.419  14.027  22.938  0.00  0.00     0.022 A 
ATOM     18  N   UNL d   1     -45.451  13.253  22.549  0.00  0.00    -0.148 N 
ATOM     19  C   UNL d   1     -47.152  14.202  22.947  0.00  0.00     0.015 A 
ENDBRANCH   1  13
TORSDOF 4
ENDMDL
MODEL 3
REMARK VINA RESULT:      -7.2      1.279      3.342
REMARK  4 active torsions:
REMARK  status: ('A' for Active; 'I' for Inactive)
REMARK    1  A    between atoms: N_2  and  S_1 
REMARK    2  A    between atoms: C_3  and  S_1 
REMARK    3  A    between atoms: C_6  and  N_2 
REMARK    4  A    between atoms: C_13  and  N_2 
ROOT
ATOM      1  S   UNL d   1     -48.421  12.708  22.723  0.00  0.00     0.271 S 
ATOM      2  O   UNL d   1     -48.200  12.348  22.101  0.00  0.00    -0.200 OA
ATOM      3  O   UNL d   1     -48.690  13.108  23.389  0.00  0.00    -0.200 OA
ENDROOT
BRANCH   1   4
ATOM      4  N   UNL d   1     -47.701  12.549  23.109  0.00  0.00    -0.231 N 
BRANCH   4   5
ATOM      5  C   UNL d   1     -47.021  12.976  22.905  0.00  0.00     0.075 A 
ATOM      6  C   UNL d   1     -46.890  13.725  23.244  0.00  0.00     0.018 A 
ATOM      7  C   UNL d   1     -46.209  14.158  23.043  0.00  0.00     0.002 A 
ATOM      8  C   UNL d   1     -45.659  13.842  22.504  0.00  0.00     0.000 A 
ATOM      9  C   UNL d   1     -45.794  13.092  22.167  0.00  0.00     0.002 A 
ATOM     10  C   UNL d   1     -46.475  12.659  22.368  0.00  0.00     0.018 A 
ENDBRANCH   4   5
BRANCH   4  11
ATOM     11  C   UNL d   1     -47.667  11.964  23.696  0.00  0.00     0.092 C 
ATOM     12  C   UNL d   1     -47.354  11.220  23.523  0.00  0.00     0.021 C 
ENDBRANCH   4  11
ENDBRANCH   1   4
BRANCH   1  13
ATOM     13  C   UNL d   1     -49.082  12.868  22.400  0.00  0.00     0.104 A 
ATOM     14  C   UNL d   1     -49.535  13.403  22.693  0.00  0.00     0.015 A 
ATOM     15  C   UNL d   1     -50.188  13.555  22.367  0.00  0.00     0.022 A 
ATOM     16  C   UNL d   1     -50.404  13.186  21.753  0.00  0.00     0.103 A 
ATOM     17  C   UNL d   1     -49.964  12.656  21.457  0.00  0.00     0.022 A 
ATOM     18  N   UNL d   1     -51.064  13.347  21.433  0.00  0.00    -0.148 N 
ATOM     19  C   UNL d   1     -49.303  12.494  21.777  0.00  0.00     0.015 A 
ENDBRANCH   1  13
TORSDOF 4
ENDMDL
MODEL 4
REMARK VINA RESULT:      -5.9      8.842     10.207
REMARK  4 active torsions:
REMARK  status: ('A' for Active; 'I' for Inactive)
REMARK    1  A    between atoms: N_2  and  S_1 
REMARK    2  A    between atoms: C_3  and  S_1 
REMARK    3  A    between atoms: C_6  and  N_2 
REMARK    4  A    between atoms: C_13  and  N_2 
ROOT
ATOM      1  S   UNL d   1     -40.443  15.068  18.176  0.00  0.00     0.271 S 
ATOM      2  O   UNL d   1     -40.187  15.774  18.230  0.00  0.00    -0.200 OA
ATOM      3  O   UNL d   1     -40.724  14.297  18.149  0.00  0.00    -0.200 OA
ENDROOT
BRANCH   1   4
ATOM      4  N   UNL d   1     -40.410  15.086  17.345  0.00  0.00    -0.231 N 
BRANCH   4   5
ATOM      5  C   UNL d   1     -39.679  15.016  16.960  0.00  0.00     0.075 A 
ATOM      6  C   UNL d   1     -39.408  14.264  16.727  0.00  0.00     0.018 A 
ATOM      7  C   UNL d   1     -38.676  14.187  16.341  0.00  0.00     0.002 A 
ATOM      8  C   UNL d   1     -38.215  14.862  16.187  0.00  0.00     0.000 A 
ATOM      9  C   UNL d   1     -38.489  15.613  16.421  0.00  0.00     0.002 A 
ATOM     10  C   UNL d   1     -39.221  15.691  16.808  0.00  0.00     0.018 A 
ENDBRANCH   4   5
BRANCH   4  11
ATOM     11  C   UNL d   1     -41.107  15.174  16.905  0.00  0.00     0.092 C 
ATOM     12  C   UNL d   1     -41.341  15.921  16.644  0.00  0.00     0.021 C 
ENDBRANCH   4  11
ENDBRANCH   1   4
BRANCH   1  13
ATOM     13  C   UNL d   1     -40.484  15.022  18.927  0.00  0.00     0.104 A 
ATOM     14  C   UNL d   1     -40.567  14.349  19.268  0.00  0.00     0.015 A 
ATOM     15  C   UNL d   1     -40.607  14.311  20.011  0.00  0.00     0.022 A 
ATOM     16  C   UNL d   1     -40.566  14.932  20.427  0.00  0.00     0.103 A 
ATOM     17  C   UNL d   1     -40.483  15.601  20.101  0.00  0.00     0.022 A 
ATOM     18  N   UNL d   1     -40.607  14.883  21.176  0.00  0.00    -0.148 N 
ATOM     19  C   UNL d   1     -40.442  15.651  19.350  0.00  0.00     0.015 A 
ENDBRANCH   1  13
TORSDOF 4
ENDMDL
