MODEL 1
REMARK VINA RESULT:      -7.0      0.000      0.000
REMARK  6 active torsions:
REMARK  status: ('A' for Active; 'I' for Inactive)
REMARK    1  A    between atoms: C_8  and  C_1 
REMARK    2  A    between atoms: C_13  and  N_2 
REMARK    3  A    between atoms: C_7  and  C_4 
REMARK    4  A    between atoms: C_6  and  C_8 
REMARK    5  A    between atoms: C_22  and  C_13 
REMARK    6  A    between atoms: N_18  and  C_22 
ROOT
ATOM      1  C   UNL d   1     -46.522  13.463  22.979  0.00  0.00     0.103 A 
ATOM      2  N   UNL d   1     -47.608  14.206  22.731  0.00  0.00    -0.267 N 
ATOM      3  C   UNL d   1     -46.287  14.255  22.955  0.00  0.00     0.256 A 
ATOM      4  C   UNL d   1     -47.334  13.435  22.842  0.00  0.00     0.096 A 
ATOM      5  C   UNL d   1     -46.957  14.714  22.801  0.00  0.00     0.304 A 
ATOM      6  O   UNL d   1     -46.974  15.538  22.731  0.00  0.00    -0.263 OA
ATOM      7  O   UNL d   1     -45.526  14.547  23.062  0.00  0.00    -0.281 OA
ENDROOT
BRANCH   1   8
ATOM      8  C   UNL d   1     -46.026  12.819  23.117  0.00  0.00     0.223 C 
ATOM      9  O   UNL d   1     -46.226  12.261  23.698  0.00  0.00    -0.284 OA
BRANCH   8  10
ATOM     10  C   UNL d   1     -45.330  12.726  22.681  0.00  0.00     0.139 A 
ATOM     11  O   UNL d   1     -45.134  13.130  21.987  0.00  0.00    -0.304 OA
ATOM     12  C   UNL d   1     -44.398  12.869  21.741  0.00  0.00     0.100 A 
ATOM     13  C   UNL d   1     -43.928  13.058  21.112  0.00  0.00     0.025 A 
ATOM     14  C   UNL d   1     -44.136  12.301  22.281  0.00  0.00     0.025 A 
ATOM     15  C   UNL d   1     -43.205  12.702  21.001  0.00  0.00     0.002 A 
ATOM     16  C   UNL d   1     -42.940  12.136  21.537  0.00  0.00     0.000 A 
ATOM     17  C   UNL d   1     -43.415  11.942  22.177  0.00  0.00     0.002 A 
ATOM     18  C   UNL d   1     -44.719  12.217  22.863  0.00  0.00     0.030 A 
ENDBRANCH   8  10
ENDBRANCH   1   8
BRANCH   4  19
ATOM     19  C   UNL d   1     -47.798  12.745  22.819  0.00  0.00     0.116 A 
ATOM     20  O   UNL d   1     -48.128  12.296  23.414  0.00  0.00    -0.306 OA
ATOM     21  C   UNL d   1     -48.532  11.674  23.070  0.00  0.00     0.100 A 
ATOM     22  C   UNL d   1     -48.945  11.089  23.480  0.00  0.00     0.027 C 
ATOM     23  C   UNL d   1     -48.452  11.738  22.251  0.00  0.00     0.027 A 
ATOM     24  C   UNL d   1     -47.998  12.402  22.095  0.00  0.00     0.028 A 
ENDBRANCH   4  19
BRANCH   2  25
ATOM     25  C   UNL d   1     -48.379  14.430  22.580  0.00  0.00     0.102 C 
BRANCH  25  26
ATOM     26  C   UNL d   1     -48.644  15.177  22.805  0.00  0.00     0.100 C 
BRANCH  26  27
ATOM     27  N   UNL d   1     -49.452  15.323  22.888  0.00  0.00    -0.298 N 
ATOM     28  C   UNL d   1     -49.735  15.707  23.554  0.00  0.00     0.107 A 
ATOM     29  C   UNL d   1     -50.540  15.855  23.643  0.00  0.00     0.142 A 
ATOM     30  O   UNL d   1     -51.064  15.616  23.060  0.00  0.00    -0.300 OA
ATOM     31  C   UNL d   1     -50.789  15.228  22.385  0.00  0.00     0.142 A 
ATOM     32  C   UNL d   1     -49.976  15.082  22.304  0.00  0.00     0.107 A 
ENDBRANCH  26  27
ENDBRANCH  25  26
ENDBRANCH   2  25
TORSDOF 6
ENDMDL
MODEL 2
REMARK VINA RESULT:      -5.8      1.682      5.422
REMARK  6 active torsions:
REMARK  status: ('A' for Active; 'I' for Inactive)
REMARK    1  A    between atoms: C_8  and  C_1 
REMARK    2  A    between atoms: C_13  and  N_2 
REMARK    3  A    between atoms: C_7  and  C_4 
REMARK    4  A    between atoms: C_6  and  C_8 
REMARK    5  A    between atoms: C_22  and  C_13 
REMARK    6  A    between atoms: N_18  and  C_22 
ROOT
ATOM      1  C   UNL d   1     -48.002  12.505  22.415  0.00  0.00     0.103 A 
ATOM      2  N   UNL d   1     -47.138  11.814  23.170  0.00  0.00    -0.267 N 
ATOM      3  C   UNL d   1     -48.385  11.821  22.676  0.00  0.00     0.256 A 
ATOM      4  C   UNL d   1     -47.237  12.498  22.719  0.00  0.00     0.096 A 
ATOM      5  C   UNL d   1     -47.852  11.394  23.142  0.00  0.00     0.304 A 
ATOM      6  O   UNL d   1     -48.007  10.672  23.517  0.00  0.00    -0.263 OA
ATOM      7  O   UNL d   1     -49.158  11.594  22.509  0.00  0.00    -0.281 OA
ENDROOT
BRANCH   1   8
ATOM      8  C   UNL d   1     -48.333  13.086  21.934  0.00  0.00     0.223 C 
ATOM      9  O   UNL d   1     -48.099  13.149  21.141  0.00  0.00    -0.284 OA
BRANCH   8  10
ATOM     10  C   UNL d   1     -48.898  13.609  22.238  0.00  0.00     0.139 A 
ATOM     11  O   UNL d   1     -48.893  13.943  22.994  0.00  0.00    -0.304 OA
ATOM     12  C   UNL d   1     -49.552  14.425  23.062  0.00  0.00     0.100 A 
ATOM     13  C   UNL d   1     -49.838  14.887  23.659  0.00  0.00     0.025 A 
ATOM     14  C   UNL d   1     -49.968  14.390  22.349  0.00  0.00     0.025 A 
ATOM     15  C   UNL d   1     -50.523  15.317  23.573  0.00  0.00     0.002 A 
ATOM     16  C   UNL d   1     -50.940  15.285  22.863  0.00  0.00     0.000 A 
ATOM     17  C   UNL d   1     -50.652  14.816  22.255  0.00  0.00     0.002 A 
ATOM     18  C   UNL d   1     -49.556  13.881  21.841  0.00  0.00     0.030 A 
ENDBRANCH   8  10
ENDBRANCH   1   8
BRANCH   4  19
ATOM     19  C   UNL d   1     -46.660  13.084  22.592  0.00  0.00     0.116 A 
ATOM     20  O   UNL d   1     -46.195  13.254  21.943  0.00  0.00    -0.306 OA
ATOM     21  C   UNL d   1     -45.722  13.894  22.129  0.00  0.00     0.100 A 
ATOM     22  C   UNL d   1     -45.171  14.242  21.623  0.00  0.00     0.027 C 
ATOM     23  C   UNL d   1     -45.895  14.125  22.902  0.00  0.00     0.027 A 
ATOM     24  C   UNL d   1     -46.476  13.624  23.190  0.00  0.00     0.028 A 
ENDBRANCH   4  19
BRANCH   2  25
ATOM     25  C   UNL d   1     -46.463  11.589  23.570  0.00  0.00     0.102 C 
BRANCH  25  26
ATOM     26  C   UNL d   1     -46.301  10.789  23.692  0.00  0.00     0.100 C 
BRANCH  26  27
ATOM     27  N   UNL d   1     -45.522  10.520  23.689  0.00  0.00    -0.298 N 
ATOM     28  C   UNL d   1     -45.365   9.715  23.676  0.00  0.00     0.107 A 
ATOM     29  C   UNL d   1     -44.589   9.440  23.673  0.00  0.00     0.142 A 
ATOM     30  O   UNL d   1     -43.967   9.973  23.682  0.00  0.00    -0.300 OA
ATOM     31  C   UNL d   1     -44.116  10.786  23.695  0.00  0.00     0.142 A 
ATOM     32  C   UNL d   1     -44.900  11.055  23.698  0.00  0.00     0.107 A 
ENDBRANCH  26  27
ENDBRANCH  25  26
ENDBRANCH   2  25
TORSDOF 6
ENDMDL
MODEL 3
REMARK VINA RESULT:      -4.5      5.419      8.928
REMARK  6 active torsions:
REMARK  status: ('A' for Active; 'I' for Inactive)
REMARK    1  A    between atoms: C_8  and  C_1 
REMARK    2  A    between atoms: C_13  and  N_2 
REMARK    3  A    between atoms: C_7  and  C_4 
REMARK    4  A    between atoms: C_6  and  C_8 
REMARK    5  A    between atoms: C_22  and  C_13 
REMARK    6  A    between atoms: N_18  and  C_22 
ROOT
ATOM      1  C   UNL d   1     -40.510  15.175  19.852  0.00  0.00     0.103 A 
ATOM      2  N   UNL d   1     -39.893  15.178  18.663  0.00  0.00    -0.267 N 
ATOM      3  C   UNL d   1     -40.995  15.577  19.316  0.00  0.00     0.256 A 
ATOM      4  C   UNL d   1     -39.835  14.932  19.449  0.00  0.00     0.096 A 
ATOM      5  C   UNL d   1     -40.614  15.579  18.582  0.00  0.00     0.304 A 
ATOM      6  O   UNL d   1     -40.904  15.922  17.887  0.00  0.00    -0.263 OA
ATOM      7  O   UNL d   1     -41.727  15.918  19.472  0.00  0.00    -0.281 OA
ENDROOT
BRANCH   1   8
ATOM      8  C   UNL d   1     -40.680  15.046  20.648  0.00  0.00     0.223 C 
ATOM      9  O   UNL d   1     -40.245  15.442  21.232  0.00  0.00    -0.284 OA
BRANCH   8  10
ATOM     10  C   UNL d   1     -41.282  14.523  20.868  0.00  0.00     0.139 A 
ATOM     11  O   UNL d   1     -41.197  13.710  20.995  0.00  0.00    -0.304 OA
ATOM     12  C   UNL d   1     -41.929  13.408  21.203  0.00  0.00     0.100 A 
ATOM     13  C   UNL d   1     -42.187  12.666  21.390  0.00  0.00     0.025 A 
ATOM     14  C   UNL d   1     -42.470  14.033  21.204  0.00  0.00     0.025 A 
ATOM     15  C   UNL d   1     -42.964  12.522  21.579  0.00  0.00     0.002 A 
ATOM     16  C   UNL d   1     -43.507  13.142  21.581  0.00  0.00     0.000 A 
ATOM     17  C   UNL d   1     -43.248  13.896  21.392  0.00  0.00     0.002 A 
ATOM     18  C   UNL d   1     -42.062  14.722  20.995  0.00  0.00     0.030 A 
ENDBRANCH   8  10
ENDBRANCH   1   8
BRANCH   4  19
ATOM     19  C   UNL d   1     -39.200  14.508  19.780  0.00  0.00     0.116 A 
ATOM     20  O   UNL d   1     -39.065  13.707  19.853  0.00  0.00    -0.306 OA
ATOM     21  C   UNL d   1     -38.345  13.602  20.227  0.00  0.00     0.100 A 
ATOM     22  C   UNL d   1     -38.003  12.874  20.407  0.00  0.00     0.027 C 
ATOM     23  C   UNL d   1     -38.029  14.348  20.386  0.00  0.00     0.027 A 
ATOM     24  C   UNL d   1     -38.558  14.909  20.110  0.00  0.00     0.028 A 
ENDBRANCH   4  19
BRANCH   2  25
ATOM     25  C   UNL d   1     -39.343  15.052  18.073  0.00  0.00     0.102 C 
BRANCH  25  26
ATOM     26  C   UNL d   1     -39.592  14.904  17.301  0.00  0.00     0.100 C 
BRANCH  26  27
ATOM     27  N   UNL d   1     -39.041  14.720  16.716  0.00  0.00    -0.298 N 
ATOM     28  C   UNL d   1     -38.848  15.273  16.142  0.00  0.00     0.107 A 
ATOM     29  C   UNL d   1     -38.298  15.094  15.556  0.00  0.00     0.142 A 
ATOM     30  O   UNL d   1     -37.940  14.357  15.545  0.00  0.00    -0.300 OA
ATOM     31  C   UNL d   1     -38.128  13.794  16.118  0.00  0.00     0.142 A 
ATOM     32  C   UNL d   1     -38.683  13.981  16.706  0.00  0.00     0.107 A 
ENDBRANCH  26  27
ENDBRANCH  25  26
ENDBRANCH   2  25
TORSDOF 6
ENDMDL
MODEL 4
REMARK VINA RESULT:      -4.4      1.852      5.421
REMARK  6 active torsions:
REMARK  status: ('A' for Active; 'I' for Inactive)
REMARK    1  A    between atoms: C_8  and  C_1 
REMARK    2  A    between atoms: C_13  and  N_2 
REMARK    3  A    between atoms: C_7  and  C_4 
REMARK    4  A    between atoms: C_6  and  C_8 
REMARK    5  A    between atoms: C_22  and  C_13 
REMARK    6  A    between atoms: N_18  and  C_22 
ROOT
ATOM      1  C   UNL d   1     -47.583  12.648  23.303  0.00  0.00     0.103 A 
ATOM      2  N   UNL d   1     -46.482  11.885  23.310  0.00  0.00    -0.267 N 
ATOM      3  C   UNL d   1     -47.808  11.880  23.513  0.00  0.00     0.256 A 
ATOM      4  C   UNL d   1     -46.769  12.648  23.179  0.00  0.00     0.096 A 
ATOM      5  C   UNL d   1     -47.128  11.410  23.518  0.00  0.00     0.304 A 
ATOM      6  O   UNL d   1     -47.099  10.603  23.698  0.00  0.00    -0.263 OA
ATOM      7  O   UNL d   1     -48.567  11.619  23.689  0.00  0.00    -0.281 OA
ENDROOT
BRANCH   1   8
ATOM      8  C   UNL d   1     -48.090  13.293  23.233  0.00  0.00     0.223 C 
ATOM      9  O   UNL d   1     -47.957  13.975  23.686  0.00  0.00    -0.284 OA
BRANCH   8  10
ATOM     10  C   UNL d   1     -48.732  13.266  22.712  0.00  0.00     0.139 A 
ATOM     11  O   UNL d   1     -48.841  12.717  22.104  0.00  0.00    -0.304 OA
ATOM     12  C   UNL d   1     -49.547  12.893  21.727  0.00  0.00     0.100 A 
ATOM     13  C   UNL d   1     -49.939  12.558  21.106  0.00  0.00     0.025 A 
ATOM     14  C   UNL d   1     -49.877  13.552  22.101  0.00  0.00     0.025 A 
ATOM     15  C   UNL d   1     -50.648  12.855  20.841  0.00  0.00     0.002 A 
ATOM     16  C   UNL d   1     -50.981  13.511  21.211  0.00  0.00     0.000 A 
ATOM     17  C   UNL d   1     -50.585  13.853  21.843  0.00  0.00     0.002 A 
ATOM     18  C   UNL d   1     -49.367  13.779  22.712  0.00  0.00     0.030 A 
ENDBRANCH   8  10
ENDBRANCH   1   8
BRANCH   4  19
ATOM     19  C   UNL d   1     -46.313  13.308  22.959  0.00  0.00     0.116 A 
ATOM     20  O   UNL d   1     -45.981  13.521  22.245  0.00  0.00    -0.306 OA
ATOM     21  C   UNL d   1     -45.588  14.231  22.347  0.00  0.00     0.100 A 
ATOM     22  C   UNL d   1     -45.177  14.638  21.760  0.00  0.00     0.027 C 
ATOM     23  C   UNL d   1     -45.678  14.462  23.135  0.00  0.00     0.027 A 
ATOM     24  C   UNL d   1     -46.127  13.891  23.514  0.00  0.00     0.028 A 
ENDBRANCH   4  19
BRANCH   2  25
ATOM     25  C   UNL d   1     -45.705  11.642  23.248  0.00  0.00     0.102 C 
BRANCH  25  26
ATOM     26  C   UNL d   1     -45.509  10.849  23.366  0.00  0.00     0.100 C 
BRANCH  26  27
ATOM     27  N   UNL d   1     -44.719  10.614  23.367  0.00  0.00    -0.298 N 
ATOM     28  C   UNL d   1     -44.145  11.099  23.041  0.00  0.00     0.107 A 
ATOM     29  C   UNL d   1     -43.353  10.870  23.039  0.00  0.00     0.142 A 
ATOM     30  O   UNL d   1     -43.138  10.150  23.367  0.00  0.00    -0.300 OA
ATOM     31  C   UNL d   1     -43.709   9.655  23.698  0.00  0.00     0.142 A 
ATOM     32  C   UNL d   1     -44.504   9.893  23.695  0.00  0.00     0.107 A 
ENDBRANCH  26  27
ENDBRANCH  25  26
ENDBRANCH   2  25
TORSDOF 6
ENDMDL
