MODEL 1
REMARK VINA RESULT:      -2.0      0.000      0.000
REMARK  9 active torsions:
REMARK  status: ('A' for Active; 'I' for Inactive)
REMARK    1  A    between atoms: C_6  and  N_1 
REMARK    2  A    between atoms: C_7  and  C_2 
REMARK    3  A    between atoms: C_3  and  C_9 
REMARK    4  A    between atoms: O_5  and  C_3 
REMARK    5  A    between atoms: C_4  and  O_5 
REMARK    6  A    between atoms: C_8  and  C_7 
REMARK    7  A    between atoms: C_12  and  C_8 
REMARK    8  A    between atoms: C_10  and  C_12 
REMARK    9  A    between atoms: O_25  and  C_23 
ROOT
ATOM      1  C   UNL d   1      31.805  17.513 -24.017  0.00  0.00     0.064 A 
ATOM      2  C   UNL d   1      32.409  17.885 -23.596  0.00  0.00     0.106 A 
ATOM      3  C   UNL d   1      31.917  16.742 -24.304  0.00  0.00     0.029 A 
ATOM      4  C   UNL d   1      33.125  17.486 -23.462  0.00  0.00     0.027 A 
ATOM      5  C   UNL d   1      32.628  16.350 -24.170  0.00  0.00     0.094 A 
ATOM      6  C   UNL d   1      33.232  16.722 -23.749  0.00  0.00     0.026 A 
ENDROOT
BRANCH   2   7
ATOM      7  O   UNL d   1      32.305  18.651 -23.307  0.00  0.00    -0.273 OA
BRANCH   7   8
ATOM      8  C   UNL d   1      32.807  18.938 -22.718  0.00  0.00     0.300 C 
ATOM      9  O   UNL d   1      33.217  18.419 -22.233  0.00  0.00    -0.259 OA
BRANCH   8  10
ATOM     10  C   UNL d   1      32.892  19.751 -22.620  0.00  0.00     0.065 A 
ATOM     11  C   UNL d   1      32.715  20.094 -21.895  0.00  0.00     0.029 A 
ATOM     12  C   UNL d   1      32.797  20.902 -21.790  0.00  0.00     0.127 A 
ATOM     13  C   UNL d   1      33.061  21.381 -22.415  0.00  0.00     0.024 A 
ATOM     14  C   UNL d   1      33.238  21.032 -23.141  0.00  0.00     0.002 A 
ATOM     15  C   UNL d   1      33.154  20.215 -23.247  0.00  0.00     0.005 A 
BRANCH  12  16
ATOM     16  N   UNL d   1      32.619  21.255 -21.057  0.00  0.00    -0.114 N 
ATOM     17  O   UNL d   1      31.912  21.658 -20.954  0.00  0.00    -0.532 OA
ATOM     18  O   UNL d   1      33.165  21.191 -20.438  0.00  0.00    -0.532 OA
ENDBRANCH  12  16
ENDBRANCH   8  10
ENDBRANCH   7   8
ENDBRANCH   2   7
BRANCH   1  19
ATOM     19  C   UNL d   1      31.091  17.909 -24.151  0.00  0.00     0.198 C 
ATOM     20  O   UNL d   1      31.077  18.577 -24.634  0.00  0.00    -0.286 OA
BRANCH  19  21
ATOM     21  C   UNL d   1      30.397  17.637 -23.802  0.00  0.00     0.043 C 
BRANCH  21  22
ATOM     22  C   UNL d   1      29.673  17.774 -24.169  0.00  0.00     0.010 C 
BRANCH  22  23
ATOM     23  C   UNL d   1      29.008  17.348 -23.936  0.00  0.00     0.030 A 
ATOM     24  S   UNL d   1      28.922  16.528 -23.938  0.00  0.00    -0.086 SA
ATOM     25  C   UNL d   1      28.169  16.341 -23.661  0.00  0.00     0.035 A 
ATOM     26  C   UNL d   1      27.781  17.045 -23.485  0.00  0.00     0.007 A 
ATOM     27  C   UNL d   1      28.297  17.668 -23.653  0.00  0.00     0.007 A 
ENDBRANCH  22  23
ENDBRANCH  21  22
ENDBRANCH  19  21
ENDBRANCH   1  19
BRANCH   5  28
ATOM     28  O   UNL d   1      32.736  15.586 -24.457  0.00  0.00    -0.328 OA
ATOM     29  C   UNL d   1      33.241  15.453 -25.092  0.00  0.00     0.181 C 
ENDBRANCH   5  28
TORSDOF 9
ENDMDL
