MODEL 1
REMARK VINA RESULT:      -6.2      0.000      0.000
REMARK  5 active torsions:
REMARK  status: ('A' for Active; 'I' for Inactive)
REMARK    1  A    between atoms: N_3  and  S_1 
REMARK    2  A    between atoms: C_5  and  S_1 
REMARK    3  A    between atoms: C_2  and  C_6 
REMARK       I    between atoms: N_4  and  C_2 
REMARK    4  A    between atoms: C_11  and  N_3 
REMARK    5  A    between atoms: O_18  and  C_14 
ROOT
ATOM      1  C   UNL d   1     -41.341-122.852 -52.982  0.00  0.00     0.058 A 
ATOM      2  C   UNL d   1     -41.365-123.412 -52.382  0.00  0.00     0.025 A 
ATOM      3  C   UNL d   1     -41.270-123.189 -51.593  0.00  0.00     0.094 A 
ATOM      4  C   UNL d   1     -41.220-122.048 -52.792  0.00  0.00     0.005 A 
ATOM      5  C   UNL d   1     -41.125-121.825 -52.003  0.00  0.00     0.002 A 
ATOM      6  C   UNL d   1     -41.149-122.389 -51.402  0.00  0.00     0.020 A 
ENDROOT
BRANCH   3   7
ATOM      7  N   UNL d   1     -41.294-123.750 -50.994  0.00  0.00    -0.158 NA
BRANCH   7   8
ATOM      8  S   UNL d   1     -41.782-123.646 -50.341  0.00  0.00     0.285 S 
ATOM      9  O   UNL d   1     -41.123-123.471 -49.877  0.00  0.00    -0.198 OA
ATOM     10  O   UNL d   1     -42.441-123.817 -50.793  0.00  0.00    -0.198 OA
BRANCH   8  11
ATOM     11  C   UNL d   1     -42.268-123.540 -49.684  0.00  0.00     0.107 A 
ATOM     12  C   UNL d   1     -41.948-123.259 -48.970  0.00  0.00     0.037 A 
ATOM     13  C   UNL d   1     -42.435-123.157 -48.322  0.00  0.00     0.095 A 
ATOM     14  C   UNL d   1     -43.238-123.331 -48.375  0.00  0.00     0.024 A 
ATOM     15  C   UNL d   1     -43.559-123.608 -49.073  0.00  0.00     0.003 A 
ATOM     16  C   UNL d   1     -43.073-123.713 -49.730  0.00  0.00     0.013 A 
BRANCH  13  17
ATOM     17  O   UNL d   1     -42.117-122.875 -47.603  0.00  0.00    -0.328 OA
ATOM     18  C   UNL d   1     -42.311-123.253 -46.878  0.00  0.00     0.181 C 
ENDBRANCH  13  17
ENDBRANCH   8  11
ENDBRANCH   7   8
ENDBRANCH   3   7
BRANCH   1  19
ATOM     19  C   UNL d   1     -41.437-123.082 -53.766  0.00  0.00     0.265 C 
ATOM     20  N   UNL d   1     -41.853-122.593 -54.290  0.00  0.00    -0.268 N 
ATOM     21  C   UNL d   1     -41.950-122.823 -55.078  0.00  0.00     0.110 A 
ATOM     22  C   UNL d   1     -42.168-121.883 -54.025  0.00  0.00     0.110 A 
ATOM     23  C   UNL d   1     -42.364-122.335 -55.596  0.00  0.00     0.142 A 
ATOM     24  O   UNL d   1     -42.678-121.625 -55.329  0.00  0.00    -0.300 OA
ATOM     25  C   UNL d   1     -42.586-121.390 -54.549  0.00  0.00     0.142 A 
ATOM     26  O   UNL d   1     -41.123-123.793 -54.031  0.00  0.00    -0.267 OA
ENDBRANCH   1  19
TORSDOF 5
ENDMDL
MODEL 2
REMARK VINA RESULT:      -6.1      1.176      5.157
REMARK  5 active torsions:
REMARK  status: ('A' for Active; 'I' for Inactive)
REMARK    1  A    between atoms: N_3  and  S_1 
REMARK    2  A    between atoms: C_5  and  S_1 
REMARK    3  A    between atoms: C_2  and  C_6 
REMARK       I    between atoms: N_4  and  C_2 
REMARK    4  A    between atoms: C_11  and  N_3 
REMARK    5  A    between atoms: O_18  and  C_14 
ROOT
ATOM      1  C   UNL d   1     -42.150-122.433 -50.659  0.00  0.00     0.058 A 
ATOM      2  C   UNL d   1     -41.896-122.913 -51.275  0.00  0.00     0.025 A 
ATOM      3  C   UNL d   1     -41.385-122.621 -51.854  0.00  0.00     0.094 A 
ATOM      4  C   UNL d   1     -41.889-121.641 -50.617  0.00  0.00     0.005 A 
ATOM      5  C   UNL d   1     -41.378-121.349 -51.196  0.00  0.00     0.002 A 
ATOM      6  C   UNL d   1     -41.123-121.832 -51.814  0.00  0.00     0.020 A 
ENDROOT
BRANCH   3   7
ATOM      7  N   UNL d   1     -41.131-123.101 -52.469  0.00  0.00    -0.158 NA
BRANCH   7   8
ATOM      8  S   UNL d   1     -41.462-123.033 -53.218  0.00  0.00     0.285 S 
ATOM      9  O   UNL d   1     -41.124-122.285 -53.299  0.00  0.00    -0.198 OA
ATOM     10  O   UNL d   1     -41.801-123.774 -53.147  0.00  0.00    -0.198 OA
BRANCH   8  11
ATOM     11  C   UNL d   1     -41.793-122.961 -53.969  0.00  0.00     0.107 A 
ATOM     12  C   UNL d   1     -41.837-122.216 -54.335  0.00  0.00     0.037 A 
ATOM     13  C   UNL d   1     -42.166-122.151 -55.081  0.00  0.00     0.095 A 
ATOM     14  C   UNL d   1     -42.452-122.820 -55.467  0.00  0.00     0.024 A 
ATOM     15  C   UNL d   1     -42.411-123.554 -55.113  0.00  0.00     0.003 A 
ATOM     16  C   UNL d   1     -42.081-123.627 -54.362  0.00  0.00     0.013 A 
BRANCH  13  17
ATOM     17  O   UNL d   1     -42.212-121.404 -55.451  0.00  0.00    -0.328 OA
ATOM     18  C   UNL d   1     -41.947-121.308 -56.243  0.00  0.00     0.181 C 
ENDBRANCH  13  17
ENDBRANCH   8  11
ENDBRANCH   7   8
ENDBRANCH   3   7
BRANCH   1  19
ATOM     19  C   UNL d   1     -42.659-122.731 -50.086  0.00  0.00     0.265 C 
ATOM     20  N   UNL d   1     -42.349-123.064 -49.394  0.00  0.00    -0.268 N 
ATOM     21  C   UNL d   1     -42.860-123.365 -48.817  0.00  0.00     0.110 A 
ATOM     22  C   UNL d   1     -41.536-123.094 -49.282  0.00  0.00     0.110 A 
ATOM     23  C   UNL d   1     -42.548-123.694 -48.131  0.00  0.00     0.142 A 
ATOM     24  O   UNL d   1     -41.735-123.724 -48.021  0.00  0.00    -0.300 OA
ATOM     25  C   UNL d   1     -41.222-123.428 -48.588  0.00  0.00     0.142 A 
ATOM     26  O   UNL d   1     -43.472-122.701 -50.197  0.00  0.00    -0.267 OA
ENDBRANCH   1  19
TORSDOF 5
ENDMDL
