MODEL 1
REMARK VINA RESULT:      -3.0      0.000      0.000
REMARK  5 active torsions:
REMARK  status: ('A' for Active; 'I' for Inactive)
REMARK    1  A    between atoms: O_2  and  S_1 
REMARK    2  A    between atoms: C_3  and  S_1 
REMARK    3  A    between atoms: C_6  and  O_2 
REMARK    4  A    between atoms: O_17  and  C_14 
REMARK    5  A    between atoms: C_20  and  O_17 
ROOT
ATOM      1  S   UNL d   1     -41.326-122.277 -52.030  0.00  0.00     0.304 S 
ATOM      2  O   UNL d   1     -41.369-123.090 -51.909  0.00  0.00    -0.193 OA
ATOM      3  O   UNL d   1     -41.282-121.465 -52.151  0.00  0.00    -0.193 OA
ENDROOT
BRANCH   1   4
ATOM      4  O   UNL d   1     -41.123-122.170 -51.241  0.00  0.00    -0.227 OA
BRANCH   4   5
ATOM      5  C   UNL d   1     -41.529-122.581 -50.652  0.00  0.00     0.114 A 
ATOM      6  C   UNL d   1     -42.265-122.308 -50.385  0.00  0.00     0.026 A 
ATOM      7  C   UNL d   1     -42.668-122.718 -49.799  0.00  0.00     0.002 A 
ATOM      8  C   UNL d   1     -43.400-122.444 -49.535  0.00  0.00     0.000 A 
ATOM      9  C   UNL d   1     -42.340-123.407 -49.473  0.00  0.00     0.000 A 
ATOM     10  C   UNL d   1     -43.809-122.855 -48.944  0.00  0.00     0.000 A 
ATOM     11  C   UNL d   1     -43.481-123.544 -48.617  0.00  0.00     0.000 A 
ATOM     12  C   UNL d   1     -42.747-123.817 -48.884  0.00  0.00     0.000 A 
ATOM     13  C   UNL d   1     -41.612-123.681 -49.734  0.00  0.00     0.002 A 
ATOM     14  C   UNL d   1     -41.202-123.270 -50.326  0.00  0.00     0.026 A 
ENDBRANCH   4   5
ENDBRANCH   1   4
BRANCH   1  15
ATOM     15  C   UNL d   1     -41.528-122.384 -52.821  0.00  0.00     0.111 A 
ATOM     16  C   UNL d   1     -41.767-121.739 -53.279  0.00  0.00     0.015 A 
ATOM     17  C   UNL d   1     -41.970-121.846 -54.069  0.00  0.00     0.025 A 
ATOM     18  C   UNL d   1     -41.936-122.599 -54.412  0.00  0.00     0.100 A 
ATOM     19  C   UNL d   1     -41.696-123.240 -53.951  0.00  0.00     0.025 A 
ATOM     20  C   UNL d   1     -41.494-123.133 -53.160  0.00  0.00     0.015 A 
BRANCH  18  21
ATOM     21  O   UNL d   1     -42.139-122.706 -55.203  0.00  0.00    -0.305 OA
BRANCH  21  22
ATOM     22  C   UNL d   1     -42.073-122.081 -55.732  0.00  0.00     0.123 C 
ATOM     23  C   UNL d   1     -42.639-121.978 -56.320  0.00  0.00     0.029 C 
ENDBRANCH  21  22
ENDBRANCH  18  21
ENDBRANCH   1  15
TORSDOF 5
ENDMDL
