MODEL 1
REMARK VINA RESULT:     101.6      0.000      0.000
REMARK  3 active torsions:
REMARK  status: ('A' for Active; 'I' for Inactive)
REMARK    1  A    between atoms: S_3  and  N_1 
REMARK    2  A    between atoms: C_7  and  C_4 
REMARK    3  A    between atoms: C_12  and  C_5 
ROOT
ATOM      1  N   UNL d   1     -57.582 -99.627 -44.603  0.00  0.00    -0.155 N 
ATOM      2  N   UNL d   1     -57.715 -99.628 -45.408  0.00  0.00    -0.156 NA
ATOM      3  C   UNL d   1     -58.208 -99.258 -44.240  0.00  0.00     0.096 A 
ATOM      4  C   UNL d   1     -58.431 -99.256 -45.539  0.00  0.00     0.103 A 
ATOM      5  C   UNL d   1     -58.741 -99.025 -44.825  0.00  0.00     0.041 A 
ENDROOT
BRANCH   3   6
ATOM      6  C   UNL d   1     -58.299 -99.135 -43.427  0.00  0.00     0.020 A 
ATOM      7  C   UNL d   1     -59.041 -99.230 -43.075  0.00  0.00     0.022 A 
ATOM      8  C   UNL d   1     -59.131 -99.107 -42.263  0.00  0.00     0.099 A 
ATOM      9  N   UNL d   1     -59.873 -99.202 -41.912  0.00  0.00    -0.241 NA
ATOM     10  C   UNL d   1     -58.485 -98.891 -41.806  0.00  0.00     0.099 A 
ATOM     11  C   UNL d   1     -59.946 -99.080 -41.124  0.00  0.00     0.120 A 
ATOM     12  C   UNL d   1     -59.299 -98.863 -40.666  0.00  0.00     0.120 A 
ATOM     13  N   UNL d   1     -58.575 -98.768 -40.994  0.00  0.00    -0.241 NA
ATOM     14  C   UNL d   1     -57.744 -98.796 -42.157  0.00  0.00     0.021 A 
ATOM     15  C   UNL d   1     -57.653 -98.919 -42.970  0.00  0.00     0.003 A 
ENDBRANCH   3   6
BRANCH   1  16
ATOM     16  S   UNL d   1     -56.914 -99.948 -44.204  0.00  0.00     0.266 S 
ATOM     17  O   UNL d   1     -57.447-100.275 -43.631  0.00  0.00    -0.203 OA
ATOM     18  O   UNL d   1     -56.280-100.276 -43.792  0.00  0.00    -0.203 OA
ATOM     19  C   UNL d   1     -56.415 -99.628 -44.763  0.00  0.00     0.165 C 
ENDBRANCH   1  16
BRANCH   4  20
ATOM     20  C   UNL d   1     -58.778 -99.136 -46.267  0.00  0.00     0.019 A 
ATOM     21  C   UNL d   1     -58.338 -98.883 -46.901  0.00  0.00     0.002 A 
ATOM     22  C   UNL d   1     -58.681 -98.755 -47.655  0.00  0.00     0.000 A 
ATOM     23  C   UNL d   1     -59.494 -98.894 -47.751  0.00  0.00     0.000 A 
ATOM     24  C   UNL d   1     -59.929 -99.154 -47.091  0.00  0.00     0.000 A 
ATOM     25  C   UNL d   1     -59.840 -98.775 -48.474  0.00  0.00     0.000 C 
ATOM     26  C   UNL d   1     -59.591 -99.274 -46.367  0.00  0.00     0.002 A 
ENDBRANCH   4  20
TORSDOF 3
ENDMDL
