MODEL 1
REMARK VINA RESULT:      -3.0      0.000      0.000
REMARK  5 active torsions:
REMARK  status: ('A' for Active; 'I' for Inactive)
REMARK    1  A    between atoms: C_2  and  S_1 
REMARK    2  A    between atoms: N_3  and  S_1 
REMARK    3  A    between atoms: C_6  and  C_7 
REMARK    4  A    between atoms: C_7  and  C_8 
REMARK    5  A    between atoms: C_8  and  C_12 
ROOT
ATOM      1  C   UNL d   1      31.753  16.912 -23.935  0.00  0.00     0.104 A 
ATOM      2  C   UNL d   1      32.197  16.249 -23.798  0.00  0.00     0.012 A 
ATOM      3  C   UNL d   1      30.949  16.865 -24.035  0.00  0.00     0.013 A 
ATOM      4  C   UNL d   1      30.572  16.115 -23.996  0.00  0.00     0.001 A 
ATOM      5  C   UNL d   1      31.819  15.500 -23.760  0.00  0.00     0.001 A 
ATOM      6  C   UNL d   1      31.019  15.453 -23.860  0.00  0.00     0.000 A 
ATOM      7  C   UNL d   1      33.028  16.307 -23.696  0.00  0.00     0.001 C 
ENDROOT
BRANCH   1   8
ATOM      8  S   UNL d   1      32.130  17.661 -23.973  0.00  0.00     0.271 S 
ATOM      9  O   UNL d   1      32.175  17.597 -24.787  0.00  0.00    -0.200 OA
ATOM     10  O   UNL d   1      32.084  17.727 -23.137  0.00  0.00    -0.200 OA
BRANCH   8  11
ATOM     11  N   UNL d   1      32.497  18.390 -24.018  0.00  0.00    -0.229 N 
ATOM     12  C   UNL d   1      32.697  18.696 -24.754  0.00  0.00     0.092 A 
ATOM     13  C   UNL d   1      33.069  19.436 -24.799  0.00  0.00     0.020 A 
ATOM     14  C   UNL d   1      33.241  19.865 -24.105  0.00  0.00     0.003 A 
ATOM     15  C   UNL d   1      33.032  19.536 -23.388  0.00  0.00     0.020 A 
ATOM     16  C   UNL d   1      32.661  18.800 -23.339  0.00  0.00     0.092 A 
ENDBRANCH   8  11
ENDBRANCH   1   8
BRANCH   4  17
ATOM     17  C   UNL d   1      29.727  16.073 -24.103  0.00  0.00     0.006 C 
BRANCH  17  18
ATOM     18  C   UNL d   1      29.205  16.064 -23.451  0.00  0.00     0.070 C 
BRANCH  18  19
ATOM     19  C   UNL d   1      28.396  16.096 -23.571  0.00  0.00     0.211 C 
ATOM     20  O   UNL d   1      28.005  15.473 -23.961  0.00  0.00    -0.644 OA
ATOM     21  O   UNL d   1      27.965  16.739 -23.310  0.00  0.00    -0.644 OA
ENDBRANCH  18  19
ENDBRANCH  17  18
ENDBRANCH   4  17
TORSDOF 5
ENDMDL
MODEL 2
REMARK VINA RESULT:      -2.8      1.663      4.317
REMARK  5 active torsions:
REMARK  status: ('A' for Active; 'I' for Inactive)
REMARK    1  A    between atoms: C_2  and  S_1 
REMARK    2  A    between atoms: N_3  and  S_1 
REMARK    3  A    between atoms: C_6  and  C_7 
REMARK    4  A    between atoms: C_7  and  C_8 
REMARK    5  A    between atoms: C_8  and  C_12 
ROOT
ATOM      1  C   UNL d   1      32.649  18.501 -23.592  0.00  0.00     0.104 A 
ATOM      2  C   UNL d   1      32.941  18.913 -24.224  0.00  0.00     0.012 A 
ATOM      3  C   UNL d   1      32.640  18.824 -22.848  0.00  0.00     0.013 A 
ATOM      4  C   UNL d   1      32.940  19.600 -22.733  0.00  0.00     0.001 A 
ATOM      5  C   UNL d   1      33.241  19.689 -24.109  0.00  0.00     0.001 A 
ATOM      6  C   UNL d   1      33.232  20.011 -23.368  0.00  0.00     0.000 A 
ATOM      7  C   UNL d   1      32.946  18.570 -24.991  0.00  0.00     0.001 C 
ENDROOT
BRANCH   1   8
ATOM      8  S   UNL d   1      32.349  17.725 -23.708  0.00  0.00     0.271 S 
ATOM      9  O   UNL d   1      31.656  18.037 -24.011  0.00  0.00    -0.200 OA
ATOM     10  O   UNL d   1      33.060  17.404 -23.397  0.00  0.00    -0.200 OA
BRANCH   8  11
ATOM     11  N   UNL d   1      32.050  16.973 -23.823  0.00  0.00    -0.229 N 
ATOM     12  C   UNL d   1      32.567  16.336 -23.870  0.00  0.00     0.092 A 
ATOM     13  C   UNL d   1      32.263  15.573 -23.987  0.00  0.00     0.020 A 
ATOM     14  C   UNL d   1      31.442  15.453 -24.057  0.00  0.00     0.003 A 
ATOM     15  C   UNL d   1      30.951  16.104 -24.007  0.00  0.00     0.020 A 
ATOM     16  C   UNL d   1      31.250  16.864 -23.891  0.00  0.00     0.092 A 
ENDBRANCH   8  11
ENDBRANCH   1   8
BRANCH   4  17
ATOM     17  C   UNL d   1      32.927  19.934 -21.949  0.00  0.00     0.006 C 
BRANCH  17  18
ATOM     18  C   UNL d   1      32.800  20.750 -21.823  0.00  0.00     0.070 C 
BRANCH  18  19
ATOM     19  C   UNL d   1      32.619  21.029 -21.075  0.00  0.00     0.211 C 
ATOM     20  O   UNL d   1      33.222  21.141 -20.512  0.00  0.00    -0.644 OA
ATOM     21  O   UNL d   1      31.845  21.199 -20.874  0.00  0.00    -0.644 OA
ENDBRANCH  18  19
ENDBRANCH  17  18
ENDBRANCH   4  17
TORSDOF 5
ENDMDL
MODEL 3
REMARK VINA RESULT:      -1.3      4.900      7.147
REMARK  5 active torsions:
REMARK  status: ('A' for Active; 'I' for Inactive)
REMARK    1  A    between atoms: C_2  and  S_1 
REMARK    2  A    between atoms: N_3  and  S_1 
REMARK    3  A    between atoms: C_6  and  C_7 
REMARK    4  A    between atoms: C_7  and  C_8 
REMARK    5  A    between atoms: C_8  and  C_12 
ROOT
ATOM      1  C   UNL d   1      32.751  22.284 -20.752  0.00  0.00     0.104 A 
ATOM      2  C   UNL d   1      32.467  22.942 -21.127  0.00  0.00     0.012 A 
ATOM      3  C   UNL d   1      32.920  22.294 -19.958  0.00  0.00     0.013 A 
ATOM      4  C   UNL d   1      32.800  23.001 -19.520  0.00  0.00     0.001 A 
ATOM      5  C   UNL d   1      32.346  23.648 -20.689  0.00  0.00     0.001 A 
ATOM      6  C   UNL d   1      32.516  23.659 -19.899  0.00  0.00     0.000 A 
ATOM      7  C   UNL d   1      32.294  22.922 -21.949  0.00  0.00     0.001 C 
ENDROOT
BRANCH   1   8
ATOM      8  S   UNL d   1      32.871  21.578 -21.190  0.00  0.00     0.271 S 
ATOM      9  O   UNL d   1      32.905  22.013 -21.882  0.00  0.00    -0.200 OA
ATOM     10  O   UNL d   1      32.837  21.131 -20.479  0.00  0.00    -0.200 OA
BRANCH   8  11
ATOM     11  N   UNL d   1      32.989  20.895 -21.623  0.00  0.00    -0.229 N 
ATOM     12  C   UNL d   1      32.999  20.169 -21.239  0.00  0.00     0.092 A 
ATOM     13  C   UNL d   1      33.119  19.477 -21.679  0.00  0.00     0.020 A 
ATOM     14  C   UNL d   1      33.228  19.516 -22.504  0.00  0.00     0.003 A 
ATOM     15  C   UNL d   1      33.213  20.250 -22.861  0.00  0.00     0.020 A 
ATOM     16  C   UNL d   1      33.094  20.941 -22.426  0.00  0.00     0.092 A 
ENDBRANCH   8  11
ENDBRANCH   1   8
BRANCH   4  17
ATOM     17  C   UNL d   1      32.980  23.005 -18.687  0.00  0.00     0.006 C 
BRANCH  17  18
ATOM     18  C   UNL d   1      32.581  23.511 -18.156  0.00  0.00     0.070 C 
BRANCH  18  19
ATOM     19  C   UNL d   1      32.620  23.376 -17.350  0.00  0.00     0.211 C 
ATOM     20  O   UNL d   1      33.241  23.702 -16.900  0.00  0.00    -0.644 OA
ATOM     21  O   UNL d   1      32.052  22.921 -16.979  0.00  0.00    -0.644 OA
ENDBRANCH  18  19
ENDBRANCH  17  18
ENDBRANCH   4  17
TORSDOF 5
ENDMDL
MODEL 4
REMARK VINA RESULT:      -1.0      1.578      2.552
REMARK  5 active torsions:
REMARK  status: ('A' for Active; 'I' for Inactive)
REMARK    1  A    between atoms: C_2  and  S_1 
REMARK    2  A    between atoms: N_3  and  S_1 
REMARK    3  A    between atoms: C_6  and  C_7 
REMARK    4  A    between atoms: C_7  and  C_8 
REMARK    5  A    between atoms: C_8  and  C_12 
ROOT
ATOM      1  C   UNL d   1      32.609  18.780 -23.693  0.00  0.00     0.104 A 
ATOM      2  C   UNL d   1      32.839  19.025 -24.429  0.00  0.00     0.012 A 
ATOM      3  C   UNL d   1      32.223  18.074 -23.587  0.00  0.00     0.013 A 
ATOM      4  C   UNL d   1      32.059  17.590 -24.254  0.00  0.00     0.001 A 
ATOM      5  C   UNL d   1      32.675  18.541 -25.096  0.00  0.00     0.001 A 
ATOM      6  C   UNL d   1      32.291  17.837 -24.991  0.00  0.00     0.000 A 
ATOM      7  C   UNL d   1      33.238  19.757 -24.529  0.00  0.00     0.001 C 
ENDROOT
BRANCH   1   8
ATOM      8  S   UNL d   1      32.773  19.264 -23.027  0.00  0.00     0.271 S 
ATOM      9  O   UNL d   1      32.317  19.862 -23.349  0.00  0.00    -0.200 OA
ATOM     10  O   UNL d   1      33.241  18.650 -22.695  0.00  0.00    -0.200 OA
BRANCH   8  11
ATOM     11  N   UNL d   1      32.928  19.741 -22.381  0.00  0.00    -0.229 N 
ATOM     12  C   UNL d   1      33.005  20.552 -22.488  0.00  0.00     0.092 A 
ATOM     13  C   UNL d   1      33.162  21.035 -21.832  0.00  0.00     0.020 A 
ATOM     14  C   UNL d   1      33.241  20.702 -21.072  0.00  0.00     0.003 A 
ATOM     15  C   UNL d   1      33.159  19.893 -20.996  0.00  0.00     0.020 A 
ATOM     16  C   UNL d   1      33.003  19.410 -21.645  0.00  0.00     0.092 A 
ENDBRANCH   8  11
ENDBRANCH   1   8
BRANCH   4  17
ATOM     17  C   UNL d   1      31.654  16.850 -24.136  0.00  0.00     0.006 C 
BRANCH  17  18
ATOM     18  C   UNL d   1      30.933  16.680 -24.523  0.00  0.00     0.070 C 
BRANCH  18  19
ATOM     19  C   UNL d   1      30.479  16.041 -24.287  0.00  0.00     0.211 C 
ATOM     20  O   UNL d   1      29.939  15.692 -24.816  0.00  0.00    -0.644 OA
ATOM     21  O   UNL d   1      30.551  15.740 -23.531  0.00  0.00    -0.644 OA
ENDBRANCH  18  19
ENDBRANCH  17  18
ENDBRANCH   4  17
TORSDOF 5
ENDMDL
MODEL 5
REMARK VINA RESULT:      -0.9      1.584      4.096
REMARK  5 active torsions:
REMARK  status: ('A' for Active; 'I' for Inactive)
REMARK    1  A    between atoms: C_2  and  S_1 
REMARK    2  A    between atoms: N_3  and  S_1 
REMARK    3  A    between atoms: C_6  and  C_7 
REMARK    4  A    between atoms: C_7  and  C_8 
REMARK    5  A    between atoms: C_8  and  C_12 
ROOT
ATOM      1  C   UNL d   1      31.439  16.871 -24.131  0.00  0.00     0.104 A 
ATOM      2  C   UNL d   1      31.925  16.484 -24.648  0.00  0.00     0.012 A 
ATOM      3  C   UNL d   1      31.656  17.578 -23.799  0.00  0.00     0.013 A 
ATOM      4  C   UNL d   1      32.401  17.914 -23.997  0.00  0.00     0.001 A 
ATOM      5  C   UNL d   1      32.670  16.820 -24.845  0.00  0.00     0.001 A 
ATOM      6  C   UNL d   1      32.887  17.525 -24.515  0.00  0.00     0.000 A 
ATOM      7  C   UNL d   1      31.692  15.752 -24.986  0.00  0.00     0.001 C 
ENDROOT
BRANCH   1   8
ATOM      8  S   UNL d   1      30.695  16.535 -23.933  0.00  0.00     0.271 S 
ATOM      9  O   UNL d   1      30.323  17.058 -24.441  0.00  0.00    -0.200 OA
ATOM     10  O   UNL d   1      31.076  15.997 -23.413  0.00  0.00    -0.200 OA
BRANCH   8  11
ATOM     11  N   UNL d   1      29.967  16.213 -23.746  0.00  0.00    -0.229 N 
ATOM     12  C   UNL d   1      29.883  15.778 -23.054  0.00  0.00     0.092 A 
ATOM     13  C   UNL d   1      29.145  15.452 -22.866  0.00  0.00     0.020 A 
ATOM     14  C   UNL d   1      28.493  15.564 -23.372  0.00  0.00     0.003 A 
ATOM     15  C   UNL d   1      28.604  16.000 -24.053  0.00  0.00     0.020 A 
ATOM     16  C   UNL d   1      29.337  16.326 -24.244  0.00  0.00     0.092 A 
ENDBRANCH   8  11
ENDBRANCH   1   8
BRANCH   4  17
ATOM     17  C   UNL d   1      32.623  18.658 -23.645  0.00  0.00     0.006 C 
BRANCH  17  18
ATOM     18  C   UNL d   1      33.066  18.691 -22.937  0.00  0.00     0.070 C 
BRANCH  18  19
ATOM     19  C   UNL d   1      33.172  19.405 -22.551  0.00  0.00     0.211 C 
ATOM     20  O   UNL d   1      33.241  19.426 -21.721  0.00  0.00    -0.644 OA
ATOM     21  O   UNL d   1      33.212  20.102 -22.975  0.00  0.00    -0.644 OA
ENDBRANCH  18  19
ENDBRANCH  17  18
ENDBRANCH   4  17
TORSDOF 5
ENDMDL
MODEL 6
REMARK VINA RESULT:      -0.9      2.590      4.873
REMARK  5 active torsions:
REMARK  status: ('A' for Active; 'I' for Inactive)
REMARK    1  A    between atoms: C_2  and  S_1 
REMARK    2  A    between atoms: N_3  and  S_1 
REMARK    3  A    between atoms: C_6  and  C_7 
REMARK    4  A    between atoms: C_7  and  C_8 
REMARK    5  A    between atoms: C_8  and  C_12 
ROOT
ATOM      1  C   UNL d   1      32.782  19.643 -22.582  0.00  0.00     0.104 A 
ATOM      2  C   UNL d   1      33.062  19.331 -21.890  0.00  0.00     0.012 A 
ATOM      3  C   UNL d   1      32.670  20.442 -22.667  0.00  0.00     0.013 A 
ATOM      4  C   UNL d   1      32.849  20.954 -22.025  0.00  0.00     0.001 A 
ATOM      5  C   UNL d   1      33.240  19.843 -21.248  0.00  0.00     0.001 A 
ATOM      6  C   UNL d   1      33.129  20.639 -21.332  0.00  0.00     0.000 A 
ATOM      7  C   UNL d   1      33.174  18.503 -21.811  0.00  0.00     0.001 C 
ENDROOT
BRANCH   1   8
ATOM      8  S   UNL d   1      32.603  19.132 -23.223  0.00  0.00     0.271 S 
ATOM      9  O   UNL d   1      32.042  18.752 -22.765  0.00  0.00    -0.200 OA
ATOM     10  O   UNL d   1      33.180  19.521 -23.694  0.00  0.00    -0.200 OA
BRANCH   8  11
ATOM     11  N   UNL d   1      32.424  18.631 -23.843  0.00  0.00    -0.229 N 
ATOM     12  C   UNL d   1      32.973  18.518 -24.444  0.00  0.00     0.092 A 
ATOM     13  C   UNL d   1      32.790  18.009 -25.072  0.00  0.00     0.020 A 
ATOM     14  C   UNL d   1      32.057  17.615 -25.096  0.00  0.00     0.003 A 
ATOM     15  C   UNL d   1      31.530  17.745 -24.486  0.00  0.00     0.020 A 
ATOM     16  C   UNL d   1      31.708  18.250 -23.859  0.00  0.00     0.092 A 
ENDBRANCH   8  11
ENDBRANCH   1   8
BRANCH   4  17
ATOM     17  C   UNL d   1      32.729  21.792 -22.120  0.00  0.00     0.006 C 
BRANCH  17  18
ATOM     18  C   UNL d   1      32.316  22.243 -21.551  0.00  0.00     0.070 C 
BRANCH  18  19
ATOM     19  C   UNL d   1      32.280  23.058 -21.617  0.00  0.00     0.211 C 
ATOM     20  O   UNL d   1      31.572  23.462 -21.444  0.00  0.00    -0.644 OA
ATOM     21  O   UNL d   1      32.937  23.483 -21.854  0.00  0.00    -0.644 OA
ENDBRANCH  18  19
ENDBRANCH  17  18
ENDBRANCH   4  17
TORSDOF 5
ENDMDL
MODEL 7
REMARK VINA RESULT:      -0.8      2.496      4.071
REMARK  5 active torsions:
REMARK  status: ('A' for Active; 'I' for Inactive)
REMARK    1  A    between atoms: C_2  and  S_1 
REMARK    2  A    between atoms: N_3  and  S_1 
REMARK    3  A    between atoms: C_6  and  C_7 
REMARK    4  A    between atoms: C_7  and  C_8 
REMARK    5  A    between atoms: C_8  and  C_12 
ROOT
ATOM      1  C   UNL d   1      32.914  20.110 -22.626  0.00  0.00     0.104 A 
ATOM      2  C   UNL d   1      33.126  20.388 -23.355  0.00  0.00     0.012 A 
ATOM      3  C   UNL d   1      32.801  19.317 -22.496  0.00  0.00     0.013 A 
ATOM      4  C   UNL d   1      32.907  18.777 -23.130  0.00  0.00     0.001 A 
ATOM      5  C   UNL d   1      33.233  19.848 -23.989  0.00  0.00     0.001 A 
ATOM      6  C   UNL d   1      33.120  19.058 -23.860  0.00  0.00     0.000 A 
ATOM      7  C   UNL d   1      33.241  21.211 -23.480  0.00  0.00     0.001 C 
ENDROOT
BRANCH   1   8
ATOM      8  S   UNL d   1      32.808  20.651 -21.992  0.00  0.00     0.271 S 
ATOM      9  O   UNL d   1      32.386  21.148 -22.486  0.00  0.00    -0.200 OA
ATOM     10  O   UNL d   1      33.241  20.140 -21.484  0.00  0.00    -0.200 OA
BRANCH   8  11
ATOM     11  N   UNL d   1      32.701  21.181 -21.380  0.00  0.00    -0.229 N 
ATOM     12  C   UNL d   1      32.303  21.886 -21.521  0.00  0.00     0.092 A 
ATOM     13  C   UNL d   1      32.195  22.424 -20.900  0.00  0.00     0.020 A 
ATOM     14  C   UNL d   1      32.486  22.253 -20.138  0.00  0.00     0.003 A 
ATOM     15  C   UNL d   1      32.877  21.545 -20.026  0.00  0.00     0.020 A 
ATOM     16  C   UNL d   1      32.987  21.007 -20.642  0.00  0.00     0.092 A 
ENDBRANCH   8  11
ENDBRANCH   1   8
BRANCH   4  17
ATOM     17  C   UNL d   1      32.788  17.945 -22.987  0.00  0.00     0.006 C 
BRANCH  17  18
ATOM     18  C   UNL d   1      32.581  17.421 -23.604  0.00  0.00     0.070 C 
BRANCH  18  19
ATOM     19  C   UNL d   1      32.206  16.713 -23.434  0.00  0.00     0.211 C 
ATOM     20  O   UNL d   1      31.378  16.652 -23.496  0.00  0.00    -0.644 OA
ATOM     21  O   UNL d   1      32.640  16.060 -23.204  0.00  0.00    -0.644 OA
ENDBRANCH  18  19
ENDBRANCH  17  18
ENDBRANCH   4  17
TORSDOF 5
ENDMDL
MODEL 8
REMARK VINA RESULT:      -0.2      3.504      5.454
REMARK  5 active torsions:
REMARK  status: ('A' for Active; 'I' for Inactive)
REMARK    1  A    between atoms: C_2  and  S_1 
REMARK    2  A    between atoms: N_3  and  S_1 
REMARK    3  A    between atoms: C_6  and  C_7 
REMARK    4  A    between atoms: C_7  and  C_8 
REMARK    5  A    between atoms: C_8  and  C_12 
ROOT
ATOM      1  C   UNL d   1      33.030  21.561 -22.109  0.00  0.00     0.104 A 
ATOM      2  C   UNL d   1      33.088  21.919 -22.831  0.00  0.00     0.012 A 
ATOM      3  C   UNL d   1      33.069  20.754 -22.037  0.00  0.00     0.013 A 
ATOM      4  C   UNL d   1      33.172  20.283 -22.724  0.00  0.00     0.001 A 
ATOM      5  C   UNL d   1      33.191  21.449 -23.519  0.00  0.00     0.001 A 
ATOM      6  C   UNL d   1      33.230  20.645 -23.448  0.00  0.00     0.000 A 
ATOM      7  C   UNL d   1      33.047  22.755 -22.897  0.00  0.00     0.001 C 
ENDROOT
BRANCH   1   8
ATOM      8  S   UNL d   1      32.927  22.032 -21.421  0.00  0.00     0.271 S 
ATOM      9  O   UNL d   1      32.806  21.356 -20.976  0.00  0.00    -0.200 OA
ATOM     10  O   UNL d   1      33.051  22.726 -21.877  0.00  0.00    -0.200 OA
BRANCH   8  11
ATOM     11  N   UNL d   1      32.826  22.483 -20.747  0.00  0.00    -0.229 N 
ATOM     12  C   UNL d   1      32.316  23.127 -20.765  0.00  0.00     0.092 A 
ATOM     13  C   UNL d   1      32.214  23.584 -20.082  0.00  0.00     0.020 A 
ATOM     14  C   UNL d   1      32.624  23.394 -19.382  0.00  0.00     0.003 A 
ATOM     15  C   UNL d   1      33.124  22.749 -19.392  0.00  0.00     0.020 A 
ATOM     16  C   UNL d   1      33.228  22.291 -20.070  0.00  0.00     0.092 A 
ENDBRANCH   8  11
ENDBRANCH   1   8
BRANCH   4  17
ATOM     17  C   UNL d   1      33.212  19.436 -22.642  0.00  0.00     0.006 C 
BRANCH  17  18
ATOM     18  C   UNL d   1      32.785  18.926 -23.148  0.00  0.00     0.070 C 
BRANCH  18  19
ATOM     19  C   UNL d   1      32.981  18.133 -23.195  0.00  0.00     0.211 C 
ATOM     20  O   UNL d   1      33.056  17.678 -22.501  0.00  0.00    -0.644 OA
ATOM     21  O   UNL d   1      33.105  17.780 -23.922  0.00  0.00    -0.644 OA
ENDBRANCH  18  19
ENDBRANCH  17  18
ENDBRANCH   4  17
TORSDOF 5
ENDMDL
MODEL 9
REMARK VINA RESULT:      -0.1      2.438      4.890
REMARK  5 active torsions:
REMARK  status: ('A' for Active; 'I' for Inactive)
REMARK    1  A    between atoms: C_2  and  S_1 
REMARK    2  A    between atoms: N_3  and  S_1 
REMARK    3  A    between atoms: C_6  and  C_7 
REMARK    4  A    between atoms: C_7  and  C_8 
REMARK    5  A    between atoms: C_8  and  C_12 
ROOT
ATOM      1  C   UNL d   1      33.058  19.772 -23.180  0.00  0.00     0.104 A 
ATOM      2  C   UNL d   1      33.145  20.254 -23.823  0.00  0.00     0.012 A 
ATOM      3  C   UNL d   1      33.060  20.072 -22.426  0.00  0.00     0.013 A 
ATOM      4  C   UNL d   1      33.154  20.899 -22.313  0.00  0.00     0.001 A 
ATOM      5  C   UNL d   1      33.239  21.081 -23.709  0.00  0.00     0.001 A 
ATOM      6  C   UNL d   1      33.241  21.381 -22.959  0.00  0.00     0.000 A 
ATOM      7  C   UNL d   1      33.142  19.934 -24.599  0.00  0.00     0.001 C 
ENDROOT
BRANCH   1   8
ATOM      8  S   UNL d   1      32.964  18.945 -23.293  0.00  0.00     0.271 S 
ATOM      9  O   UNL d   1      33.193  19.026 -24.074  0.00  0.00    -0.200 OA
ATOM     10  O   UNL d   1      32.729  18.861 -22.491  0.00  0.00    -0.200 OA
BRANCH   8  11
ATOM     11  N   UNL d   1      32.875  18.141 -23.411  0.00  0.00    -0.229 N 
ATOM     12  C   UNL d   1      32.435  17.873 -24.051  0.00  0.00     0.092 A 
ATOM     13  C   UNL d   1      32.345  17.057 -24.169  0.00  0.00     0.020 A 
ATOM     14  C   UNL d   1      32.697  16.513 -23.646  0.00  0.00     0.003 A 
ATOM     15  C   UNL d   1      33.129  16.807 -23.018  0.00  0.00     0.020 A 
ATOM     16  C   UNL d   1      33.221  17.618 -22.897  0.00  0.00     0.092 A 
ENDBRANCH   8  11
ENDBRANCH   1   8
BRANCH   4  17
ATOM     17  C   UNL d   1      33.155  21.209 -21.518  0.00  0.00     0.006 C 
BRANCH  17  18
ATOM     18  C   UNL d   1      32.557  21.727 -21.251  0.00  0.00     0.070 C 
BRANCH  18  19
ATOM     19  C   UNL d   1      32.572  22.012 -20.484  0.00  0.00     0.211 C 
ATOM     20  O   UNL d   1      32.237  22.754 -20.305  0.00  0.00    -0.644 OA
ATOM     21  O   UNL d   1      32.915  21.573 -19.886  0.00  0.00    -0.644 OA
ENDBRANCH  18  19
ENDBRANCH  17  18
ENDBRANCH   4  17
TORSDOF 5
ENDMDL
