MODEL 1
REMARK VINA RESULT:      18.6      0.000      0.000
REMARK  5 active torsions:
REMARK  status: ('A' for Active; 'I' for Inactive)
REMARK       I    between atoms: C_2  and  N_1 
REMARK    1  A    between atoms: C_3  and  N_1 
REMARK    2  A    between atoms: C_4  and  C_2 
REMARK    3  A    between atoms: N_6  and  C_3 
REMARK    4  A    between atoms: C_11  and  N_6 
REMARK    5  A    between atoms: C_12  and  C_11 
ROOT
ATOM      1  N   UNL d   1      14.446  12.799  -1.253  0.00  0.00    -0.179 NA
ATOM      2  C   UNL d   1      13.882  12.266  -1.494  0.00  0.00     0.281 C 
ATOM      3  O   UNL d   1      13.517  11.780  -0.930  0.00  0.00    -0.265 OA
ENDROOT
BRANCH   1   4
ATOM      4  C   UNL d   1      14.668  12.874  -0.466  0.00  0.00     0.224 C 
ATOM      5  S   UNL d   1      14.865  12.205  -0.022  0.00  0.00    -0.037 SA
BRANCH   4   6
ATOM      6  N   UNL d   1      14.693  13.614  -0.129  0.00  0.00    -0.214 NA
BRANCH   6   7
ATOM      7  C   UNL d   1      15.395  14.052  -0.147  0.00  0.00     0.126 C 
BRANCH   7   8
ATOM      8  C   UNL d   1      15.372  14.874  -0.296  0.00  0.00     0.119 A 
ATOM      9  O   UNL d   1      14.805  15.258  -0.755  0.00  0.00    -0.304 OA
ATOM     10  C   UNL d   1      14.981  16.065  -0.762  0.00  0.00     0.123 A 
ATOM     11  C   UNL d   1      15.660  16.167  -0.303  0.00  0.00     0.029 A 
ATOM     12  C   UNL d   1      15.893  15.435  -0.022  0.00  0.00     0.028 A 
ENDBRANCH   7   8
ENDBRANCH   6   7
ENDBRANCH   4   6
ENDBRANCH   1   4
BRANCH   2  13
ATOM     13  C   UNL d   1      13.675  12.210  -2.300  0.00  0.00     0.058 A 
ATOM     14  C   UNL d   1      14.180  12.536  -2.850  0.00  0.00     0.005 A 
ATOM     15  C   UNL d   1      13.988  12.489  -3.653  0.00  0.00     0.000 A 
ATOM     16  C   UNL d   1      13.298  12.119  -3.902  0.00  0.00     0.000 A 
ATOM     17  C   UNL d   1      12.794  11.791  -3.325  0.00  0.00     0.000 A 
ATOM     18  C   UNL d   1      13.122  12.082  -4.718  0.00  0.00     0.000 C 
ATOM     19  C   UNL d   1      12.988  11.841  -2.535  0.00  0.00     0.005 A 
ENDBRANCH   2  13
TORSDOF 5
ENDMDL
