MODEL 1
REMARK VINA RESULT:      -5.2      0.000      0.000
REMARK  3 active torsions:
REMARK  status: ('A' for Active; 'I' for Inactive)
REMARK    1  A    between atoms: C_2  and  C_1 
REMARK       I    between atoms: N_3  and  C_2 
REMARK    2  A    between atoms: C_21  and  N_4 
REMARK    3  A    between atoms: C_20  and  C_21 
ROOT
ATOM      1  C   UNL d   1      59.523  -1.280  28.862  0.00  0.00     0.255 C 
ATOM      2  N   UNL d   1      59.013  -0.788  29.322  0.00  0.00    -0.271 N 
ATOM      3  N   UNL d   1      58.026   0.189  30.221  0.00  0.00    -0.300 N 
ATOM      4  O   UNL d   1      60.153  -0.977  28.548  0.00  0.00    -0.270 OA
ATOM      5  C   UNL d   1      59.189   0.006  29.434  0.00  0.00     0.102 A 
ATOM      6  C   UNL d   1      58.333  -1.103  29.665  0.00  0.00     0.102 A 
ATOM      7  C   UNL d   1      57.828  -0.617  30.120  0.00  0.00     0.100 A 
ATOM      8  C   UNL d   1      58.713   0.504  29.875  0.00  0.00     0.100 A 
ENDROOT
BRANCH   1   9
ATOM      9  C   UNL d   1      59.343  -2.057  28.758  0.00  0.00     0.137 A 
ATOM     10  C   UNL d   1      60.089  -2.382  28.699  0.00  0.00     0.033 A 
ATOM     11  C   UNL d   1      60.263  -3.180  28.586  0.00  0.00     0.046 A 
ATOM     12  C   UNL d   1      59.938  -3.896  28.493  0.00  0.00    -0.015 A 
ATOM     13  C   UNL d   1      59.705  -3.699  28.524  0.00  0.00    -0.022 A 
ATOM     14  C   UNL d   1      59.193  -3.822  28.517  0.00  0.00     0.027 A 
ATOM     15  C   UNL d   1      59.114  -3.027  28.628  0.00  0.00    -0.117 A 
ATOM     16  C   UNL d   1      58.515  -4.289  28.464  0.00  0.00     0.006 A 
ATOM     17  C   UNL d   1      58.770  -3.302  28.596  0.00  0.00    -0.006 A 
ATOM     18  C   UNL d   1      58.678  -2.520  28.706  0.00  0.00    -0.007 A 
ENDBRANCH   1   9
BRANCH   3  19
ATOM     19  C   UNL d   1      57.673   0.682  30.583  0.00  0.00     0.080 C 
BRANCH  19  20
ATOM     20  C   UNL d   1      57.473   0.546  31.365  0.00  0.00     0.020 A 
ATOM     21  C   UNL d   1      56.719   0.271  31.572  0.00  0.00     0.028 A 
ATOM     22  C   UNL d   1      56.513   0.132  32.364  0.00  0.00     0.119 A 
ATOM     23  O   UNL d   1      55.819  -0.133  32.684  0.00  0.00    -0.300 OA
ATOM     24  C   UNL d   1      57.063   0.266  32.973  0.00  0.00     0.119 A 
ATOM     25  C   UNL d   1      55.904  -0.177  33.531  0.00  0.00     0.304 A 
ATOM     26  O   UNL d   1      56.682   0.075  33.681  0.00  0.00    -0.300 OA
ATOM     27  C   UNL d   1      57.828   0.545  32.769  0.00  0.00     0.026 A 
ATOM     28  C   UNL d   1      58.029   0.682  31.979  0.00  0.00     0.004 A 
ENDBRANCH  19  20
ENDBRANCH   3  19
TORSDOF 3
ENDMDL
MODEL 2
REMARK VINA RESULT:      -4.5      1.090      5.448
REMARK  3 active torsions:
REMARK  status: ('A' for Active; 'I' for Inactive)
REMARK    1  A    between atoms: C_2  and  C_1 
REMARK       I    between atoms: N_3  and  C_2 
REMARK    2  A    between atoms: C_21  and  N_4 
REMARK    3  A    between atoms: C_20  and  C_21 
ROOT
ATOM      1  C   UNL d   1      57.459   0.550  33.090  0.00  0.00     0.255 C 
ATOM      2  N   UNL d   1      57.694   0.581  32.279  0.00  0.00    -0.271 N 
ATOM      3  N   UNL d   1      58.173   0.642  30.697  0.00  0.00    -0.300 N 
ATOM      4  O   UNL d   1      57.994   0.587  33.637  0.00  0.00    -0.270 OA
ATOM      5  C   UNL d   1      58.488   0.649  32.078  0.00  0.00     0.102 A 
ATOM      6  C   UNL d   1      57.128   0.543  31.682  0.00  0.00     0.102 A 
ATOM      7  C   UNL d   1      57.360   0.573  30.880  0.00  0.00     0.100 A 
ATOM      8  C   UNL d   1      58.742   0.681  31.301  0.00  0.00     0.100 A 
ENDROOT
BRANCH   1   9
ATOM      9  C   UNL d   1      56.680   0.484  33.279  0.00  0.00     0.137 A 
ATOM     10  C   UNL d   1      56.698   0.661  34.076  0.00  0.00     0.033 A 
ATOM     11  C   UNL d   1      56.048   0.682  34.582  0.00  0.00     0.046 A 
ATOM     12  C   UNL d   1      55.263   0.581  34.617  0.00  0.00    -0.015 A 
ATOM     13  C   UNL d   1      55.344   0.528  34.326  0.00  0.00    -0.022 A 
ATOM     14  C   UNL d   1      55.019   0.397  33.933  0.00  0.00     0.027 A 
ATOM     15  C   UNL d   1      55.706   0.399  33.510  0.00  0.00    -0.117 A 
ATOM     16  C   UNL d   1      54.312   0.214  33.549  0.00  0.00     0.006 A 
ATOM     17  C   UNL d   1      55.312   0.305  33.332  0.00  0.00    -0.006 A 
ATOM     18  C   UNL d   1      55.982   0.304  32.904  0.00  0.00    -0.007 A 
ENDBRANCH   1   9
BRANCH   3  19
ATOM     19  C   UNL d   1      58.474   0.676  30.059  0.00  0.00     0.080 C 
BRANCH  19  20
ATOM     20  C   UNL d   1      58.801   0.002  29.728  0.00  0.00     0.020 A 
ATOM     21  C   UNL d   1      58.330  -0.654  29.541  0.00  0.00     0.028 A 
ATOM     22  C   UNL d   1      58.658  -1.339  29.206  0.00  0.00     0.119 A 
ATOM     23  O   UNL d   1      58.306  -2.032  28.983  0.00  0.00    -0.300 OA
ATOM     24  C   UNL d   1      59.474  -1.382  29.049  0.00  0.00     0.119 A 
ATOM     25  C   UNL d   1      58.899  -2.556  28.668  0.00  0.00     0.304 A 
ATOM     26  O   UNL d   1      59.611  -2.129  28.721  0.00  0.00    -0.300 OA
ATOM     27  C   UNL d   1      59.956  -0.721  29.237  0.00  0.00     0.026 A 
ATOM     28  C   UNL d   1      59.624  -0.041  29.571  0.00  0.00     0.004 A 
ENDBRANCH  19  20
ENDBRANCH   3  19
TORSDOF 3
ENDMDL
