MODEL 1
REMARK VINA RESULT:     -10.5      0.000      0.000
REMARK  4 active torsions:
REMARK  status: ('A' for Active; 'I' for Inactive)
REMARK    1  A    between atoms: C_7  and  C_1 
REMARK    2  A    between atoms: C_13  and  N_2 
REMARK    3  A    between atoms: C_8  and  C_7 
REMARK    4  A    between atoms: N_9  and  C_14 
ROOT
ATOM      1  N   UNL d   1      50.428  34.177  52.565  0.00  0.00    -0.242 N 
ATOM      2  C   UNL d   1      50.528  33.745  53.269  0.00  0.00     0.267 A 
ATOM      3  C   UNL d   1      51.164  34.223  52.194  0.00  0.00     0.267 A 
ATOM      4  C   UNL d   1      51.717  33.825  52.660  0.00  0.00     0.062 A 
ATOM      5  C   UNL d   1      51.325  33.530  53.323  0.00  0.00     0.066 A 
ATOM      6  O   UNL d   1      49.936  33.568  53.808  0.00  0.00    -0.267 OA
ATOM      7  O   UNL d   1      51.316  34.605  51.476  0.00  0.00    -0.267 OA
ENDROOT
BRANCH   4   8
ATOM      8  C   UNL d   1      52.518  33.737  52.492  0.00  0.00     0.018 C 
BRANCH   8   9
ATOM      9  C   UNL d   1      52.974  33.599  53.157  0.00  0.00     0.045 A 
ATOM     10  N   UNL d   1      53.236  34.164  53.690  0.00  0.00    -0.308 N 
ATOM     11  C   UNL d   1      53.674  33.794  54.272  0.00  0.00     0.060 A 
ATOM     12  C   UNL d   1      53.082  34.974  53.644  0.00  0.00     0.099 C 
ATOM     13  C   UNL d   1      54.062  34.079  54.932  0.00  0.00     0.017 A 
ATOM     14  C   UNL d   1      53.686  32.991  54.103  0.00  0.00    -0.002 A 
ATOM     15  C   UNL d   1      54.469  33.558  55.432  0.00  0.00     0.002 A 
ATOM     16  C   UNL d   1      54.476  32.751  55.254  0.00  0.00    -0.000 A 
ATOM     17  C   UNL d   1      54.089  32.471  54.597  0.00  0.00    -0.003 A 
ATOM     18  C   UNL d   1      53.253  32.869  53.411  0.00  0.00     0.054 A 
ATOM     19  C   UNL d   1      53.149  32.119  53.076  0.00  0.00     0.010 C 
ATOM     20  C   UNL d   1      53.591  32.205  53.772  0.00  0.00     0.010 C 
ENDBRANCH   8   9
ENDBRANCH   4   8
BRANCH   1  21
ATOM     21  C   UNL d   1      49.729  34.499  52.289  0.00  0.00     0.070 A 
ATOM     22  C   UNL d   1      49.396  34.232  51.578  0.00  0.00     0.019 A 
ATOM     23  C   UNL d   1      48.692  34.561  51.307  0.00  0.00     0.025 A 
ATOM     24  C   UNL d   1      48.320  35.150  51.737  0.00  0.00     0.127 A 
ATOM     25  C   UNL d   1      48.653  35.416  52.448  0.00  0.00     0.025 A 
ATOM     26  C   UNL d   1      49.356  35.092  52.724  0.00  0.00     0.019 A 
BRANCH  24  27
ATOM     27  N   UNL d   1      47.616  35.479  51.467  0.00  0.00    -0.114 N 
ATOM     28  O   UNL d   1      47.110  35.043  50.986  0.00  0.00    -0.532 OA
ATOM     29  O   UNL d   1      47.417  36.245  51.677  0.00  0.00    -0.532 OA
ENDBRANCH  24  27
ENDBRANCH   1  21
TORSDOF 4
ENDMDL
MODEL 2
REMARK VINA RESULT:     -10.3      0.333      1.162
REMARK  4 active torsions:
REMARK  status: ('A' for Active; 'I' for Inactive)
REMARK    1  A    between atoms: C_7  and  C_1 
REMARK    2  A    between atoms: C_13  and  N_2 
REMARK    3  A    between atoms: C_8  and  C_7 
REMARK    4  A    between atoms: N_9  and  C_14 
ROOT
ATOM      1  N   UNL d   1      50.441  34.171  52.534  0.00  0.00    -0.242 N 
ATOM      2  C   UNL d   1      50.532  33.659  53.184  0.00  0.00     0.267 A 
ATOM      3  C   UNL d   1      51.190  34.300  52.212  0.00  0.00     0.267 A 
ATOM      4  C   UNL d   1      51.742  33.874  52.654  0.00  0.00     0.062 A 
ATOM      5  C   UNL d   1      51.336  33.478  53.254  0.00  0.00     0.066 A 
ATOM      6  O   UNL d   1      49.927  33.385  53.664  0.00  0.00    -0.267 OA
ATOM      7  O   UNL d   1      51.354  34.777  51.557  0.00  0.00    -0.267 OA
ENDROOT
BRANCH   4   8
ATOM      8  C   UNL d   1      52.554  33.849  52.521  0.00  0.00     0.018 C 
BRANCH   8   9
ATOM      9  C   UNL d   1      52.987  33.677  53.193  0.00  0.00     0.045 A 
ATOM     10  N   UNL d   1      53.209  32.930  53.448  0.00  0.00    -0.308 N 
ATOM     11  C   UNL d   1      53.634  33.004  54.141  0.00  0.00     0.060 A 
ATOM     12  C   UNL d   1      53.030  32.221  53.064  0.00  0.00     0.099 C 
ATOM     13  C   UNL d   1      53.986  32.453  54.631  0.00  0.00     0.017 A 
ATOM     14  C   UNL d   1      53.679  33.803  54.323  0.00  0.00    -0.002 A 
ATOM     15  C   UNL d   1      54.389  32.699  55.312  0.00  0.00     0.002 A 
ATOM     16  C   UNL d   1      54.429  33.506  55.487  0.00  0.00    -0.000 A 
ATOM     17  C   UNL d   1      54.079  34.052  54.998  0.00  0.00    -0.003 A 
ATOM     18  C   UNL d   1      53.278  34.221  53.735  0.00  0.00     0.054 A 
ATOM     19  C   UNL d   1      53.212  35.047  53.742  0.00  0.00     0.010 C 
ATOM     20  C   UNL d   1      53.623  34.659  54.348  0.00  0.00     0.010 C 
ENDBRANCH   8   9
ENDBRANCH   4   8
BRANCH   1  21
ATOM     21  C   UNL d   1      49.739  34.489  52.263  0.00  0.00     0.070 A 
ATOM     22  C   UNL d   1      49.429  34.259  51.529  0.00  0.00     0.019 A 
ATOM     23  C   UNL d   1      48.723  34.584  51.263  0.00  0.00     0.025 A 
ATOM     24  C   UNL d   1      48.323  35.134  51.721  0.00  0.00     0.127 A 
ATOM     25  C   UNL d   1      48.633  35.364  52.455  0.00  0.00     0.025 A 
ATOM     26  C   UNL d   1      49.339  35.043  52.726  0.00  0.00     0.019 A 
BRANCH  24  27
ATOM     27  N   UNL d   1      47.616  35.459  51.456  0.00  0.00    -0.114 N 
ATOM     28  O   UNL d   1      47.405  36.227  51.666  0.00  0.00    -0.532 OA
ATOM     29  O   UNL d   1      47.118  35.017  50.979  0.00  0.00    -0.532 OA
ENDBRANCH  24  27
ENDBRANCH   1  21
TORSDOF 4
ENDMDL
