MODEL 1
REMARK VINA RESULT:      -2.4      0.000      0.000
REMARK  5 active torsions:
REMARK  status: ('A' for Active; 'I' for Inactive)
REMARK    1  A    between atoms: N_6  and  S_1 
REMARK    2  A    between atoms: C_11  and  S_1 
REMARK    3  A    between atoms: C_2  and  N_5 
REMARK    4  A    between atoms: C_9  and  C_4 
REMARK       I    between atoms: N_5  and  C_7 
REMARK    5  A    between atoms: C_7  and  C_15 
ROOT
ATOM      1  C   UNL d   1      32.726  18.721 -23.054  0.00  0.00     0.104 A 
ATOM      2  C   UNL d   1      32.890  20.197 -22.332  0.00  0.00     0.058 A 
ATOM      3  C   UNL d   1      32.409  19.396 -23.412  0.00  0.00     0.013 A 
ATOM      4  C   UNL d   1      33.136  18.790 -22.314  0.00  0.00     0.013 A 
ATOM      5  C   UNL d   1      32.479  20.125 -23.076  0.00  0.00     0.005 A 
ATOM      6  C   UNL d   1      33.206  19.529 -21.973  0.00  0.00     0.005 A 
ENDROOT
BRANCH   2   7
ATOM      7  C   UNL d   1      32.975  20.956 -21.959  0.00  0.00     0.281 C 
ATOM      8  N   UNL d   1      32.863  21.029 -21.144  0.00  0.00    -0.183 NA
ATOM      9  O   UNL d   1      33.171  21.632 -22.399  0.00  0.00    -0.265 OA
BRANCH   8  10
ATOM     10  C   UNL d   1      32.949  21.772 -20.788  0.00  0.00     0.197 A 
ATOM     11  N   UNL d   1      32.717  21.892 -19.979  0.00  0.00    -0.220 NA
ATOM     12  C   UNL d   1      32.865  22.668 -19.789  0.00  0.00     0.096 A 
ATOM     13  C   UNL d   1      33.180  23.037 -20.446  0.00  0.00     0.058 A 
ATOM     14  S   UNL d   1      33.234  22.490 -21.067  0.00  0.00    -0.046 SA
BRANCH  12  15
ATOM     15  C   UNL d   1      32.742  23.052 -19.093  0.00  0.00     0.048 A 
ATOM     16  S   UNL d   1      33.241  23.245 -18.463  0.00  0.00    -0.085 SA
ATOM     17  C   UNL d   1      32.793  23.641 -17.905  0.00  0.00     0.035 A 
ATOM     18  C   UNL d   1      32.041  23.702 -18.161  0.00  0.00     0.007 A 
ATOM     19  C   UNL d   1      31.996  23.335 -18.908  0.00  0.00     0.009 A 
ENDBRANCH  12  15
ENDBRANCH   8  10
ENDBRANCH   2   7
BRANCH   1  20
ATOM     20  S   UNL d   1      32.656  17.960 -23.400  0.00  0.00     0.271 S 
ATOM     21  O   UNL d   1      33.175  17.642 -22.792  0.00  0.00    -0.200 OA
ATOM     22  O   UNL d   1      32.154  18.257 -23.992  0.00  0.00    -0.200 OA
BRANCH  20  23
ATOM     23  N   UNL d   1      32.598  17.182 -23.736  0.00  0.00    -0.229 N 
ATOM     24  C   UNL d   1      33.170  16.918 -24.273  0.00  0.00     0.092 A 
ATOM     25  C   UNL d   1      33.110  16.157 -24.600  0.00  0.00     0.020 A 
ATOM     26  C   UNL d   1      32.476  15.676 -24.381  0.00  0.00     0.003 A 
ATOM     27  C   UNL d   1      31.912  15.942 -23.850  0.00  0.00     0.020 A 
ATOM     28  C   UNL d   1      31.961  16.675 -23.528  0.00  0.00     0.092 A 
ENDBRANCH  20  23
ENDBRANCH   1  20
TORSDOF 5
ENDMDL
MODEL 2
REMARK VINA RESULT:      -2.3      1.264      6.420
REMARK  5 active torsions:
REMARK  status: ('A' for Active; 'I' for Inactive)
REMARK    1  A    between atoms: N_6  and  S_1 
REMARK    2  A    between atoms: C_11  and  S_1 
REMARK    3  A    between atoms: C_2  and  N_5 
REMARK    4  A    between atoms: C_9  and  C_4 
REMARK       I    between atoms: N_5  and  C_7 
REMARK    5  A    between atoms: C_7  and  C_15 
ROOT
ATOM      1  C   UNL d   1      32.800  21.173 -20.853  0.00  0.00     0.104 A 
ATOM      2  C   UNL d   1      32.835  19.913 -21.921  0.00  0.00     0.058 A 
ATOM      3  C   UNL d   1      32.393  21.226 -21.571  0.00  0.00     0.013 A 
ATOM      4  C   UNL d   1      33.236  20.469 -20.667  0.00  0.00     0.013 A 
ATOM      5  C   UNL d   1      32.397  20.622 -22.106  0.00  0.00     0.005 A 
ATOM      6  C   UNL d   1      33.241  19.857 -21.208  0.00  0.00     0.005 A 
ENDROOT
BRANCH   2   7
ATOM      7  C   UNL d   1      32.854  19.264 -22.469  0.00  0.00     0.281 C 
ATOM      8  N   UNL d   1      32.492  19.338 -23.208  0.00  0.00    -0.183 NA
ATOM      9  O   UNL d   1      33.232  18.550 -22.277  0.00  0.00    -0.265 OA
BRANCH   8  10
ATOM     10  C   UNL d   1      32.516  18.700 -23.736  0.00  0.00     0.197 A 
ATOM     11  N   UNL d   1      31.901  18.113 -23.731  0.00  0.00    -0.220 NA
ATOM     12  C   UNL d   1      32.076  17.564 -24.304  0.00  0.00     0.096 A 
ATOM     13  C   UNL d   1      32.773  17.784 -24.666  0.00  0.00     0.058 A 
ATOM     14  S   UNL d   1      33.051  18.484 -24.321  0.00  0.00    -0.046 SA
BRANCH  12  15
ATOM     15  C   UNL d   1      31.666  16.904 -24.515  0.00  0.00     0.048 A 
ATOM     16  S   UNL d   1      31.899  16.130 -24.688  0.00  0.00    -0.085 SA
ATOM     17  C   UNL d   1      31.226  15.703 -24.867  0.00  0.00     0.035 A 
ATOM     18  C   UNL d   1      30.587  16.176 -24.813  0.00  0.00     0.007 A 
ATOM     19  C   UNL d   1      30.851  16.935 -24.592  0.00  0.00     0.009 A 
ENDBRANCH  12  15
ENDBRANCH   8  10
ENDBRANCH   2   7
BRANCH   1  20
ATOM     20  S   UNL d   1      32.798  21.798 -20.295  0.00  0.00     0.271 S 
ATOM     21  O   UNL d   1      32.984  21.235 -19.672  0.00  0.00    -0.200 OA
ATOM     22  O   UNL d   1      32.617  22.351 -20.889  0.00  0.00    -0.200 OA
BRANCH  20  23
ATOM     23  N   UNL d   1      32.800  22.418 -19.714  0.00  0.00    -0.229 N 
ATOM     24  C   UNL d   1      33.241  22.334 -19.018  0.00  0.00     0.092 A 
ATOM     25  C   UNL d   1      33.241  22.942 -18.453  0.00  0.00     0.020 A 
ATOM     26  C   UNL d   1      32.798  23.623 -18.597  0.00  0.00     0.003 A 
ATOM     27  C   UNL d   1      32.364  23.702 -19.288  0.00  0.00     0.020 A 
ATOM     28  C   UNL d   1      32.357  23.122 -19.840  0.00  0.00     0.092 A 
ENDBRANCH  20  23
ENDBRANCH   1  20
TORSDOF 5
ENDMDL
MODEL 3
REMARK VINA RESULT:      -1.9      1.030      1.416
REMARK  5 active torsions:
REMARK  status: ('A' for Active; 'I' for Inactive)
REMARK    1  A    between atoms: N_6  and  S_1 
REMARK    2  A    between atoms: C_11  and  S_1 
REMARK    3  A    between atoms: C_2  and  N_5 
REMARK    4  A    between atoms: C_9  and  C_4 
REMARK       I    between atoms: N_5  and  C_7 
REMARK    5  A    between atoms: C_7  and  C_15 
ROOT
ATOM      1  C   UNL d   1      32.625  19.883 -22.626  0.00  0.00     0.104 A 
ATOM      2  C   UNL d   1      32.674  21.193 -21.622  0.00  0.00     0.058 A 
ATOM      3  C   UNL d   1      33.115  20.525 -22.804  0.00  0.00     0.013 A 
ATOM      4  C   UNL d   1      32.147  19.900 -21.925  0.00  0.00     0.013 A 
ATOM      5  C   UNL d   1      33.153  21.173 -22.327  0.00  0.00     0.005 A 
ATOM      6  C   UNL d   1      32.185  20.557 -21.441  0.00  0.00     0.005 A 
ENDROOT
BRANCH   2   7
ATOM      7  C   UNL d   1      32.697  21.866 -21.104  0.00  0.00     0.281 C 
ATOM      8  N   UNL d   1      33.018  21.792 -20.347  0.00  0.00    -0.183 NA
ATOM      9  O   UNL d   1      32.401  22.604 -21.344  0.00  0.00    -0.265 OA
BRANCH   8  10
ATOM     10  C   UNL d   1      33.037  22.453 -19.848  0.00  0.00     0.197 A 
ATOM     11  N   UNL d   1      32.815  22.383 -19.030  0.00  0.00    -0.220 NA
ATOM     12  C   UNL d   1      32.889  23.117 -18.688  0.00  0.00     0.096 A 
ATOM     13  C   UNL d   1      33.147  23.641 -19.257  0.00  0.00     0.058 A 
ATOM     14  S   UNL d   1      33.241  23.239 -19.976  0.00  0.00    -0.046 SA
BRANCH  12  15
ATOM     15  C   UNL d   1      32.745  23.337 -17.928  0.00  0.00     0.048 A 
ATOM     16  S   UNL d   1      33.240  23.480 -17.281  0.00  0.00    -0.085 SA
ATOM     17  C   UNL d   1      32.768  23.689 -16.649  0.00  0.00     0.035 A 
ATOM     18  C   UNL d   1      32.003  23.684 -16.873  0.00  0.00     0.007 A 
ATOM     19  C   UNL d   1      31.976  23.464 -17.676  0.00  0.00     0.009 A 
ENDBRANCH  12  15
ENDBRANCH   8  10
ENDBRANCH   2   7
BRANCH   1  20
ATOM     20  S   UNL d   1      32.583  19.206 -23.120  0.00  0.00     0.271 S 
ATOM     21  O   UNL d   1      32.632  18.703 -22.424  0.00  0.00    -0.200 OA
ATOM     22  O   UNL d   1      32.534  19.684 -23.798  0.00  0.00    -0.200 OA
BRANCH  20  23
ATOM     23  N   UNL d   1      32.541  18.509 -23.603  0.00  0.00    -0.229 N 
ATOM     24  C   UNL d   1      31.898  18.395 -24.113  0.00  0.00     0.092 A 
ATOM     25  C   UNL d   1      31.860  17.713 -24.584  0.00  0.00     0.020 A 
ATOM     26  C   UNL d   1      32.468  17.157 -24.535  0.00  0.00     0.003 A 
ATOM     27  C   UNL d   1      33.103  17.275 -24.029  0.00  0.00     0.020 A 
ATOM     28  C   UNL d   1      33.149  17.930 -23.570  0.00  0.00     0.092 A 
ENDBRANCH  20  23
ENDBRANCH   1  20
TORSDOF 5
ENDMDL
MODEL 4
REMARK VINA RESULT:      -0.3      1.146      6.486
REMARK  5 active torsions:
REMARK  status: ('A' for Active; 'I' for Inactive)
REMARK    1  A    between atoms: N_6  and  S_1 
REMARK    2  A    between atoms: C_11  and  S_1 
REMARK    3  A    between atoms: C_2  and  N_5 
REMARK    4  A    between atoms: C_9  and  C_4 
REMARK       I    between atoms: N_5  and  C_7 
REMARK    5  A    between atoms: C_7  and  C_15 
ROOT
ATOM      1  C   UNL d   1      32.728  20.974 -21.206  0.00  0.00     0.104 A 
ATOM      2  C   UNL d   1      32.560  19.716 -22.263  0.00  0.00     0.058 A 
ATOM      3  C   UNL d   1      32.243  20.332 -21.014  0.00  0.00     0.013 A 
ATOM      4  C   UNL d   1      33.139  20.984 -21.949  0.00  0.00     0.013 A 
ATOM      5  C   UNL d   1      32.147  19.709 -21.516  0.00  0.00     0.005 A 
ATOM      6  C   UNL d   1      33.043  20.352 -22.458  0.00  0.00     0.005 A 
ENDROOT
BRANCH   2   7
ATOM      7  C   UNL d   1      32.474  19.070 -22.808  0.00  0.00     0.281 C 
ATOM      8  N   UNL d   1      32.751  18.319 -22.604  0.00  0.00    -0.183 NA
ATOM      9  O   UNL d   1      32.116  19.177 -23.549  0.00  0.00    -0.265 OA
BRANCH   8  10
ATOM     10  C   UNL d   1      32.664  17.694 -23.141  0.00  0.00     0.197 A 
ATOM     11  N   UNL d   1      31.898  17.358 -23.290  0.00  0.00    -0.220 NA
ATOM     12  C   UNL d   1      31.989  16.763 -23.837  0.00  0.00     0.096 A 
ATOM     13  C   UNL d   1      32.779  16.715 -24.035  0.00  0.00     0.058 A 
ATOM     14  S   UNL d   1      33.202  17.287 -23.610  0.00  0.00    -0.046 SA
BRANCH  12  15
ATOM     15  C   UNL d   1      31.431  16.279 -24.156  0.00  0.00     0.048 A 
ATOM     16  S   UNL d   1      30.721  15.971 -23.864  0.00  0.00    -0.085 SA
ATOM     17  C   UNL d   1      30.391  15.510 -24.453  0.00  0.00     0.035 A 
ATOM     18  C   UNL d   1      30.863  15.518 -25.095  0.00  0.00     0.007 A 
ATOM     19  C   UNL d   1      31.521  15.999 -24.920  0.00  0.00     0.009 A 
ENDBRANCH  12  15
ENDBRANCH   8  10
ENDBRANCH   2   7
BRANCH   1  20
ATOM     20  S   UNL d   1      32.830  21.624 -20.688  0.00  0.00     0.271 S 
ATOM     21  O   UNL d   1      32.418  22.130 -21.249  0.00  0.00    -0.200 OA
ATOM     22  O   UNL d   1      33.230  21.145 -20.138  0.00  0.00    -0.200 OA
BRANCH  20  23
ATOM     23  N   UNL d   1      32.924  22.295 -20.175  0.00  0.00    -0.229 N 
ATOM     24  C   UNL d   1      32.826  22.210 -19.357  0.00  0.00     0.092 A 
ATOM     25  C   UNL d   1      32.919  22.868 -18.858  0.00  0.00     0.020 A 
ATOM     26  C   UNL d   1      33.108  23.599 -19.191  0.00  0.00     0.003 A 
ATOM     27  C   UNL d   1      33.205  23.678 -20.001  0.00  0.00     0.020 A 
ATOM     28  C   UNL d   1      33.118  23.050 -20.491  0.00  0.00     0.092 A 
ENDBRANCH  20  23
ENDBRANCH   1  20
TORSDOF 5
ENDMDL
