MODEL 1
REMARK VINA RESULT:     147.1      0.000      0.000
REMARK  4 active torsions:
REMARK  status: ('A' for Active; 'I' for Inactive)
REMARK    1  A    between atoms: N_8  and  C_1 
REMARK    2  A    between atoms: C_13  and  C_2 
REMARK    3  A    between atoms: C_6  and  C_11 
REMARK       I    between atoms: C_11  and  N_8 
REMARK    4  A    between atoms: O_20  and  C_13 
ROOT
ATOM      1  C   UNL d   1     -56.168-100.039 -43.897  0.00  0.00     0.119 A 
ATOM      2  C   UNL d   1     -56.823 -99.717 -44.282  0.00  0.00     0.087 A 
ATOM      3  C   UNL d   1     -56.579 -99.479 -45.029  0.00  0.00     0.008 A 
ATOM      4  C   UNL d   1     -55.786 -99.648 -45.111  0.00  0.00     0.028 A 
ATOM      5  S   UNL d   1     -55.521 -99.997 -44.409  0.00  0.00    -0.070 SA
ATOM      6  C   UNL d   1     -55.387 -99.466 -45.816  0.00  0.00     0.104 A 
ATOM      7  N   UNL d   1     -55.796 -99.112 -46.436  0.00  0.00    -0.294 NA
ATOM      8  C   UNL d   1     -56.602 -98.941 -46.352  0.00  0.00     0.099 A 
ATOM      9  C   UNL d   1     -56.996 -99.123 -45.649  0.00  0.00    -0.004 A 
ATOM     10  C   UNL d   1     -54.831 -99.364 -46.420  0.00  0.00     0.029 C 
ATOM     11  C   UNL d   1     -54.812 -99.806 -45.333  0.00  0.00     0.029 C 
ATOM     12  C   UNL d   1     -57.407 -98.770 -46.269  0.00  0.00     0.029 C 
ATOM     13  C   UNL d   1     -56.214 -98.757 -47.056  0.00  0.00     0.029 C 
ENDROOT
BRANCH   1  14
ATOM     14  N   UNL d   1     -56.155-100.350 -43.130  0.00  0.00    -0.200 NA
ATOM     15  C   UNL d   1     -55.837-101.100 -42.994  0.00  0.00     0.303 C 
ATOM     16  O   UNL d   1     -55.534-101.535 -43.622  0.00  0.00    -0.263 OA
BRANCH  15  17
ATOM     17  C   UNL d   1     -55.824-101.406 -42.239  0.00  0.00     0.169 A 
ATOM     18  N   UNL d   1     -56.451-101.778 -41.837  0.00  0.00    -0.234 NA
ATOM     19  C   UNL d   1     -56.175-101.998 -41.084  0.00  0.00     0.088 A 
ATOM     20  C   UNL d   1     -56.535-102.379 -40.446  0.00  0.00     0.020 A 
ATOM     21  C   UNL d   1     -55.384-101.753 -41.046  0.00  0.00     0.049 A 
ATOM     22  C   UNL d   1     -56.104-102.519 -39.763  0.00  0.00     0.002 A 
ATOM     23  C   UNL d   1     -55.314-102.280 -39.711  0.00  0.00     0.001 A 
ATOM     24  C   UNL d   1     -54.957-101.902 -40.344  0.00  0.00     0.008 A 
ATOM     25  S   UNL d   1     -55.185-101.399 -41.746  0.00  0.00    -0.062 SA
ENDBRANCH  15  17
ENDBRANCH   1  14
BRANCH   2  26
ATOM     26  C   UNL d   1     -57.575 -99.654 -43.964  0.00  0.00     0.298 C 
ATOM     27  O   UNL d   1     -58.069-100.318 -43.965  0.00  0.00    -0.259 OA
BRANCH  26  28
ATOM     28  O   UNL d   1     -57.841 -98.931 -43.643  0.00  0.00    -0.296 OA
ATOM     29  C   UNL d   1     -58.633 -98.838 -43.442  0.00  0.00     0.185 C 
ENDBRANCH  26  28
ENDBRANCH   2  26
TORSDOF 4
ENDMDL
MODEL 2
REMARK VINA RESULT:     149.9      1.733      5.089
REMARK  4 active torsions:
REMARK  status: ('A' for Active; 'I' for Inactive)
REMARK    1  A    between atoms: N_8  and  C_1 
REMARK    2  A    between atoms: C_13  and  C_2 
REMARK    3  A    between atoms: C_6  and  C_11 
REMARK       I    between atoms: C_11  and  N_8 
REMARK    4  A    between atoms: O_20  and  C_13 
ROOT
ATOM      1  C   UNL d   1     -56.638-100.090 -43.977  0.00  0.00     0.119 A 
ATOM      2  C   UNL d   1     -56.187-100.767 -43.835  0.00  0.00     0.087 A 
ATOM      3  C   UNL d   1     -55.827-100.677 -43.104  0.00  0.00     0.008 A 
ATOM      4  C   UNL d   1     -56.047 -99.957 -42.791  0.00  0.00     0.028 A 
ATOM      5  S   UNL d   1     -56.553 -99.584 -43.329  0.00  0.00    -0.070 SA
ATOM      6  C   UNL d   1     -55.764 -99.715 -42.048  0.00  0.00     0.104 A 
ATOM      7  N   UNL d   1     -55.258-100.207 -41.626  0.00  0.00    -0.294 NA
ATOM      8  C   UNL d   1     -55.034-100.939 -41.944  0.00  0.00     0.099 A 
ATOM      9  C   UNL d   1     -55.318-101.176 -42.683  0.00  0.00    -0.004 A 
ATOM     10  C   UNL d   1     -55.594 -99.310 -41.347  0.00  0.00     0.029 C 
ATOM     11  C   UNL d   1     -56.245 -99.095 -42.300  0.00  0.00     0.029 C 
ATOM     12  C   UNL d   1     -54.811-101.669 -42.261  0.00  0.00     0.029 C 
ATOM     13  C   UNL d   1     -54.748-100.707 -41.206  0.00  0.00     0.029 C 
ENDROOT
BRANCH   1  14
ATOM     14  N   UNL d   1     -57.097 -99.938 -44.649  0.00  0.00    -0.200 NA
ATOM     15  C   UNL d   1     -57.723 -99.402 -44.609  0.00  0.00     0.303 C 
ATOM     16  O   UNL d   1     -57.889 -99.020 -43.900  0.00  0.00    -0.263 OA
BRANCH  15  17
ATOM     17  C   UNL d   1     -58.175 -99.253 -45.270  0.00  0.00     0.169 A 
ATOM     18  N   UNL d   1     -59.002 -99.163 -45.303  0.00  0.00    -0.234 NA
ATOM     19  C   UNL d   1     -59.210 -99.018 -46.096  0.00  0.00     0.088 A 
ATOM     20  C   UNL d   1     -59.935 -98.886 -46.467  0.00  0.00     0.020 A 
ATOM     21  C   UNL d   1     -58.502 -99.024 -46.525  0.00  0.00     0.049 A 
ATOM     22  C   UNL d   1     -59.957 -98.758 -47.277  0.00  0.00     0.002 A 
ATOM     23  C   UNL d   1     -59.258 -98.761 -47.720  0.00  0.00     0.001 A 
ATOM     24  C   UNL d   1     -58.539 -98.892 -47.350  0.00  0.00     0.008 A 
ATOM     25  S   UNL d   1     -57.888 -99.166 -46.019  0.00  0.00    -0.062 SA
ENDBRANCH  15  17
ENDBRANCH   1  14
BRANCH   2  26
ATOM     26  C   UNL d   1     -56.121-101.405 -44.343  0.00  0.00     0.298 C 
ATOM     27  O   UNL d   1     -56.704-101.993 -44.328  0.00  0.00    -0.259 OA
BRANCH  26  28
ATOM     28  O   UNL d   1     -55.477-101.464 -44.870  0.00  0.00    -0.296 OA
ATOM     29  C   UNL d   1     -54.711-101.337 -44.598  0.00  0.00     0.185 C 
ENDBRANCH  26  28
ENDBRANCH   2  26
TORSDOF 4
ENDMDL
