MODEL 1
REMARK VINA RESULT:      -8.2      0.000      0.000
REMARK  2 active torsions:
REMARK  status: ('A' for Active; 'I' for Inactive)
REMARK    1  A    between atoms: C_9  and  N_1 
REMARK    2  A    between atoms: C_8  and  N_2 
ROOT
ATOM      1  N   UNL d   1     -48.056  12.815  23.038  0.00  0.00    -0.208 N 
ATOM      2  N   UNL d   1     -47.877  13.616  22.937  0.00  0.00    -0.208 N 
ATOM      3  C   UNL d   1     -47.061  13.717  23.008  0.00  0.00     0.284 A 
ATOM      4  C   UNL d   1     -47.345  12.414  23.172  0.00  0.00     0.284 A 
ATOM      5  C   UNL d   1     -46.732  12.972  23.154  0.00  0.00     0.125 A 
ATOM      6  O   UNL d   1     -46.652  14.423  22.946  0.00  0.00    -0.265 OA
ATOM      7  O   UNL d   1     -47.261  11.598  23.303  0.00  0.00    -0.265 OA
ENDROOT
BRANCH   1   8
ATOM      8  C   UNL d   1     -48.805  12.476  23.009  0.00  0.00     0.085 A 
ATOM      9  C   UNL d   1     -49.114  12.212  22.284  0.00  0.00     0.019 A 
ATOM     10  C   UNL d   1     -49.864  11.872  22.252  0.00  0.00     0.002 A 
ATOM     11  C   UNL d   1     -50.315  11.793  22.952  0.00  0.00     0.000 A 
ATOM     12  C   UNL d   1     -50.002  12.059  23.675  0.00  0.00     0.002 A 
ATOM     13  C   UNL d   1     -49.246  12.399  23.698  0.00  0.00     0.019 A 
ENDBRANCH   1   8
BRANCH   2  14
ATOM     14  C   UNL d   1     -48.426  14.213  22.790  0.00  0.00     0.085 A 
ATOM     15  C   UNL d   1     -48.614  14.425  22.016  0.00  0.00     0.019 A 
ATOM     16  C   UNL d   1     -49.161  15.019  21.870  0.00  0.00     0.002 A 
ATOM     17  C   UNL d   1     -49.529  15.410  22.507  0.00  0.00     0.000 A 
ATOM     18  C   UNL d   1     -49.341  15.198  23.282  0.00  0.00     0.002 A 
ATOM     19  C   UNL d   1     -48.791  14.601  23.420  0.00  0.00     0.019 A 
ENDBRANCH   2  14
TORSDOF 2
ENDMDL
MODEL 2
REMARK VINA RESULT:      -8.1      1.138      2.683
REMARK  2 active torsions:
REMARK  status: ('A' for Active; 'I' for Inactive)
REMARK    1  A    between atoms: C_9  and  N_1 
REMARK    2  A    between atoms: C_8  and  N_2 
ROOT
ATOM      1  N   UNL d   1     -49.253  12.938  22.963  0.00  0.00    -0.208 N 
ATOM      2  N   UNL d   1     -48.541  12.516  22.959  0.00  0.00    -0.208 N 
ATOM      3  C   UNL d   1     -48.704  11.718  23.089  0.00  0.00     0.284 A 
ATOM      4  C   UNL d   1     -49.863  12.396  23.097  0.00  0.00     0.284 A 
ATOM      5  C   UNL d   1     -49.524  11.644  23.175  0.00  0.00     0.125 A 
ATOM      6  O   UNL d   1     -48.157  11.110  23.127  0.00  0.00    -0.265 OA
ATOM      7  O   UNL d   1     -50.674  12.575  23.146  0.00  0.00    -0.265 OA
ENDROOT
BRANCH   1   8
ATOM      8  C   UNL d   1     -49.339  13.748  22.854  0.00  0.00     0.085 A 
ATOM      9  C   UNL d   1     -49.429  14.057  22.087  0.00  0.00     0.019 A 
ATOM     10  C   UNL d   1     -49.516  14.868  21.974  0.00  0.00     0.002 A 
ATOM     11  C   UNL d   1     -49.514  15.382  22.633  0.00  0.00     0.000 A 
ATOM     12  C   UNL d   1     -49.424  15.069  23.398  0.00  0.00     0.002 A 
ATOM     13  C   UNL d   1     -49.337  14.252  23.503  0.00  0.00     0.019 A 
ENDBRANCH   1   8
BRANCH   2  14
ATOM     14  C   UNL d   1     -47.793  12.843  22.843  0.00  0.00     0.085 A 
ATOM     15  C   UNL d   1     -47.487  12.923  22.081  0.00  0.00     0.019 A 
ATOM     16  C   UNL d   1     -46.743  13.249  21.966  0.00  0.00     0.002 A 
ATOM     17  C   UNL d   1     -46.294  13.501  22.622  0.00  0.00     0.000 A 
ATOM     18  C   UNL d   1     -46.601  13.421  23.383  0.00  0.00     0.002 A 
ATOM     19  C   UNL d   1     -47.348  13.093  23.490  0.00  0.00     0.019 A 
ENDBRANCH   2  14
TORSDOF 2
ENDMDL
MODEL 3
REMARK VINA RESULT:      -8.1      1.144      2.299
REMARK  2 active torsions:
REMARK  status: ('A' for Active; 'I' for Inactive)
REMARK    1  A    between atoms: C_9  and  N_1 
REMARK    2  A    between atoms: C_8  and  N_2 
ROOT
ATOM      1  N   UNL d   1     -48.559  12.554  22.925  0.00  0.00    -0.208 N 
ATOM      2  N   UNL d   1     -49.270  12.976  22.922  0.00  0.00    -0.208 N 
ATOM      3  C   UNL d   1     -49.893  12.448  23.033  0.00  0.00     0.284 A 
ATOM      4  C   UNL d   1     -48.742  11.756  23.040  0.00  0.00     0.284 A 
ATOM      5  C   UNL d   1     -49.566  11.691  23.107  0.00  0.00     0.125 A 
ATOM      6  O   UNL d   1     -50.690  12.635  23.066  0.00  0.00    -0.265 OA
ATOM      7  O   UNL d   1     -48.197  11.130  23.081  0.00  0.00    -0.265 OA
ENDROOT
BRANCH   1   8
ATOM      8  C   UNL d   1     -47.805  12.869  22.831  0.00  0.00     0.085 A 
ATOM      9  C   UNL d   1     -47.483  12.956  22.070  0.00  0.00     0.019 A 
ATOM     10  C   UNL d   1     -46.728  13.272  21.973  0.00  0.00     0.002 A 
ATOM     11  C   UNL d   1     -46.285  13.504  22.642  0.00  0.00     0.000 A 
ATOM     12  C   UNL d   1     -46.611  13.415  23.402  0.00  0.00     0.002 A 
ATOM     13  C   UNL d   1     -47.371  13.097  23.491  0.00  0.00     0.019 A 
ENDBRANCH   1   8
BRANCH   2  14
ATOM     14  C   UNL d   1     -49.340  13.791  22.823  0.00  0.00     0.085 A 
ATOM     15  C   UNL d   1     -49.406  14.116  22.067  0.00  0.00     0.019 A 
ATOM     16  C   UNL d   1     -49.476  14.927  21.968  0.00  0.00     0.002 A 
ATOM     17  C   UNL d   1     -49.480  15.427  22.635  0.00  0.00     0.000 A 
ATOM     18  C   UNL d   1     -49.414  15.103  23.391  0.00  0.00     0.002 A 
ATOM     19  C   UNL d   1     -49.345  14.288  23.481  0.00  0.00     0.019 A 
ENDBRANCH   2  14
TORSDOF 2
ENDMDL
MODEL 4
REMARK VINA RESULT:      -7.9      1.261      2.869
REMARK  2 active torsions:
REMARK  status: ('A' for Active; 'I' for Inactive)
REMARK    1  A    between atoms: C_9  and  N_1 
REMARK    2  A    between atoms: C_8  and  N_2 
ROOT
ATOM      1  N   UNL d   1     -48.186  14.297  22.599  0.00  0.00    -0.208 N 
ATOM      2  N   UNL d   1     -48.984  14.079  22.609  0.00  0.00    -0.208 N 
ATOM      3  C   UNL d   1     -49.445  14.757  22.520  0.00  0.00     0.284 A 
ATOM      4  C   UNL d   1     -48.152  15.117  22.502  0.00  0.00     0.284 A 
ATOM      5  C   UNL d   1     -48.929  15.401  22.453  0.00  0.00     0.125 A 
ATOM      6  O   UNL d   1     -50.263  14.788  22.500  0.00  0.00    -0.265 OA
ATOM      7  O   UNL d   1     -47.460  15.576  22.461  0.00  0.00    -0.265 OA
ENDROOT
BRANCH   1   8
ATOM      8  C   UNL d   1     -47.542  13.791  22.672  0.00  0.00     0.085 A 
ATOM      9  C   UNL d   1     -47.202  13.450  21.993  0.00  0.00     0.019 A 
ATOM     10  C   UNL d   1     -46.557  12.942  22.063  0.00  0.00     0.002 A 
ATOM     11  C   UNL d   1     -46.244  12.770  22.818  0.00  0.00     0.000 A 
ATOM     12  C   UNL d   1     -46.586  13.112  23.494  0.00  0.00     0.002 A 
ATOM     13  C   UNL d   1     -47.235  13.622  23.415  0.00  0.00     0.019 A 
ENDBRANCH   1   8
BRANCH   2  14
ATOM     14  C   UNL d   1     -49.267  13.310  22.695  0.00  0.00     0.085 A 
ATOM     15  C   UNL d   1     -49.392  12.835  22.032  0.00  0.00     0.019 A 
ATOM     16  C   UNL d   1     -49.674  12.070  22.118  0.00  0.00     0.002 A 
ATOM     17  C   UNL d   1     -49.835  11.769  22.879  0.00  0.00     0.000 A 
ATOM     18  C   UNL d   1     -49.710  12.244  23.542  0.00  0.00     0.002 A 
ATOM     19  C   UNL d   1     -49.427  13.011  23.447  0.00  0.00     0.019 A 
ENDBRANCH   2  14
TORSDOF 2
ENDMDL
MODEL 5
REMARK VINA RESULT:      -7.9      1.254      2.312
REMARK  2 active torsions:
REMARK  status: ('A' for Active; 'I' for Inactive)
REMARK    1  A    between atoms: C_9  and  N_1 
REMARK    2  A    between atoms: C_8  and  N_2 
ROOT
ATOM      1  N   UNL d   1     -48.916  14.080  22.582  0.00  0.00    -0.208 N 
ATOM      2  N   UNL d   1     -48.118  14.298  22.587  0.00  0.00    -0.208 N 
ATOM      3  C   UNL d   1     -48.065  15.116  22.495  0.00  0.00     0.284 A 
ATOM      4  C   UNL d   1     -49.362  14.770  22.486  0.00  0.00     0.284 A 
ATOM      5  C   UNL d   1     -48.836  15.408  22.432  0.00  0.00     0.125 A 
ATOM      6  O   UNL d   1     -47.376  15.558  22.470  0.00  0.00    -0.265 OA
ATOM      7  O   UNL d   1     -50.192  14.814  22.450  0.00  0.00    -0.265 OA
ENDROOT
BRANCH   1   8
ATOM      8  C   UNL d   1     -49.213  13.318  22.659  0.00  0.00     0.085 A 
ATOM      9  C   UNL d   1     -49.336  12.849  21.983  0.00  0.00     0.019 A 
ATOM     10  C   UNL d   1     -49.634  12.085  22.057  0.00  0.00     0.002 A 
ATOM     11  C   UNL d   1     -49.813  11.780  22.814  0.00  0.00     0.000 A 
ATOM     12  C   UNL d   1     -49.689  12.251  23.487  0.00  0.00     0.002 A 
ATOM     13  C   UNL d   1     -49.389  13.019  23.405  0.00  0.00     0.019 A 
ENDBRANCH   1   8
BRANCH   2  14
ATOM     14  C   UNL d   1     -47.483  13.779  22.671  0.00  0.00     0.085 A 
ATOM     15  C   UNL d   1     -47.133  13.437  22.007  0.00  0.00     0.019 A 
ATOM     16  C   UNL d   1     -46.502  12.921  22.090  0.00  0.00     0.002 A 
ATOM     17  C   UNL d   1     -46.211  12.740  22.850  0.00  0.00     0.000 A 
ATOM     18  C   UNL d   1     -46.561  13.082  23.515  0.00  0.00     0.002 A 
ATOM     19  C   UNL d   1     -47.194  13.599  23.422  0.00  0.00     0.019 A 
ENDBRANCH   2  14
TORSDOF 2
ENDMDL
