MODEL 1
REMARK VINA RESULT:      26.8      0.000      0.000
REMARK  4 active torsions:
REMARK  status: ('A' for Active; 'I' for Inactive)
REMARK    1  A    between atoms: N_4  and  C_1 
REMARK    2  A    between atoms: N_9  and  N_4 
REMARK    3  A    between atoms: C_8  and  C_7 
REMARK    4  A    between atoms: C_10  and  N_9 
ROOT
ATOM      1  N   UNL d   1      13.217  12.779  -2.779  0.00  0.00    -0.146 NA
ENDROOT
BRANCH   1   2
ATOM      2  C   UNL d   1      13.272  13.037  -3.561  0.00  0.00     0.122 A 
ATOM      3  C   UNL d   1      13.177  12.585  -4.255  0.00  0.00     0.101 A 
ATOM      4  N   UNL d   1      13.275  13.047  -4.899  0.00  0.00    -0.244 NA
ATOM      5  C   UNL d   1      13.014  11.808  -4.286  0.00  0.00     0.022 C 
ATOM      6  C   UNL d   1      13.433  13.801  -4.653  0.00  0.00     0.083 A 
ATOM      7  C   UNL d   1      13.435  13.809  -3.801  0.00  0.00     0.039 A 
ATOM      8  C   UNL d   1      13.581  14.502  -5.038  0.00  0.00     0.019 A 
ATOM      9  C   UNL d   1      13.585  14.524  -3.383  0.00  0.00     0.003 A 
ATOM     10  C   UNL d   1      13.733  15.228  -3.810  0.00  0.00     0.000 A 
ATOM     11  C   UNL d   1      13.727  15.194  -4.633  0.00  0.00     0.002 A 
ENDBRANCH   1   2
BRANCH   1  12
ATOM     12  N   UNL d   1      13.845  12.348  -2.437  0.00  0.00    -0.148 NA
BRANCH  12  13
ATOM     13  C   UNL d   1      13.875  12.161  -1.621  0.00  0.00     0.109 A 
ATOM     14  C   UNL d   1      14.576  12.169  -1.212  0.00  0.00     0.084 A 
ATOM     15  C   UNL d   1      14.590  11.983  -0.408  0.00  0.00     0.008 A 
ATOM     16  C   UNL d   1      13.859  11.783  -0.020  0.00  0.00     0.000 A 
ATOM     17  C   UNL d   1      13.143  11.780  -0.463  0.00  0.00     0.002 A 
ATOM     18  C   UNL d   1      13.180  11.975  -1.268  0.00  0.00     0.021 A 
BRANCH  14  19
ATOM     19  C   UNL d   1      15.270  12.363  -1.597  0.00  0.00     0.212 C 
ATOM     20  O   UNL d   1      15.687  11.806  -2.029  0.00  0.00    -0.644 OA
ATOM     21  O   UNL d   1      15.585  13.129  -1.568  0.00  0.00    -0.644 OA
ENDBRANCH  14  19
ENDBRANCH  12  13
ENDBRANCH   1  12
TORSDOF 4
ENDMDL
MODEL 2
REMARK VINA RESULT:      28.3      1.385      1.962
REMARK  4 active torsions:
REMARK  status: ('A' for Active; 'I' for Inactive)
REMARK    1  A    between atoms: N_4  and  C_1 
REMARK    2  A    between atoms: N_9  and  N_4 
REMARK    3  A    between atoms: C_8  and  C_7 
REMARK    4  A    between atoms: C_10  and  N_9 
ROOT
ATOM      1  N   UNL d   1      13.950  13.299  -2.447  0.00  0.00    -0.146 NA
ENDROOT
BRANCH   1   2
ATOM      2  C   UNL d   1      13.540  12.800  -2.962  0.00  0.00     0.122 A 
ATOM      3  C   UNL d   1      13.130  12.099  -2.775  0.00  0.00     0.101 A 
ATOM      4  N   UNL d   1      12.810  11.784  -3.435  0.00  0.00    -0.244 NA
ATOM      5  C   UNL d   1      13.061  11.780  -2.050  0.00  0.00     0.022 C 
ATOM      6  C   UNL d   1      12.995  12.258  -4.062  0.00  0.00     0.083 A 
ATOM      7  C   UNL d   1      13.461  12.911  -3.775  0.00  0.00     0.039 A 
ATOM      8  C   UNL d   1      12.832  12.232  -4.859  0.00  0.00     0.019 A 
ATOM      9  C   UNL d   1      13.738  13.502  -4.307  0.00  0.00     0.003 A 
ATOM     10  C   UNL d   1      13.552  13.444  -5.121  0.00  0.00     0.000 A 
ATOM     11  C   UNL d   1      13.100  12.803  -5.373  0.00  0.00     0.002 A 
ENDBRANCH   1   2
BRANCH   1  12
ATOM     12  N   UNL d   1      14.271  12.995  -1.739  0.00  0.00    -0.148 NA
BRANCH  12  13
ATOM     13  C   UNL d   1      14.659  13.476  -1.174  0.00  0.00     0.109 A 
ATOM     14  C   UNL d   1      15.110  13.152  -0.583  0.00  0.00     0.084 A 
ATOM     15  C   UNL d   1      15.486  13.639  -0.033  0.00  0.00     0.008 A 
ATOM     16  C   UNL d   1      15.390  14.483  -0.098  0.00  0.00     0.000 A 
ATOM     17  C   UNL d   1      14.917  14.799  -0.718  0.00  0.00     0.002 A 
ATOM     18  C   UNL d   1      14.560  14.268  -1.247  0.00  0.00     0.021 A 
BRANCH  14  19
ATOM     19  C   UNL d   1      15.194  12.341  -0.532  0.00  0.00     0.212 C 
ATOM     20  O   UNL d   1      15.774  11.946  -0.954  0.00  0.00    -0.644 OA
ATOM     21  O   UNL d   1      14.698  11.881  -0.053  0.00  0.00    -0.644 OA
ENDBRANCH  14  19
ENDBRANCH  12  13
ENDBRANCH   1  12
TORSDOF 4
ENDMDL
