MODEL 1
REMARK VINA RESULT:      -3.3      0.000      0.000
REMARK  5 active torsions:
REMARK  status: ('A' for Active; 'I' for Inactive)
REMARK    1  A    between atoms: C_8  and  N_1 
REMARK    2  A    between atoms: C_5  and  C_21 
REMARK    3  A    between atoms: C_9  and  C_12 
REMARK       I    between atoms: N_20  and  C_9 
REMARK    4  A    between atoms: C_22  and  N_20 
REMARK    5  A    between atoms: C_21  and  C_22 
ROOT
ATOM      1  C   UNL d   1      58.608  -0.142  30.037  0.00  0.00     0.026 C 
ENDROOT
BRANCH   1   2
ATOM      2  C   UNL d   1      59.097  -0.742  29.765  0.00  0.00     0.059 A 
ATOM      3  C   UNL d   1      59.919  -0.608  29.706  0.00  0.00     0.279 A 
ATOM      4  N   UNL d   1      60.417  -1.212  29.432  0.00  0.00    -0.208 NA
ATOM      5  O   UNL d   1      60.235   0.123  29.920  0.00  0.00    -0.265 OA
ATOM      6  C   UNL d   1      60.095  -1.952  29.216  0.00  0.00     0.085 A 
ATOM      7  C   UNL d   1      59.279  -2.077  29.277  0.00  0.00     0.018 A 
ATOM      8  C   UNL d   1      60.600  -2.550  28.943  0.00  0.00     0.019 A 
ATOM      9  C   UNL d   1      58.782  -1.478  29.549  0.00  0.00     0.006 A 
ATOM     10  C   UNL d   1      58.965  -2.816  29.060  0.00  0.00     0.002 A 
ATOM     11  C   UNL d   1      59.462  -3.415  28.788  0.00  0.00     0.000 A 
ATOM     12  C   UNL d   1      60.284  -3.281  28.729  0.00  0.00     0.002 A 
ATOM     13  C   UNL d   1      59.154  -4.145  28.573  0.00  0.00     0.000 C 
ATOM     14  C   UNL d   1      60.782  -3.880  28.456  0.00  0.00     0.000 C 
ENDBRANCH   1   2
BRANCH   1  15
ATOM     15  C   UNL d   1      57.871  -0.312  30.356  0.00  0.00     0.102 C 
BRANCH  15  16
ATOM     16  N   UNL d   1      57.634   0.011  31.081  0.00  0.00    -0.206 NA
ATOM     17  C   UNL d   1      57.114  -0.404  31.573  0.00  0.00     0.279 C 
ATOM     18  O   UNL d   1      56.827  -1.140  31.348  0.00  0.00    -0.265 OA
BRANCH  17  19
ATOM     19  C   UNL d   1      56.883  -0.073  32.297  0.00  0.00     0.059 A 
ATOM     20  C   UNL d   1      56.123  -0.160  32.565  0.00  0.00     0.028 A 
ATOM     21  C   UNL d   1      55.875   0.156  33.272  0.00  0.00     0.127 A 
ATOM     22  C   UNL d   1      56.412   0.577  33.729  0.00  0.00     0.024 A 
ATOM     23  C   UNL d   1      57.184   0.682  33.487  0.00  0.00     0.002 A 
ATOM     24  C   UNL d   1      57.416   0.347  32.755  0.00  0.00     0.005 A 
BRANCH  21  25
ATOM     25  N   UNL d   1      55.101   0.071  33.549  0.00  0.00    -0.114 N 
ATOM     26  O   UNL d   1      54.861  -0.680  33.871  0.00  0.00    -0.532 OA
ATOM     27  O   UNL d   1      54.538   0.682  33.531  0.00  0.00    -0.532 OA
ENDBRANCH  21  25
ENDBRANCH  17  19
ENDBRANCH  15  16
ENDBRANCH   1  15
TORSDOF 5
ENDMDL
MODEL 2
REMARK VINA RESULT:      -2.6      1.581      5.965
REMARK  5 active torsions:
REMARK  status: ('A' for Active; 'I' for Inactive)
REMARK    1  A    between atoms: C_8  and  N_1 
REMARK    2  A    between atoms: C_5  and  C_21 
REMARK    3  A    between atoms: C_9  and  C_12 
REMARK       I    between atoms: N_20  and  C_9 
REMARK    4  A    between atoms: C_22  and  N_20 
REMARK    5  A    between atoms: C_21  and  C_22 
ROOT
ATOM      1  C   UNL d   1      56.479   0.681  31.766  0.00  0.00     0.026 C 
ENDROOT
BRANCH   1   2
ATOM      2  C   UNL d   1      56.251   0.669  32.555  0.00  0.00     0.059 A 
ATOM      3  C   UNL d   1      55.440   0.645  32.749  0.00  0.00     0.279 A 
ATOM      4  N   UNL d   1      55.206   0.632  33.545  0.00  0.00    -0.208 NA
ATOM      5  O   UNL d   1      54.872   0.633  32.151  0.00  0.00    -0.265 OA
ATOM      6  C   UNL d   1      55.784   0.645  34.149  0.00  0.00     0.085 A 
ATOM      7  C   UNL d   1      56.586   0.669  33.948  0.00  0.00     0.018 A 
ATOM      8  C   UNL d   1      55.541   0.632  34.941  0.00  0.00     0.019 A 
ATOM      9  C   UNL d   1      56.821   0.681  33.158  0.00  0.00     0.006 A 
ATOM     10  C   UNL d   1      57.156   0.681  34.554  0.00  0.00     0.002 A 
ATOM     11  C   UNL d   1      56.921   0.669  35.345  0.00  0.00     0.000 A 
ATOM     12  C   UNL d   1      56.109   0.644  35.539  0.00  0.00     0.002 A 
ATOM     13  C   UNL d   1      57.481   0.680  35.944  0.00  0.00     0.000 C 
ATOM     14  C   UNL d   1      55.874   0.632  36.330  0.00  0.00     0.000 C 
ENDBRANCH   1   2
BRANCH   1  15
ATOM     15  C   UNL d   1      57.270   0.629  31.555  0.00  0.00     0.102 C 
BRANCH  15  16
ATOM     16  N   UNL d   1      57.506   0.217  30.877  0.00  0.00    -0.206 NA
ATOM     17  C   UNL d   1      58.302   0.202  30.652  0.00  0.00     0.279 C 
ATOM     18  O   UNL d   1      58.867   0.597  31.100  0.00  0.00    -0.265 OA
BRANCH  17  19
ATOM     19  C   UNL d   1      58.529  -0.213  29.972  0.00  0.00     0.059 A 
ATOM     20  C   UNL d   1      58.564  -1.023  29.976  0.00  0.00     0.028 A 
ATOM     21  C   UNL d   1      58.784  -1.450  29.320  0.00  0.00     0.127 A 
ATOM     22  C   UNL d   1      58.978  -1.047  28.632  0.00  0.00     0.024 A 
ATOM     23  C   UNL d   1      58.953  -0.233  28.595  0.00  0.00     0.002 A 
ATOM     24  C   UNL d   1      58.723   0.185  29.284  0.00  0.00     0.005 A 
BRANCH  21  25
ATOM     25  N   UNL d   1      58.821  -2.275  29.320  0.00  0.00    -0.114 N 
ATOM     26  O   UNL d   1      59.555  -2.653  29.114  0.00  0.00    -0.532 OA
ATOM     27  O   UNL d   1      58.175  -2.762  29.511  0.00  0.00    -0.532 OA
ENDBRANCH  21  25
ENDBRANCH  17  19
ENDBRANCH  15  16
ENDBRANCH   1  15
TORSDOF 5
ENDMDL
MODEL 3
REMARK VINA RESULT:      -2.5      1.685      6.006
REMARK  5 active torsions:
REMARK  status: ('A' for Active; 'I' for Inactive)
REMARK    1  A    between atoms: C_8  and  N_1 
REMARK    2  A    between atoms: C_5  and  C_21 
REMARK    3  A    between atoms: C_9  and  C_12 
REMARK       I    between atoms: N_20  and  C_9 
REMARK    4  A    between atoms: C_22  and  N_20 
REMARK    5  A    between atoms: C_21  and  C_22 
ROOT
ATOM      1  C   UNL d   1      56.889   0.636  31.822  0.00  0.00     0.026 C 
ENDROOT
BRANCH   1   2
ATOM      2  C   UNL d   1      56.618   0.643  32.597  0.00  0.00     0.059 A 
ATOM      3  C   UNL d   1      57.168   0.644  33.225  0.00  0.00     0.279 A 
ATOM      4  N   UNL d   1      56.898   0.651  34.010  0.00  0.00    -0.208 NA
ATOM      5  O   UNL d   1      57.977   0.636  33.067  0.00  0.00    -0.265 OA
ATOM      6  C   UNL d   1      56.078   0.659  34.168  0.00  0.00     0.085 A 
ATOM      7  C   UNL d   1      55.539   0.659  33.540  0.00  0.00     0.018 A 
ATOM      8  C   UNL d   1      55.817   0.667  34.955  0.00  0.00     0.019 A 
ATOM      9  C   UNL d   1      55.805   0.651  32.759  0.00  0.00     0.006 A 
ATOM     10  C   UNL d   1      54.724   0.666  33.704  0.00  0.00     0.002 A 
ATOM     11  C   UNL d   1      54.458   0.674  34.485  0.00  0.00     0.000 A 
ATOM     12  C   UNL d   1      55.008   0.674  35.113  0.00  0.00     0.002 A 
ATOM     13  C   UNL d   1      53.654   0.681  34.650  0.00  0.00     0.000 C 
ATOM     14  C   UNL d   1      54.742   0.682  35.894  0.00  0.00     0.000 C 
ENDBRANCH   1   2
BRANCH   1  15
ATOM     15  C   UNL d   1      57.642   0.362  31.642  0.00  0.00     0.102 C 
BRANCH  15  16
ATOM     16  N   UNL d   1      57.779  -0.106  30.973  0.00  0.00    -0.206 NA
ATOM     17  C   UNL d   1      58.488  -0.039  30.553  0.00  0.00     0.279 C 
ATOM     18  O   UNL d   1      59.065   0.494  30.795  0.00  0.00    -0.265 OA
BRANCH  17  19
ATOM     19  C   UNL d   1      58.616  -0.512  29.885  0.00  0.00     0.059 A 
ATOM     20  C   UNL d   1      58.783  -1.301  29.965  0.00  0.00     0.028 A 
ATOM     21  C   UNL d   1      58.912  -1.784  29.323  0.00  0.00     0.127 A 
ATOM     22  C   UNL d   1      58.872  -1.460  28.570  0.00  0.00     0.024 A 
ATOM     23  C   UNL d   1      58.706  -0.670  28.455  0.00  0.00     0.002 A 
ATOM     24  C   UNL d   1      58.576  -0.193  29.132  0.00  0.00     0.005 A 
BRANCH  21  25
ATOM     25  N   UNL d   1      59.083  -2.588  29.400  0.00  0.00    -0.114 N 
ATOM     26  O   UNL d   1      59.896  -2.832  29.452  0.00  0.00    -0.532 OA
ATOM     27  O   UNL d   1      58.499  -3.179  29.430  0.00  0.00    -0.532 OA
ENDBRANCH  21  25
ENDBRANCH  17  19
ENDBRANCH  15  16
ENDBRANCH   1  15
TORSDOF 5
ENDMDL
MODEL 4
REMARK VINA RESULT:      -1.9      1.509      2.268
REMARK  5 active torsions:
REMARK  status: ('A' for Active; 'I' for Inactive)
REMARK    1  A    between atoms: C_8  and  N_1 
REMARK    2  A    between atoms: C_5  and  C_21 
REMARK    3  A    between atoms: C_9  and  C_12 
REMARK       I    between atoms: N_20  and  C_9 
REMARK    4  A    between atoms: C_22  and  N_20 
REMARK    5  A    between atoms: C_21  and  C_22 
ROOT
ATOM      1  C   UNL d   1      57.016  -0.544  31.178  0.00  0.00     0.026 C 
ENDROOT
BRANCH   1   2
ATOM      2  C   UNL d   1      57.634  -0.782  30.694  0.00  0.00     0.059 A 
ATOM      3  C   UNL d   1      57.709  -1.588  30.488  0.00  0.00     0.279 A 
ATOM      4  N   UNL d   1      58.332  -1.833  29.999  0.00  0.00    -0.208 NA
ATOM      5  O   UNL d   1      57.164  -2.139  30.772  0.00  0.00    -0.265 OA
ATOM      6  C   UNL d   1      58.882  -1.273  29.714  0.00  0.00     0.085 A 
ATOM      7  C   UNL d   1      58.801  -0.477  29.921  0.00  0.00     0.018 A 
ATOM      8  C   UNL d   1      59.502  -1.527  29.225  0.00  0.00     0.019 A 
ATOM      9  C   UNL d   1      58.182  -0.230  30.408  0.00  0.00     0.006 A 
ATOM     10  C   UNL d   1      59.353   0.076  29.634  0.00  0.00     0.002 A 
ATOM     11  C   UNL d   1      59.971  -0.170  29.147  0.00  0.00     0.000 A 
ATOM     12  C   UNL d   1      60.047  -0.976  28.942  0.00  0.00     0.002 A 
ATOM     13  C   UNL d   1      60.517   0.373  28.862  0.00  0.00     0.000 C 
ATOM     14  C   UNL d   1      60.665  -1.222  28.455  0.00  0.00     0.000 C 
ENDBRANCH   1   2
BRANCH   1  15
ATOM     15  C   UNL d   1      57.143  -0.016  31.794  0.00  0.00     0.102 C 
BRANCH  15  16
ATOM     16  N   UNL d   1      56.568   0.108  32.377  0.00  0.00    -0.206 NA
ATOM     17  C   UNL d   1      56.790   0.317  33.146  0.00  0.00     0.279 C 
ATOM     18  O   UNL d   1      57.585   0.404  33.339  0.00  0.00    -0.265 OA
BRANCH  17  19
ATOM     19  C   UNL d   1      56.208   0.440  33.723  0.00  0.00     0.059 A 
ATOM     20  C   UNL d   1      55.425   0.470  33.517  0.00  0.00     0.028 A 
ATOM     21  C   UNL d   1      54.838   0.589  34.067  0.00  0.00     0.127 A 
ATOM     22  C   UNL d   1      55.046   0.682  34.856  0.00  0.00     0.024 A 
ATOM     23  C   UNL d   1      55.825   0.656  35.095  0.00  0.00     0.002 A 
ATOM     24  C   UNL d   1      56.412   0.532  34.510  0.00  0.00     0.005 A 
BRANCH  21  25
ATOM     25  N   UNL d   1      54.038   0.621  33.862  0.00  0.00    -0.114 N 
ATOM     26  O   UNL d   1      53.456   0.642  34.482  0.00  0.00    -0.532 OA
ATOM     27  O   UNL d   1      53.767   0.635  33.076  0.00  0.00    -0.532 OA
ENDBRANCH  21  25
ENDBRANCH  17  19
ENDBRANCH  15  16
ENDBRANCH   1  15
TORSDOF 5
ENDMDL
