MODEL 1
REMARK VINA RESULT:      -7.3      0.000      0.000
REMARK  5 active torsions:
REMARK  status: ('A' for Active; 'I' for Inactive)
REMARK    1  A    between atoms: O_8  and  S_1 
REMARK    2  A    between atoms: C_9  and  S_1 
REMARK    3  A    between atoms: C_7  and  C_2 
REMARK    4  A    between atoms: C_20  and  C_7 
REMARK    5  A    between atoms: C_14  and  O_8 
ROOT
ATOM      1  C   UNL d   1     -49.670  12.790  22.874  0.00  0.00     0.139 A 
ATOM      2  C   UNL d   1     -48.583  12.025  22.917  0.00  0.00     0.064 A 
ATOM      3  C   UNL d   1     -49.376  12.038  22.701  0.00  0.00     0.220 A 
ATOM      4  C   UNL d   1     -48.381  12.765  23.223  0.00  0.00     0.105 A 
ATOM      5  O   UNL d   1     -49.057  13.239  23.196  0.00  0.00    -0.304 OA
ATOM      6  C   UNL d   1     -47.620  12.901  23.480  0.00  0.00     0.050 A 
ATOM      7  C   UNL d   1     -48.016  11.430  22.872  0.00  0.00     0.007 A 
ATOM      8  C   UNL d   1     -47.054  12.306  23.436  0.00  0.00     0.116 A 
ATOM      9  O   UNL d   1     -49.808  11.419  22.371  0.00  0.00    -0.284 OA
ATOM     10  C   UNL d   1     -47.253  11.574  23.133  0.00  0.00     0.026 A 
ENDROOT
BRANCH   8  11
ATOM     11  O   UNL d   1     -46.287  12.448  23.697  0.00  0.00    -0.227 OA
BRANCH  11  12
ATOM     12  S   UNL d   1     -45.674  12.538  23.152  0.00  0.00     0.304 S 
ATOM     13  O   UNL d   1     -45.481  11.754  23.240  0.00  0.00    -0.193 OA
ATOM     14  O   UNL d   1     -45.860  13.332  23.054  0.00  0.00    -0.193 OA
BRANCH  12  15
ATOM     15  C   UNL d   1     -45.054  12.625  22.601  0.00  0.00     0.111 A 
ATOM     16  C   UNL d   1     -45.067  13.258  22.069  0.00  0.00     0.014 A 
ATOM     17  C   UNL d   1     -44.454  13.344  21.523  0.00  0.00     0.012 A 
ATOM     18  C   UNL d   1     -43.828  12.797  21.510  0.00  0.00     0.058 A 
ATOM     19  C   UNL d   1     -43.828  12.167  22.049  0.00  0.00     0.012 A 
ATOM     20 CL   UNL d   1     -43.225  12.882  20.973  0.00  0.00    -0.082 Cl
ATOM     21  C   UNL d   1     -44.442  12.084  22.593  0.00  0.00     0.014 A 
ENDBRANCH  12  15
ENDBRANCH  11  12
ENDBRANCH   8  11
BRANCH   1  22
ATOM     22  C   UNL d   1     -50.442  13.053  22.748  0.00  0.00     0.029 C 
BRANCH  22  23
ATOM     23  C   UNL d   1     -50.632  13.854  22.829  0.00  0.00     0.021 A 
ATOM     24  C   UNL d   1     -50.577  14.346  22.176  0.00  0.00     0.099 A 
ATOM     25  N   UNL d   1     -50.763  15.142  22.241  0.00  0.00    -0.242 NA
ATOM     26  C   UNL d   1     -51.009  15.451  22.976  0.00  0.00     0.099 A 
ATOM     27  C   UNL d   1     -51.063  14.950  23.632  0.00  0.00     0.021 A 
ATOM     28  C   UNL d   1     -50.872  14.150  23.551  0.00  0.00     0.003 A 
ENDBRANCH  22  23
ENDBRANCH   1  22
TORSDOF 5
ENDMDL
MODEL 2
REMARK VINA RESULT:      -5.8      8.066      9.850
REMARK  5 active torsions:
REMARK  status: ('A' for Active; 'I' for Inactive)
REMARK    1  A    between atoms: O_8  and  S_1 
REMARK    2  A    between atoms: C_9  and  S_1 
REMARK    3  A    between atoms: C_7  and  C_2 
REMARK    4  A    between atoms: C_20  and  C_7 
REMARK    5  A    between atoms: C_14  and  O_8 
ROOT
ATOM      1  C   UNL d   1     -40.173  14.620  21.105  0.00  0.00     0.139 A 
ATOM      2  C   UNL d   1     -40.627  14.858  19.878  0.00  0.00     0.064 A 
ATOM      3  C   UNL d   1     -40.826  14.535  20.607  0.00  0.00     0.220 A 
ATOM      4  C   UNL d   1     -39.854  15.143  19.919  0.00  0.00     0.105 A 
ATOM      5  O   UNL d   1     -39.573  14.995  20.681  0.00  0.00    -0.304 OA
ATOM      6  C   UNL d   1     -39.517  15.494  19.265  0.00  0.00     0.050 A 
ATOM      7  C   UNL d   1     -41.055  14.928  19.178  0.00  0.00     0.007 A 
ATOM      8  C   UNL d   1     -39.946  15.564  18.565  0.00  0.00     0.116 A 
ATOM      9  O   UNL d   1     -41.544  14.187  20.814  0.00  0.00    -0.284 OA
ATOM     10  C   UNL d   1     -40.711  15.282  18.524  0.00  0.00     0.026 A 
ENDROOT
BRANCH   8  11
ATOM     11  O   UNL d   1     -39.602  15.919  17.907  0.00  0.00    -0.227 OA
BRANCH  11  12
ATOM     12  S   UNL d   1     -39.266  15.453  17.315  0.00  0.00     0.304 S 
ATOM     13  O   UNL d   1     -39.990  15.393  16.951  0.00  0.00    -0.193 OA
ATOM     14  O   UNL d   1     -38.529  15.507  17.673  0.00  0.00    -0.193 OA
BRANCH  12  15
ATOM     15  C   UNL d   1     -38.930  14.982  16.714  0.00  0.00     0.111 A 
ATOM     16  C   UNL d   1     -38.915  14.160  16.801  0.00  0.00     0.014 A 
ATOM     17  C   UNL d   1     -38.584  13.693  16.207  0.00  0.00     0.012 A 
ATOM     18  C   UNL d   1     -38.267  14.049  15.526  0.00  0.00     0.058 A 
ATOM     19  C   UNL d   1     -38.287  14.874  15.451  0.00  0.00     0.012 A 
ATOM     20 CL   UNL d   1     -37.940  13.589  14.942  0.00  0.00    -0.082 Cl
ATOM     21  C   UNL d   1     -38.620  15.338  16.048  0.00  0.00     0.014 A 
ENDBRANCH  12  15
ENDBRANCH  11  12
ENDBRANCH   8  11
BRANCH   1  22
ATOM     22  C   UNL d   1     -40.124  14.374  21.891  0.00  0.00     0.029 C 
BRANCH  22  23
ATOM     23  C   UNL d   1     -39.394  14.169  22.223  0.00  0.00     0.021 A 
ATOM     24  C   UNL d   1     -38.958  14.742  22.616  0.00  0.00     0.099 A 
ATOM     25  N   UNL d   1     -38.234  14.554  22.950  0.00  0.00    -0.242 NA
ATOM     26  C   UNL d   1     -37.940  13.776  22.889  0.00  0.00     0.099 A 
ATOM     27  C   UNL d   1     -38.382  13.201  22.492  0.00  0.00     0.021 A 
ATOM     28  C   UNL d   1     -39.112  13.406  22.160  0.00  0.00     0.003 A 
ENDBRANCH  22  23
ENDBRANCH   1  22
TORSDOF 5
ENDMDL
MODEL 3
REMARK VINA RESULT:      -4.9      2.709      5.644
REMARK  5 active torsions:
REMARK  status: ('A' for Active; 'I' for Inactive)
REMARK    1  A    between atoms: O_8  and  S_1 
REMARK    2  A    between atoms: C_9  and  S_1 
REMARK    3  A    between atoms: C_7  and  C_2 
REMARK    4  A    between atoms: C_20  and  C_7 
REMARK    5  A    between atoms: C_14  and  O_8 
ROOT
ATOM      1  C   UNL d   1     -44.541  12.504  22.100  0.00  0.00     0.139 A 
ATOM      2  C   UNL d   1     -45.601  12.700  22.879  0.00  0.00     0.064 A 
ATOM      3  C   UNL d   1     -44.975  12.189  22.728  0.00  0.00     0.220 A 
ATOM      4  C   UNL d   1     -45.560  13.330  22.348  0.00  0.00     0.105 A 
ATOM      5  O   UNL d   1     -44.902  13.208  21.865  0.00  0.00    -0.304 OA
ATOM      6  C   UNL d   1     -46.121  13.921  22.379  0.00  0.00     0.050 A 
ATOM      7  C   UNL d   1     -46.206  12.670  23.437  0.00  0.00     0.007 A 
ATOM      8  C   UNL d   1     -46.726  13.891  22.936  0.00  0.00     0.116 A 
ATOM      9  O   UNL d   1     -44.802  11.489  23.126  0.00  0.00    -0.284 OA
ATOM     10  C   UNL d   1     -46.766  13.266  23.462  0.00  0.00     0.026 A 
ENDROOT
BRANCH   8  11
ATOM     11  O   UNL d   1     -47.290  14.489  22.963  0.00  0.00    -0.227 OA
BRANCH  11  12
ATOM     12  S   UNL d   1     -48.046  14.358  22.660  0.00  0.00     0.304 S 
ATOM     13  O   UNL d   1     -47.833  14.729  21.969  0.00  0.00    -0.193 OA
ATOM     14  O   UNL d   1     -48.273  13.982  23.354  0.00  0.00    -0.193 OA
BRANCH  12  15
ATOM     15  C   UNL d   1     -48.809  14.228  22.350  0.00  0.00     0.111 A 
ATOM     16  C   UNL d   1     -49.462  14.583  22.713  0.00  0.00     0.014 A 
ATOM     17  C   UNL d   1     -50.218  14.455  22.406  0.00  0.00     0.012 A 
ATOM     18  C   UNL d   1     -50.320  13.972  21.738  0.00  0.00     0.058 A 
ATOM     19  C   UNL d   1     -49.657  13.622  21.385  0.00  0.00     0.012 A 
ATOM     20 CL   UNL d   1     -51.064  13.846  21.437  0.00  0.00    -0.082 Cl
ATOM     21  C   UNL d   1     -48.903  13.752  21.693  0.00  0.00     0.014 A 
ENDBRANCH  12  15
ENDBRANCH  11  12
ENDBRANCH   8  11
BRANCH   1  22
ATOM     22  C   UNL d   1     -43.865  12.175  21.761  0.00  0.00     0.029 C 
BRANCH  22  23
ATOM     23  C   UNL d   1     -43.224  12.655  21.550  0.00  0.00     0.021 A 
ATOM     24  C   UNL d   1     -42.608  12.757  22.081  0.00  0.00     0.099 A 
ATOM     25  N   UNL d   1     -41.968  13.229  21.885  0.00  0.00    -0.242 NA
ATOM     26  C   UNL d   1     -41.944  13.607  21.142  0.00  0.00     0.099 A 
ATOM     27  C   UNL d   1     -42.567  13.501  20.609  0.00  0.00     0.021 A 
ATOM     28  C   UNL d   1     -43.207  13.021  20.821  0.00  0.00     0.003 A 
ENDBRANCH  22  23
ENDBRANCH   1  22
TORSDOF 5
ENDMDL
