MODEL 1
REMARK VINA RESULT:      -2.4      0.000      0.000
REMARK  7 active torsions:
REMARK  status: ('A' for Active; 'I' for Inactive)
REMARK    1  A    between atoms: C_2  and  S_1 
REMARK    2  A    between atoms: N_6  and  S_1 
REMARK    3  A    between atoms: O_14  and  C_5 
REMARK    4  A    between atoms: C_15  and  N_6 
REMARK    5  A    between atoms: O_16  and  C_7 
REMARK    6  A    between atoms: C_11  and  C_19 
REMARK    7  A    between atoms: C_19  and  C_15 
ROOT
ATOM      1  C   UNL d   1      32.785  19.331 -22.475  0.00  0.00     0.112 C 
ENDROOT
BRANCH   1   2
ATOM      2  N   UNL d   1      32.988  20.091 -22.240  0.00  0.00    -0.157 NA
BRANCH   2   3
ATOM      3  S   UNL d   1      33.102  20.268 -21.441  0.00  0.00     0.285 S 
ATOM      4  O   UNL d   1      33.236  19.467 -21.296  0.00  0.00    -0.198 OA
ATOM      5  O   UNL d   1      33.217  20.431 -20.649  0.00  0.00    -0.198 OA
BRANCH   3   6
ATOM      6  C   UNL d   1      32.966  21.068 -21.596  0.00  0.00     0.105 A 
ATOM      7  C   UNL d   1      32.557  21.538 -21.051  0.00  0.00     0.013 A 
ATOM      8  C   UNL d   1      32.425  22.336 -21.213  0.00  0.00     0.001 A 
ATOM      9  C   UNL d   1      32.019  22.806 -20.672  0.00  0.00     0.000 C 
ATOM     10  C   UNL d   1      32.703  22.665 -21.920  0.00  0.00     0.000 A 
ATOM     11  C   UNL d   1      33.109  22.196 -22.461  0.00  0.00     0.001 A 
ATOM     12  C   UNL d   1      33.241  21.397 -22.299  0.00  0.00     0.013 A 
ENDBRANCH   3   6
ENDBRANCH   2   3
ENDBRANCH   1   2
BRANCH   1  13
ATOM     13  C   UNL d   1      33.028  19.061 -23.208  0.00  0.00     0.022 C 
BRANCH  13  14
ATOM     14  C   UNL d   1      32.634  18.437 -23.561  0.00  0.00     0.004 A 
ATOM     15  C   UNL d   1      32.751  17.664 -23.297  0.00  0.00     0.026 A 
ATOM     16  C   UNL d   1      32.352  17.037 -23.655  0.00  0.00     0.116 A 
ATOM     17  C   UNL d   1      31.828  17.193 -24.289  0.00  0.00     0.116 A 
ATOM     18  C   UNL d   1      31.716  17.957 -24.546  0.00  0.00     0.026 A 
ATOM     19  C   UNL d   1      32.112  18.582 -24.190  0.00  0.00     0.002 A 
BRANCH  16  20
ATOM     20  O   UNL d   1      32.471  16.266 -23.388  0.00  0.00    -0.326 OA
ATOM     21  C   UNL d   1      33.223  15.829 -23.318  0.00  0.00     0.181 C 
ENDBRANCH  16  20
BRANCH  17  22
ATOM     22  O   UNL d   1      31.433  16.595 -24.648  0.00  0.00    -0.326 OA
ATOM     23  C   UNL d   1      30.626  16.628 -24.754  0.00  0.00     0.181 C 
ENDBRANCH  17  22
ENDBRANCH  13  14
ENDBRANCH   1  13
TORSDOF 7
ENDMDL
MODEL 2
REMARK VINA RESULT:      -2.0      2.239      3.824
REMARK  7 active torsions:
REMARK  status: ('A' for Active; 'I' for Inactive)
REMARK    1  A    between atoms: C_2  and  S_1 
REMARK    2  A    between atoms: N_6  and  S_1 
REMARK    3  A    between atoms: O_14  and  C_5 
REMARK    4  A    between atoms: C_15  and  N_6 
REMARK    5  A    between atoms: O_16  and  C_7 
REMARK    6  A    between atoms: C_11  and  C_19 
REMARK    7  A    between atoms: C_19  and  C_15 
ROOT
ATOM      1  C   UNL d   1      31.333  16.647 -23.932  0.00  0.00     0.112 C 
ENDROOT
BRANCH   1   2
ATOM      2  N   UNL d   1      31.922  17.216 -23.872  0.00  0.00    -0.157 NA
BRANCH   2   3
ATOM      3  S   UNL d   1      32.585  17.087 -23.396  0.00  0.00     0.285 S 
ATOM      4  O   UNL d   1      32.367  16.294 -23.328  0.00  0.00    -0.198 OA
ATOM      5  O   UNL d   1      33.237  16.949 -22.923  0.00  0.00    -0.198 OA
BRANCH   3   6
ATOM      6  C   UNL d   1      32.795  17.883 -23.468  0.00  0.00     0.105 A 
ATOM      7  C   UNL d   1      32.907  18.352 -22.796  0.00  0.00     0.013 A 
ATOM      8  C   UNL d   1      33.117  19.145 -22.877  0.00  0.00     0.001 A 
ATOM      9  C   UNL d   1      33.229  19.614 -22.208  0.00  0.00     0.000 C 
ATOM     10  C   UNL d   1      33.216  19.471 -23.631  0.00  0.00     0.000 A 
ATOM     11  C   UNL d   1      33.104  19.003 -24.300  0.00  0.00     0.001 A 
ATOM     12  C   UNL d   1      32.894  18.209 -24.218  0.00  0.00     0.013 A 
ENDBRANCH   3   6
ENDBRANCH   2   3
ENDBRANCH   1   2
BRANCH   1  13
ATOM     13  C   UNL d   1      30.717  16.763 -24.457  0.00  0.00     0.022 C 
BRANCH  13  14
ATOM     14  C   UNL d   1      29.953  16.578 -24.232  0.00  0.00     0.004 A 
ATOM     15  C   UNL d   1      29.409  17.175 -24.062  0.00  0.00     0.026 A 
ATOM     16  C   UNL d   1      28.639  16.985 -23.835  0.00  0.00     0.116 A 
ATOM     17  C   UNL d   1      28.415  16.180 -23.780  0.00  0.00     0.116 A 
ATOM     18  C   UNL d   1      28.954  15.595 -23.949  0.00  0.00     0.026 A 
ATOM     19  C   UNL d   1      29.721  15.783 -24.175  0.00  0.00     0.002 A 
BRANCH  16  20
ATOM     20  O   UNL d   1      28.099  17.585 -23.666  0.00  0.00    -0.326 OA
ATOM     21  C   UNL d   1      28.248  18.441 -23.590  0.00  0.00     0.181 C 
ENDBRANCH  16  20
BRANCH  17  22
ATOM     22  O   UNL d   1      27.670  15.979 -23.561  0.00  0.00    -0.326 OA
ATOM     23  C   UNL d   1      27.231  15.453 -24.001  0.00  0.00     0.181 C 
ENDBRANCH  17  22
ENDBRANCH  13  14
ENDBRANCH   1  13
TORSDOF 7
ENDMDL
MODEL 3
REMARK VINA RESULT:      -1.6      1.632      2.186
REMARK  7 active torsions:
REMARK  status: ('A' for Active; 'I' for Inactive)
REMARK    1  A    between atoms: C_2  and  S_1 
REMARK    2  A    between atoms: N_6  and  S_1 
REMARK    3  A    between atoms: O_14  and  C_5 
REMARK    4  A    between atoms: C_15  and  N_6 
REMARK    5  A    between atoms: O_16  and  C_7 
REMARK    6  A    between atoms: C_11  and  C_19 
REMARK    7  A    between atoms: C_19  and  C_15 
ROOT
ATOM      1  C   UNL d   1      32.549  20.569 -21.412  0.00  0.00     0.112 C 
ENDROOT
BRANCH   1   2
ATOM      2  N   UNL d   1      32.582  21.209 -20.899  0.00  0.00    -0.157 NA
BRANCH   2   3
ATOM      3  S   UNL d   1      31.894  21.617 -20.691  0.00  0.00     0.285 S 
ATOM      4  O   UNL d   1      31.454  21.075 -21.130  0.00  0.00    -0.198 OA
ATOM      5  O   UNL d   1      31.208  22.013 -20.491  0.00  0.00    -0.198 OA
BRANCH   3   6
ATOM      6  C   UNL d   1      32.343  22.156 -20.253  0.00  0.00     0.105 A 
ATOM      7  C   UNL d   1      32.568  21.982 -19.476  0.00  0.00     0.013 A 
ATOM      8  C   UNL d   1      33.015  22.526 -19.046  0.00  0.00     0.001 A 
ATOM      9  C   UNL d   1      33.240  22.355 -18.272  0.00  0.00     0.000 C 
ATOM     10  C   UNL d   1      33.238  23.243 -19.393  0.00  0.00     0.000 A 
ATOM     11  C   UNL d   1      33.013  23.414 -20.167  0.00  0.00     0.001 A 
ATOM     12  C   UNL d   1      32.566  22.870 -20.597  0.00  0.00     0.013 A 
ENDBRANCH   3   6
ENDBRANCH   2   3
ENDBRANCH   1   2
BRANCH   1  13
ATOM     13  C   UNL d   1      33.241  20.291 -21.749  0.00  0.00     0.022 C 
BRANCH  13  14
ATOM     14  C   UNL d   1      33.204  19.784 -22.390  0.00  0.00     0.004 A 
ATOM     15  C   UNL d   1      33.149  18.969 -22.277  0.00  0.00     0.026 A 
ATOM     16  C   UNL d   1      33.112  18.461 -22.926  0.00  0.00     0.116 A 
ATOM     17  C   UNL d   1      33.131  18.781 -23.699  0.00  0.00     0.116 A 
ATOM     18  C   UNL d   1      33.185  19.585 -23.806  0.00  0.00     0.026 A 
ATOM     19  C   UNL d   1      33.222  20.093 -23.161  0.00  0.00     0.002 A 
BRANCH  16  20
ATOM     20  O   UNL d   1      33.057  17.646 -22.810  0.00  0.00    -0.326 OA
ATOM     21  C   UNL d   1      32.755  17.219 -22.112  0.00  0.00     0.181 C 
ENDBRANCH  16  20
BRANCH  17  22
ATOM     22  O   UNL d   1      33.096  18.301 -24.341  0.00  0.00    -0.326 OA
ATOM     23  C   UNL d   1      33.106  18.606 -25.096  0.00  0.00     0.181 C 
ENDBRANCH  17  22
ENDBRANCH  13  14
ENDBRANCH   1  13
TORSDOF 7
ENDMDL
MODEL 4
REMARK VINA RESULT:      -1.5      0.684      1.285
REMARK  7 active torsions:
REMARK  status: ('A' for Active; 'I' for Inactive)
REMARK    1  A    between atoms: C_2  and  S_1 
REMARK    2  A    between atoms: N_6  and  S_1 
REMARK    3  A    between atoms: O_14  and  C_5 
REMARK    4  A    between atoms: C_15  and  N_6 
REMARK    5  A    between atoms: O_16  and  C_7 
REMARK    6  A    between atoms: C_11  and  C_19 
REMARK    7  A    between atoms: C_19  and  C_15 
ROOT
ATOM      1  C   UNL d   1      32.826  19.092 -22.677  0.00  0.00     0.112 C 
ENDROOT
BRANCH   1   2
ATOM      2  N   UNL d   1      33.103  19.826 -22.432  0.00  0.00    -0.157 NA
BRANCH   2   3
ATOM      3  S   UNL d   1      33.051  20.052 -21.640  0.00  0.00     0.285 S 
ATOM      4  O   UNL d   1      33.079  19.256 -21.423  0.00  0.00    -0.198 OA
ATOM      5  O   UNL d   1      32.999  20.264 -20.852  0.00  0.00    -0.198 OA
BRANCH   3   6
ATOM      6  C   UNL d   1      33.023  20.846 -21.865  0.00  0.00     0.105 A 
ATOM      7  C   UNL d   1      32.779  21.428 -21.329  0.00  0.00     0.013 A 
ATOM      8  C   UNL d   1      32.754  22.218 -21.562  0.00  0.00     0.001 A 
ATOM      9  C   UNL d   1      32.512  22.799 -21.030  0.00  0.00     0.000 C 
ATOM     10  C   UNL d   1      32.974  22.429 -22.332  0.00  0.00     0.000 A 
ATOM     11  C   UNL d   1      33.216  21.849 -22.864  0.00  0.00     0.001 A 
ATOM     12  C   UNL d   1      33.241  21.058 -22.631  0.00  0.00     0.013 A 
ENDBRANCH   3   6
ENDBRANCH   2   3
ENDBRANCH   1   2
BRANCH   1  13
ATOM     13  C   UNL d   1      32.899  18.880 -23.464  0.00  0.00     0.022 C 
BRANCH  13  14
ATOM     14  C   UNL d   1      32.523  18.207 -23.738  0.00  0.00     0.004 A 
ATOM     15  C   UNL d   1      31.745  18.242 -24.009  0.00  0.00     0.026 A 
ATOM     16  C   UNL d   1      31.370  17.560 -24.284  0.00  0.00     0.116 A 
ATOM     17  C   UNL d   1      31.786  16.835 -24.286  0.00  0.00     0.116 A 
ATOM     18  C   UNL d   1      32.554  16.805 -24.018  0.00  0.00     0.026 A 
ATOM     19  C   UNL d   1      32.929  17.482 -23.744  0.00  0.00     0.002 A 
BRANCH  16  20
ATOM     20  O   UNL d   1      30.591  17.599 -24.554  0.00  0.00    -0.326 OA
ATOM     21  C   UNL d   1      30.170  18.283 -24.894  0.00  0.00     0.181 C 
ENDBRANCH  16  20
BRANCH  17  22
ATOM     22  O   UNL d   1      31.436  16.164 -24.551  0.00  0.00    -0.326 OA
ATOM     23  C   UNL d   1      31.833  15.453 -24.548  0.00  0.00     0.181 C 
ENDBRANCH  17  22
ENDBRANCH  13  14
ENDBRANCH   1  13
TORSDOF 7
ENDMDL
MODEL 5
REMARK VINA RESULT:      -0.4      1.698      2.524
REMARK  7 active torsions:
REMARK  status: ('A' for Active; 'I' for Inactive)
REMARK    1  A    between atoms: C_2  and  S_1 
REMARK    2  A    between atoms: N_6  and  S_1 
REMARK    3  A    between atoms: O_14  and  C_5 
REMARK    4  A    between atoms: C_15  and  N_6 
REMARK    5  A    between atoms: O_16  and  C_7 
REMARK    6  A    between atoms: C_11  and  C_19 
REMARK    7  A    between atoms: C_19  and  C_15 
ROOT
ATOM      1  C   UNL d   1      31.864  18.135 -24.007  0.00  0.00     0.112 C 
ENDROOT
BRANCH   1   2
ATOM      2  N   UNL d   1      32.429  18.552 -23.581  0.00  0.00    -0.157 NA
BRANCH   2   3
ATOM      3  S   UNL d   1      32.771  19.237 -23.893  0.00  0.00     0.285 S 
ATOM      4  O   UNL d   1      32.613  18.954 -24.652  0.00  0.00    -0.198 OA
ATOM      5  O   UNL d   1      33.106  19.909 -24.213  0.00  0.00    -0.198 OA
BRANCH   3   6
ATOM      6  C   UNL d   1      32.925  19.512 -23.130  0.00  0.00     0.105 A 
ATOM      7  C   UNL d   1      32.974  20.323 -22.977  0.00  0.00     0.013 A 
ATOM      8  C   UNL d   1      33.128  20.590 -22.212  0.00  0.00     0.001 A 
ATOM      9  C   UNL d   1      33.178  21.398 -22.058  0.00  0.00     0.000 C 
ATOM     10  C   UNL d   1      33.233  20.045 -21.598  0.00  0.00     0.000 A 
ATOM     11  C   UNL d   1      33.183  19.237 -21.752  0.00  0.00     0.001 A 
ATOM     12  C   UNL d   1      33.029  18.970 -22.517  0.00  0.00     0.013 A 
ENDBRANCH   3   6
ENDBRANCH   2   3
ENDBRANCH   1   2
BRANCH   1  13
ATOM     13  C   UNL d   1      31.950  17.327 -24.101  0.00  0.00     0.022 C 
BRANCH  13  14
ATOM     14  C   UNL d   1      31.289  16.861 -24.221  0.00  0.00     0.004 A 
ATOM     15  C   UNL d   1      30.968  16.421 -23.602  0.00  0.00     0.026 A 
ATOM     16  C   UNL d   1      30.301  15.951 -23.727  0.00  0.00     0.116 A 
ATOM     17  C   UNL d   1      29.954  15.926 -24.488  0.00  0.00     0.116 A 
ATOM     18  C   UNL d   1      30.274  16.362 -25.096  0.00  0.00     0.026 A 
ATOM     19  C   UNL d   1      30.938  16.829 -24.973  0.00  0.00     0.002 A 
BRANCH  16  20
ATOM     20  O   UNL d   1      29.983  15.513 -23.105  0.00  0.00    -0.326 OA
ATOM     21  C   UNL d   1      30.178  15.558 -22.256  0.00  0.00     0.181 C 
ENDBRANCH  16  20
BRANCH  17  22
ATOM     22  O   UNL d   1      29.306  15.475 -24.626  0.00  0.00    -0.326 OA
ATOM     23  C   UNL d   1      28.588  15.814 -24.809  0.00  0.00     0.181 C 
ENDBRANCH  17  22
ENDBRANCH  13  14
ENDBRANCH   1  13
TORSDOF 7
ENDMDL
