MODEL 1
REMARK VINA RESULT:       2.7      0.000      0.000
REMARK  6 active torsions:
REMARK  status: ('A' for Active; 'I' for Inactive)
REMARK    1  A    between atoms: N_5  and  C_1 
REMARK    2  A    between atoms: N_14  and  C_3 
REMARK    3  A    between atoms: N_9  and  C_20 
REMARK    4  A    between atoms: C_22  and  N_14 
REMARK    5  A    between atoms: C_20  and  C_21 
REMARK    6  A    between atoms: C_21  and  C_22 
ROOT
ATOM      1  C   UNL d   1     -41.302-121.173 -51.935  0.00  0.00     0.200 A 
ATOM      2  C   UNL d   1     -41.418-120.821 -52.676  0.00  0.00     0.288 A 
ATOM      3  C   UNL d   1     -41.251-121.996 -51.863  0.00  0.00     0.109 A 
ATOM      4  N   UNL d   1     -41.484-121.290 -53.349  0.00  0.00    -0.270 N 
ATOM      5  C   UNL d   1     -41.318-122.461 -52.544  0.00  0.00     0.036 A 
ATOM      6  C   UNL d   1     -41.434-122.115 -53.283  0.00  0.00     0.069 A 
ATOM      7  O   UNL d   1     -41.468-120.003 -52.740  0.00  0.00    -0.265 OA
ATOM      8  C   UNL d   1     -41.600-120.943 -54.088  0.00  0.00     0.102 C 
ATOM      9  C   UNL d   1     -41.269-123.284 -52.482  0.00  0.00     0.003 A 
ATOM     10  C   UNL d   1     -41.501-122.581 -53.960  0.00  0.00     0.018 A 
ATOM     11  C   UNL d   1     -41.335-123.752 -53.155  0.00  0.00     0.000 A 
ATOM     12  C   UNL d   1     -41.452-123.400 -53.896  0.00  0.00     0.002 A 
ENDROOT
BRANCH   3  13
ATOM     13  N   UNL d   1     -41.135-122.346 -51.126  0.00  0.00    -0.242 NA
BRANCH  13  14
ATOM     14  C   UNL d   1     -41.740-122.342 -50.567  0.00  0.00     0.101 C 
BRANCH  14  15
ATOM     15  C   UNL d   1     -41.573-122.524 -49.777  0.00  0.00     0.040 C 
BRANCH  15  16
ATOM     16  C   UNL d   1     -42.184-122.562 -49.227  0.00  0.00     0.083 C 
BRANCH  16  17
ATOM     17  N   UNL d   1     -42.929-122.850 -49.452  0.00  0.00    -0.285 N 
ATOM     18  C   UNL d   1     -43.133-123.642 -49.545  0.00  0.00     0.183 A 
ATOM     19  N   UNL d   1     -43.924-123.671 -49.772  0.00  0.00    -0.222 NA
ATOM     20  C   UNL d   1     -44.204-122.898 -49.818  0.00  0.00     0.120 A 
ATOM     21  C   UNL d   1     -43.594-122.392 -49.622  0.00  0.00     0.102 A 
ENDBRANCH  16  17
ENDBRANCH  15  16
ENDBRANCH  14  15
ENDBRANCH  13  14
ENDBRANCH   3  13
BRANCH   1  22
ATOM     22  N   UNL d   1     -41.236-120.696 -51.262  0.00  0.00    -0.107 N 
ATOM     23  O   UNL d   1     -41.211-121.034 -50.511  0.00  0.00    -0.531 OA
ATOM     24  O   UNL d   1     -41.195-119.872 -51.348  0.00  0.00    -0.531 OA
ENDBRANCH   1  22
TORSDOF 6
ENDMDL
