MODEL 1
REMARK VINA RESULT:      -8.3      0.000      0.000
REMARK  6 active torsions:
REMARK  status: ('A' for Active; 'I' for Inactive)
REMARK       I    between atoms: C_6  and  N_1 
REMARK    1  A    between atoms: C_7  and  C_3 
REMARK    2  A    between atoms: C_14  and  C_4 
REMARK    3  A    between atoms: C_20  and  C_6 
REMARK    4  A    between atoms: C_11  and  C_22 
REMARK    5  A    between atoms: C_21  and  C_20 
REMARK    6  A    between atoms: C_22  and  C_21 
ROOT
ATOM      1  N   UNL d   1      51.684  32.738  53.087  0.00  0.00    -0.195 N 
ATOM      2  N   UNL d   1      50.917  32.974  52.834  0.00  0.00    -0.163 NA
ATOM      3  C   UNL d   1      52.101  33.410  53.275  0.00  0.00     0.088 A 
ATOM      4  C   UNL d   1      50.887  33.801  52.875  0.00  0.00     0.103 A 
ATOM      5  C   UNL d   1      51.636  34.058  53.153  0.00  0.00     0.040 A 
ATOM      6  C   UNL d   1      51.946  31.917  53.128  0.00  0.00     0.280 C 
ATOM      7  O   UNL d   1      51.422  31.304  52.907  0.00  0.00    -0.265 OA
ENDROOT
BRANCH   3   8
ATOM      8  C   UNL d   1      52.882  33.425  53.549  0.00  0.00     0.019 A 
ATOM      9  C   UNL d   1      53.045  33.507  54.329  0.00  0.00     0.022 A 
ATOM     10  C   UNL d   1      53.827  33.522  54.603  0.00  0.00     0.099 A 
ATOM     11  N   UNL d   1      53.960  33.605  55.379  0.00  0.00    -0.241 NA
ATOM     12  C   UNL d   1      54.453  33.451  54.068  0.00  0.00     0.099 A 
ATOM     13  C   UNL d   1      54.769  33.620  55.662  0.00  0.00     0.120 A 
ATOM     14  C   UNL d   1      55.388  33.551  55.150  0.00  0.00     0.120 A 
ATOM     15  N   UNL d   1      55.206  33.465  54.331  0.00  0.00    -0.241 NA
ATOM     16  C   UNL d   1      54.263  33.367  53.275  0.00  0.00     0.021 A 
ATOM     17  C   UNL d   1      53.510  33.353  53.011  0.00  0.00     0.003 A 
ENDBRANCH   3   8
BRANCH   6  18
ATOM     18  C   UNL d   1      52.704  31.768  53.383  0.00  0.00     0.063 C 
BRANCH  18  19
ATOM     19  C   UNL d   1      53.039  31.017  53.245  0.00  0.00     0.011 C 
BRANCH  19  20
ATOM     20  C   UNL d   1      53.003  30.465  53.853  0.00  0.00     0.070 C 
BRANCH  20  21
ATOM     21  C   UNL d   1      53.494  29.807  53.868  0.00  0.00     0.211 C 
ATOM     22  O   UNL d   1      53.233  29.118  54.251  0.00  0.00    -0.644 OA
ATOM     23  O   UNL d   1      54.235  29.817  53.514  0.00  0.00    -0.644 OA
ENDBRANCH  20  21
ENDBRANCH  19  20
ENDBRANCH  18  19
ENDBRANCH   6  18
BRANCH   4  24
ATOM     24  C   UNL d   1      50.221  34.283  52.673  0.00  0.00     0.019 A 
ATOM     25  C   UNL d   1      49.870  34.736  53.234  0.00  0.00     0.002 A 
ATOM     26  C   UNL d   1      49.220  35.211  53.051  0.00  0.00     0.000 A 
ATOM     27  C   UNL d   1      48.933  35.215  52.286  0.00  0.00     0.000 A 
ATOM     28  C   UNL d   1      49.297  34.747  51.710  0.00  0.00     0.000 A 
ATOM     29  C   UNL d   1      49.947  34.272  51.893  0.00  0.00     0.002 A 
ENDBRANCH   4  24
TORSDOF 6
ENDMDL
MODEL 2
REMARK VINA RESULT:      -8.0      1.700      2.777
REMARK  6 active torsions:
REMARK  status: ('A' for Active; 'I' for Inactive)
REMARK       I    between atoms: C_6  and  N_1 
REMARK    1  A    between atoms: C_7  and  C_3 
REMARK    2  A    between atoms: C_14  and  C_4 
REMARK    3  A    between atoms: C_20  and  C_6 
REMARK    4  A    between atoms: C_11  and  C_22 
REMARK    5  A    between atoms: C_21  and  C_20 
REMARK    6  A    between atoms: C_22  and  C_21 
ROOT
ATOM      1  N   UNL d   1      51.798  33.985  53.455  0.00  0.00    -0.195 N 
ATOM      2  N   UNL d   1      51.171  34.520  53.287  0.00  0.00    -0.163 NA
ATOM      3  C   UNL d   1      51.673  33.310  53.018  0.00  0.00     0.088 A 
ATOM      4  C   UNL d   1      50.670  34.150  52.741  0.00  0.00     0.103 A 
ATOM      5  C   UNL d   1      50.998  33.394  52.583  0.00  0.00     0.040 A 
ATOM      6  C   UNL d   1      52.444  34.156  54.001  0.00  0.00     0.280 C 
ATOM      7  O   UNL d   1      52.467  34.891  54.398  0.00  0.00    -0.265 OA
ENDROOT
BRANCH   3   8
ATOM      8  C   UNL d   1      52.162  32.644  53.020  0.00  0.00     0.019 A 
ATOM      9  C   UNL d   1      51.933  31.963  53.377  0.00  0.00     0.022 A 
ATOM     10  C   UNL d   1      52.423  31.296  53.379  0.00  0.00     0.099 A 
ATOM     11  N   UNL d   1      52.173  30.637  53.739  0.00  0.00    -0.241 NA
ATOM     12  C   UNL d   1      53.163  31.325  53.009  0.00  0.00     0.099 A 
ATOM     13  C   UNL d   1      52.680  29.946  53.741  0.00  0.00     0.120 A 
ATOM     14  C   UNL d   1      53.403  29.962  53.384  0.00  0.00     0.120 A 
ATOM     15  N   UNL d   1      53.635  30.682  53.012  0.00  0.00    -0.241 NA
ATOM     16  C   UNL d   1      53.376  32.030  52.651  0.00  0.00     0.021 A 
ATOM     17  C   UNL d   1      52.904  32.674  52.649  0.00  0.00     0.003 A 
ENDBRANCH   3   8
BRANCH   6  18
ATOM     18  C   UNL d   1      53.015  33.585  54.111  0.00  0.00     0.063 C 
BRANCH  18  19
ATOM     19  C   UNL d   1      53.489  33.613  54.796  0.00  0.00     0.011 C 
BRANCH  19  20
ATOM     20  C   UNL d   1      54.274  33.838  54.709  0.00  0.00     0.070 C 
BRANCH  20  21
ATOM     21  C   UNL d   1      54.844  33.642  55.266  0.00  0.00     0.211 C 
ATOM     22  O   UNL d   1      55.530  34.106  55.322  0.00  0.00    -0.644 OA
ATOM     23  O   UNL d   1      54.750  32.998  55.768  0.00  0.00    -0.644 OA
ENDBRANCH  20  21
ENDBRANCH  19  20
ENDBRANCH  18  19
ENDBRANCH   6  18
BRANCH   4  24
ATOM     24  C   UNL d   1      49.964  34.483  52.413  0.00  0.00     0.019 A 
ATOM     25  C   UNL d   1      49.788  34.363  51.640  0.00  0.00     0.002 A 
ATOM     26  C   UNL d   1      49.102  34.681  51.306  0.00  0.00     0.000 A 
ATOM     27  C   UNL d   1      48.601  35.124  51.775  0.00  0.00     0.000 A 
ATOM     28  C   UNL d   1      48.785  35.245  52.571  0.00  0.00     0.000 A 
ATOM     29  C   UNL d   1      49.470  34.927  52.905  0.00  0.00     0.002 A 
ENDBRANCH   4  24
TORSDOF 6
ENDMDL
MODEL 3
REMARK VINA RESULT:      -8.0      1.940      4.782
REMARK  6 active torsions:
REMARK  status: ('A' for Active; 'I' for Inactive)
REMARK       I    between atoms: C_6  and  N_1 
REMARK    1  A    between atoms: C_7  and  C_3 
REMARK    2  A    between atoms: C_14  and  C_4 
REMARK    3  A    between atoms: C_20  and  C_6 
REMARK    4  A    between atoms: C_11  and  C_22 
REMARK    5  A    between atoms: C_21  and  C_20 
REMARK    6  A    between atoms: C_22  and  C_21 
ROOT
ATOM      1  N   UNL d   1      53.257  32.402  54.109  0.00  0.00    -0.195 N 
ATOM      2  N   UNL d   1      53.571  31.670  54.379  0.00  0.00    -0.163 NA
ATOM      3  C   UNL d   1      52.672  32.238  53.569  0.00  0.00     0.088 A 
ATOM      4  C   UNL d   1      53.160  31.066  53.987  0.00  0.00     0.103 A 
ATOM      5  C   UNL d   1      52.601  31.439  53.484  0.00  0.00     0.040 A 
ATOM      6  C   UNL d   1      53.533  33.173  54.381  0.00  0.00     0.280 C 
ATOM      7  O   UNL d   1      54.148  33.217  54.946  0.00  0.00    -0.265 OA
ENDROOT
BRANCH   3   8
ATOM      8  C   UNL d   1      52.221  32.805  53.169  0.00  0.00     0.019 A 
ATOM      9  C   UNL d   1      51.481  32.993  53.415  0.00  0.00     0.022 A 
ATOM     10  C   UNL d   1      51.029  33.560  53.015  0.00  0.00     0.099 A 
ATOM     11  N   UNL d   1      50.302  33.727  53.278  0.00  0.00    -0.241 NA
ATOM     12  C   UNL d   1      51.340  33.942  52.350  0.00  0.00     0.099 A 
ATOM     13  C   UNL d   1      49.834  34.314  52.864  0.00  0.00     0.120 A 
ATOM     14  C   UNL d   1      50.126  34.693  52.215  0.00  0.00     0.120 A 
ATOM     15  N   UNL d   1      50.905  34.489  51.965  0.00  0.00    -0.241 NA
ATOM     16  C   UNL d   1      52.098  33.735  52.118  0.00  0.00     0.021 A 
ATOM     17  C   UNL d   1      52.533  33.188  52.503  0.00  0.00     0.003 A 
ENDBRANCH   3   8
BRANCH   6  18
ATOM     18  C   UNL d   1      53.178  33.839  54.073  0.00  0.00     0.063 C 
BRANCH  18  19
ATOM     19  C   UNL d   1      53.532  34.582  54.202  0.00  0.00     0.011 C 
BRANCH  19  20
ATOM     20  C   UNL d   1      53.205  35.067  54.779  0.00  0.00     0.070 C 
BRANCH  20  21
ATOM     21  C   UNL d   1      53.135  35.878  54.674  0.00  0.00     0.211 C 
ATOM     22  O   UNL d   1      52.436  36.257  54.915  0.00  0.00    -0.644 OA
ATOM     23  O   UNL d   1      53.739  36.321  54.336  0.00  0.00    -0.644 OA
ENDBRANCH  20  21
ENDBRANCH  19  20
ENDBRANCH  18  19
ENDBRANCH   6  18
BRANCH   4  24
ATOM     24  C   UNL d   1      53.289  30.235  54.085  0.00  0.00     0.019 A 
ATOM     25  C   UNL d   1      53.156  29.891  54.797  0.00  0.00     0.002 A 
ATOM     26  C   UNL d   1      53.277  29.082  54.907  0.00  0.00     0.000 A 
ATOM     27  C   UNL d   1      53.538  28.630  54.278  0.00  0.00     0.000 A 
ATOM     28  C   UNL d   1      53.675  28.988  53.547  0.00  0.00     0.000 A 
ATOM     29  C   UNL d   1      53.554  29.796  53.436  0.00  0.00     0.002 A 
ENDBRANCH   4  24
TORSDOF 6
ENDMDL
MODEL 4
REMARK VINA RESULT:      -6.5      1.742      4.203
REMARK  6 active torsions:
REMARK  status: ('A' for Active; 'I' for Inactive)
REMARK       I    between atoms: C_6  and  N_1 
REMARK    1  A    between atoms: C_7  and  C_3 
REMARK    2  A    between atoms: C_14  and  C_4 
REMARK    3  A    between atoms: C_20  and  C_6 
REMARK    4  A    between atoms: C_11  and  C_22 
REMARK    5  A    between atoms: C_21  and  C_20 
REMARK    6  A    between atoms: C_22  and  C_21 
ROOT
ATOM      1  N   UNL d   1      51.791  32.532  53.288  0.00  0.00    -0.195 N 
ATOM      2  N   UNL d   1      51.844  31.695  53.226  0.00  0.00    -0.163 NA
ATOM      3  C   UNL d   1      52.526  32.814  53.491  0.00  0.00     0.088 A 
ATOM      4  C   UNL d   1      52.626  31.484  53.398  0.00  0.00     0.103 A 
ATOM      5  C   UNL d   1      53.040  32.195  53.561  0.00  0.00     0.040 A 
ATOM      6  C   UNL d   1      51.066  32.980  53.151  0.00  0.00     0.280 C 
ATOM      7  O   UNL d   1      50.363  32.577  52.945  0.00  0.00    -0.265 OA
ENDROOT
BRANCH   3   8
ATOM      8  C   UNL d   1      52.715  33.610  53.607  0.00  0.00     0.019 A 
ATOM      9  C   UNL d   1      52.764  33.920  54.345  0.00  0.00     0.022 A 
ATOM     10  C   UNL d   1      52.954  34.718  54.462  0.00  0.00     0.099 A 
ATOM     11  N   UNL d   1      52.996  34.999  55.201  0.00  0.00    -0.241 NA
ATOM     12  C   UNL d   1      53.096  35.208  53.811  0.00  0.00     0.099 A 
ATOM     13  C   UNL d   1      53.192  35.824  55.321  0.00  0.00     0.120 A 
ATOM     14  C   UNL d   1      53.332  36.312  54.695  0.00  0.00     0.120 A 
ATOM     15  N   UNL d   1      53.278  35.977  53.923  0.00  0.00    -0.241 NA
ATOM     16  C   UNL d   1      53.040  34.870  53.066  0.00  0.00     0.021 A 
ATOM     17  C   UNL d   1      52.857  34.102  52.954  0.00  0.00     0.003 A 
ENDBRANCH   3   8
BRANCH   6  18
ATOM     18  C   UNL d   1      51.094  33.790  53.230  0.00  0.00     0.063 C 
BRANCH  18  19
ATOM     19  C   UNL d   1      50.383  34.212  53.330  0.00  0.00     0.011 C 
BRANCH  19  20
ATOM     20  C   UNL d   1      50.046  34.560  52.666  0.00  0.00     0.070 C 
BRANCH  20  21
ATOM     21  C   UNL d   1      49.421  35.088  52.724  0.00  0.00     0.211 C 
ATOM     22  O   UNL d   1      48.868  35.128  52.106  0.00  0.00    -0.644 OA
ATOM     23  O   UNL d   1      49.331  35.576  53.380  0.00  0.00    -0.644 OA
ENDBRANCH  20  21
ENDBRANCH  19  20
ENDBRANCH  18  19
ENDBRANCH   6  18
BRANCH   4  24
ATOM     24  C   UNL d   1      52.936  30.696  53.403  0.00  0.00     0.019 A 
ATOM     25  C   UNL d   1      53.250  30.394  54.078  0.00  0.00     0.002 A 
ATOM     26  C   UNL d   1      53.556  29.628  54.098  0.00  0.00     0.000 A 
ATOM     27  C   UNL d   1      53.537  29.174  53.419  0.00  0.00     0.000 A 
ATOM     28  C   UNL d   1      53.214  29.488  52.726  0.00  0.00     0.000 A 
ATOM     29  C   UNL d   1      52.908  30.254  52.705  0.00  0.00     0.002 A 
ENDBRANCH   4  24
TORSDOF 6
ENDMDL
