MODEL 1
REMARK VINA RESULT:      40.4      0.000      0.000
REMARK  6 active torsions:
REMARK  status: ('A' for Active; 'I' for Inactive)
REMARK    1  A    between atoms: C_7  and  C_1 
REMARK    2  A    between atoms: C_10  and  C_2 
REMARK    3  A    between atoms: C_9  and  C_5 
REMARK    4  A    between atoms: O_15  and  C_7 
REMARK    5  A    between atoms: N_14  and  C_9 
REMARK    6  A    between atoms: C_21  and  O_15 
ROOT
ATOM      1  C   UNL d   1      45.423 -15.002  44.123  0.00  0.00     0.088 A 
ATOM      2  C   UNL d   1      45.984 -15.485  44.487  0.00  0.00     0.105 A 
ATOM      3  C   UNL d   1      45.630 -14.230  44.271  0.00  0.00     0.034 A 
ATOM      4  O   UNL d   1      46.522 -14.986  44.850  0.00  0.00    -0.307 OA
ATOM      5  C   UNL d   1      45.281 -13.510  44.050  0.00  0.00     0.059 A 
ATOM      6  C   UNL d   1      46.307 -14.203  44.719  0.00  0.00     0.100 A 
ATOM      7  C   UNL d   1      45.600 -12.800  44.272  0.00  0.00     0.197 A 
ATOM      8  C   UNL d   1      46.644 -13.500  44.952  0.00  0.00     0.028 A 
ATOM      9  C   UNL d   1      46.294 -12.785  44.731  0.00  0.00     0.044 A 
ATOM     10  O   UNL d   1      45.247 -12.080  44.049  0.00  0.00    -0.286 OA
ENDROOT
BRANCH   2  11
ATOM     11  C   UNL d   1      45.991 -16.306  44.480  0.00  0.00     0.023 A 
ATOM     12  C   UNL d   1      46.528 -16.707  43.985  0.00  0.00     0.002 A 
ATOM     13  C   UNL d   1      46.546 -17.540  43.969  0.00  0.00     0.000 A 
ATOM     14  C   UNL d   1      46.019 -17.955  44.454  0.00  0.00     0.000 A 
ATOM     15  C   UNL d   1      45.491 -17.558  44.940  0.00  0.00     0.000 A 
ATOM     16  C   UNL d   1      45.477 -16.737  44.953  0.00  0.00     0.002 A 
ENDBRANCH   2  11
BRANCH   1  17
ATOM     17  C   UNL d   1      44.941 -15.588  43.795  0.00  0.00     0.302 C 
ATOM     18  O   UNL d   1      45.107 -15.883  43.043  0.00  0.00    -0.259 OA
BRANCH  17  19
ATOM     19  O   UNL d   1      44.297 -15.883  44.207  0.00  0.00    -0.271 OA
BRANCH  19  20
ATOM     20  C   UNL d   1      43.606 -15.447  44.291  0.00  0.00     0.126 C 
ATOM     21  C   UNL d   1      43.116 -15.540  44.953  0.00  0.00     0.029 C 
ENDBRANCH  19  20
ENDBRANCH  17  19
ENDBRANCH   1  17
BRANCH   5  22
ATOM     22  C   UNL d   1      44.590 -13.513  43.593  0.00  0.00     0.084 C 
BRANCH  22  23
ATOM     23  N   UNL d   1      44.526 -13.038  42.920  0.00  0.00    -0.300 N 
ATOM     24  C   UNL d   1      43.925 -12.483  42.880  0.00  0.00     0.100 C 
ATOM     25  C   UNL d   1      45.049 -13.118  42.304  0.00  0.00     0.100 C 
ENDBRANCH  22  23
ENDBRANCH   5  22
TORSDOF 6
ENDMDL
