MODEL 1
REMARK VINA RESULT:      -7.0      0.000      0.000
REMARK  6 active torsions:
REMARK  status: ('A' for Active; 'I' for Inactive)
REMARK    1  A    between atoms: N_2  and  S_1 
REMARK    2  A    between atoms: C_3  and  S_1 
REMARK    3  A    between atoms: O_13  and  C_8 
REMARK    4  A    between atoms: C_14  and  O_13 
REMARK    5  A    between atoms: C_15  and  C_14 
REMARK    6  A    between atoms: C_16  and  C_15 
ROOT
ATOM      1  C   UNL d   1     -47.728  13.997  22.836  0.00  0.00     0.104 A 
ATOM      2  C   UNL d   1     -47.581  13.194  22.967  0.00  0.00     0.015 A 
ATOM      3  C   UNL d   1     -47.143  14.500  22.663  0.00  0.00     0.015 A 
ATOM      4  C   UNL d   1     -46.201  13.411  22.742  0.00  0.00     0.100 A 
ATOM      5  C   UNL d   1     -46.830  12.908  22.920  0.00  0.00     0.025 A 
ATOM      6  C   UNL d   1     -46.348  14.213  22.611  0.00  0.00     0.025 A 
ENDROOT
BRANCH   1   7
ATOM      7  S   UNL d   1     -48.512  14.280  22.887  0.00  0.00     0.271 S 
ATOM      8  O   UNL d   1     -48.240  15.022  22.648  0.00  0.00    -0.200 OA
ATOM      9  O   UNL d   1     -48.775  13.522  23.129  0.00  0.00    -0.200 OA
BRANCH   7  10
ATOM     10  N   UNL d   1     -49.306  14.564  22.940  0.00  0.00    -0.229 N 
ATOM     11  C   UNL d   1     -49.752  14.294  22.287  0.00  0.00     0.092 A 
ATOM     12  C   UNL d   1     -50.547  14.444  22.126  0.00  0.00     0.020 A 
ATOM     13  C   UNL d   1     -51.064  14.882  22.562  0.00  0.00     0.002 A 
ATOM     14  C   UNL d   1     -50.977  15.290  23.254  0.00  0.00     0.002 A 
ATOM     15  C   UNL d   1     -50.280  15.350  23.698  0.00  0.00     0.020 A 
ATOM     16  C   UNL d   1     -49.545  15.036  23.570  0.00  0.00     0.092 A 
ENDBRANCH   7  10
ENDBRANCH   1   7
BRANCH   4  17
ATOM     17  O   UNL d   1     -45.438  13.107  22.697  0.00  0.00    -0.305 OA
BRANCH  17  18
ATOM     18  C   UNL d   1     -45.025  13.161  22.004  0.00  0.00     0.123 C 
BRANCH  18  19
ATOM     19  C   UNL d   1     -44.322  12.722  21.899  0.00  0.00     0.027 C 
BRANCH  19  20
ATOM     20  C   UNL d   1     -43.715  13.007  21.419  0.00  0.00     0.002 C 
ATOM     21  C   UNL d   1     -42.963  12.645  21.406  0.00  0.00     0.000 C 
ENDBRANCH  19  20
ENDBRANCH  18  19
ENDBRANCH  17  18
ENDBRANCH   4  17
TORSDOF 6
ENDMDL
MODEL 2
REMARK VINA RESULT:      -4.9      8.077      9.155
REMARK  6 active torsions:
REMARK  status: ('A' for Active; 'I' for Inactive)
REMARK    1  A    between atoms: N_2  and  S_1 
REMARK    2  A    between atoms: C_3  and  S_1 
REMARK    3  A    between atoms: O_13  and  C_8 
REMARK    4  A    between atoms: C_14  and  O_13 
REMARK    5  A    between atoms: C_15  and  C_14 
REMARK    6  A    between atoms: C_16  and  C_15 
ROOT
ATOM      1  C   UNL d   1     -39.695  14.652  20.412  0.00  0.00     0.104 A 
ATOM      2  C   UNL d   1     -40.495  14.481  20.291  0.00  0.00     0.015 A 
ATOM      3  C   UNL d   1     -39.206  14.784  19.806  0.00  0.00     0.015 A 
ATOM      4  C   UNL d   1     -40.302  14.580  18.893  0.00  0.00     0.100 A 
ATOM      5  C   UNL d   1     -40.791  14.446  19.543  0.00  0.00     0.025 A 
ATOM      6  C   UNL d   1     -39.503  14.751  19.014  0.00  0.00     0.025 A 
ENDROOT
BRANCH   1   7
ATOM      7  S   UNL d   1     -39.402  14.685  21.193  0.00  0.00     0.271 S 
ATOM      8  O   UNL d   1     -39.884  14.041  21.381  0.00  0.00    -0.200 OA
ATOM      9  O   UNL d   1     -38.918  15.338  20.990  0.00  0.00    -0.200 OA
BRANCH   7  10
ATOM     10  N   UNL d   1     -39.104  14.719  21.984  0.00  0.00    -0.229 N 
ATOM     11  C   UNL d   1     -38.922  13.950  22.256  0.00  0.00     0.092 A 
ATOM     12  C   UNL d   1     -38.620  13.738  22.993  0.00  0.00     0.020 A 
ATOM     13  C   UNL d   1     -38.434  14.224  23.609  0.00  0.00     0.002 A 
ATOM     14  C   UNL d   1     -38.482  15.026  23.698  0.00  0.00     0.002 A 
ATOM     15  C   UNL d   1     -38.753  15.562  23.127  0.00  0.00     0.020 A 
ATOM     16  C   UNL d   1     -39.027  15.438  22.376  0.00  0.00     0.092 A 
ENDBRANCH   7  10
ENDBRANCH   1   7
BRANCH   4  17
ATOM     17  O   UNL d   1     -40.617  14.542  18.133  0.00  0.00    -0.305 OA
BRANCH  17  18
ATOM     18  C   UNL d   1     -40.659  15.212  17.684  0.00  0.00     0.123 C 
BRANCH  18  19
ATOM     19  C   UNL d   1     -41.045  15.196  16.942  0.00  0.00     0.027 C 
BRANCH  19  20
ATOM     20  C   UNL d   1     -41.321  15.892  16.595  0.00  0.00     0.002 C 
ATOM     21  C   UNL d   1     -42.059  15.922  16.206  0.00  0.00     0.000 C 
ENDBRANCH  19  20
ENDBRANCH  18  19
ENDBRANCH  17  18
ENDBRANCH   4  17
TORSDOF 6
ENDMDL
MODEL 3
REMARK VINA RESULT:      -4.8      8.060      9.908
REMARK  6 active torsions:
REMARK  status: ('A' for Active; 'I' for Inactive)
REMARK    1  A    between atoms: N_2  and  S_1 
REMARK    2  A    between atoms: C_3  and  S_1 
REMARK    3  A    between atoms: O_13  and  C_8 
REMARK    4  A    between atoms: C_14  and  O_13 
REMARK    5  A    between atoms: C_15  and  C_14 
REMARK    6  A    between atoms: C_16  and  C_15 
ROOT
ATOM      1  C   UNL d   1     -39.001  14.372  18.515  0.00  0.00     0.104 A 
ATOM      2  C   UNL d   1     -38.329  14.735  18.202  0.00  0.00     0.015 A 
ATOM      3  C   UNL d   1     -39.324  13.737  18.173  0.00  0.00     0.015 A 
ATOM      4  C   UNL d   1     -38.304  13.784  17.155  0.00  0.00     0.100 A 
ATOM      5  C   UNL d   1     -37.987  14.445  17.533  0.00  0.00     0.025 A 
ATOM      6  C   UNL d   1     -38.977  13.420  17.469  0.00  0.00     0.025 A 
ENDROOT
BRANCH   1   7
ATOM      7  S   UNL d   1     -39.344  14.685  19.210  0.00  0.00     0.271 S 
ATOM      8  O   UNL d   1     -40.087  14.486  18.909  0.00  0.00    -0.200 OA
ATOM      9  O   UNL d   1     -38.584  14.881  19.504  0.00  0.00    -0.200 OA
BRANCH   7  10
ATOM     10  N   UNL d   1     -39.690  15.002  19.913  0.00  0.00    -0.229 N 
ATOM     11  C   UNL d   1     -40.352  15.473  19.720  0.00  0.00     0.092 A 
ATOM     12  C   UNL d   1     -40.845  15.882  20.240  0.00  0.00     0.020 A 
ATOM     13  C   UNL d   1     -40.794  15.916  21.044  0.00  0.00     0.002 A 
ATOM     14  C   UNL d   1     -40.278  15.581  21.568  0.00  0.00     0.002 A 
ATOM     15  C   UNL d   1     -39.638  15.092  21.373  0.00  0.00     0.020 A 
ATOM     16  C   UNL d   1     -39.373  14.833  20.653  0.00  0.00     0.092 A 
ENDBRANCH   7  10
ENDBRANCH   1   7
BRANCH   4  17
ATOM     17  O   UNL d   1     -37.947  13.496  16.472  0.00  0.00    -0.305 OA
BRANCH  17  18
ATOM     18  C   UNL d   1     -38.290  13.632  15.753  0.00  0.00     0.123 C 
BRANCH  18  19
ATOM     19  C   UNL d   1     -37.951  13.311  15.059  0.00  0.00     0.027 C 
BRANCH  19  20
ATOM     20  C   UNL d   1     -37.984  13.723  14.345  0.00  0.00     0.002 C 
ATOM     21  C   UNL d   1     -37.942  13.327  13.612  0.00  0.00     0.000 C 
ENDBRANCH  19  20
ENDBRANCH  18  19
ENDBRANCH  17  18
ENDBRANCH   4  17
TORSDOF 6
ENDMDL
MODEL 4
REMARK VINA RESULT:      -4.2      9.052     10.531
REMARK  6 active torsions:
REMARK  status: ('A' for Active; 'I' for Inactive)
REMARK    1  A    between atoms: N_2  and  S_1 
REMARK    2  A    between atoms: C_3  and  S_1 
REMARK    3  A    between atoms: O_13  and  C_8 
REMARK    4  A    between atoms: C_14  and  O_13 
REMARK    5  A    between atoms: C_15  and  C_14 
REMARK    6  A    between atoms: C_16  and  C_15 
ROOT
ATOM      1  C   UNL d   1     -38.749  14.288  18.832  0.00  0.00     0.104 A 
ATOM      2  C   UNL d   1     -38.128  14.416  19.362  0.00  0.00     0.015 A 
ATOM      3  C   UNL d   1     -39.493  14.202  19.082  0.00  0.00     0.015 A 
ATOM      4  C   UNL d   1     -39.042  14.369  20.441  0.00  0.00     0.100 A 
ATOM      5  C   UNL d   1     -38.274  14.456  20.153  0.00  0.00     0.025 A 
ATOM      6  C   UNL d   1     -39.663  14.241  19.910  0.00  0.00     0.025 A 
ENDROOT
BRANCH   1   7
ATOM      7  S   UNL d   1     -38.582  14.250  18.014  0.00  0.00     0.271 S 
ATOM      8  O   UNL d   1     -37.951  14.768  18.138  0.00  0.00    -0.200 OA
ATOM      9  O   UNL d   1     -39.226  13.725  17.902  0.00  0.00    -0.200 OA
BRANCH   7  10
ATOM     10  N   UNL d   1     -38.415  14.210  17.186  0.00  0.00    -0.229 N 
ATOM     11  C   UNL d   1     -38.177  13.436  16.979  0.00  0.00     0.092 A 
ATOM     12  C   UNL d   1     -37.964  13.161  16.231  0.00  0.00     0.020 A 
ATOM     13  C   UNL d   1     -37.940  13.576  15.540  0.00  0.00     0.002 A 
ATOM     14  C   UNL d   1     -38.106  14.348  15.369  0.00  0.00     0.002 A 
ATOM     15  C   UNL d   1     -38.356  14.923  15.910  0.00  0.00     0.020 A 
ATOM     16  C   UNL d   1     -38.494  14.873  16.706  0.00  0.00     0.092 A 
ENDBRANCH   7  10
ENDBRANCH   1   7
BRANCH   4  17
ATOM     17  O   UNL d   1     -39.179  14.411  21.251  0.00  0.00    -0.305 OA
BRANCH  17  18
ATOM     18  C   UNL d   1     -38.952  13.799  21.727  0.00  0.00     0.123 C 
BRANCH  18  19
ATOM     19  C   UNL d   1     -38.984  13.880  22.559  0.00  0.00     0.027 C 
BRANCH  19  20
ATOM     20  C   UNL d   1     -38.898  13.223  23.050  0.00  0.00     0.002 C 
ATOM     21  C   UNL d   1     -38.363  13.224  23.690  0.00  0.00     0.000 C 
ENDBRANCH  19  20
ENDBRANCH  18  19
ENDBRANCH  17  18
ENDBRANCH   4  17
TORSDOF 6
ENDMDL
