MODEL 1
REMARK VINA RESULT:     -10.3      0.000      0.000
REMARK  4 active torsions:
REMARK  status: ('A' for Active; 'I' for Inactive)
REMARK    1  A    between atoms: N_2  and  S_1 
REMARK    2  A    between atoms: C_4  and  S_1 
REMARK       I    between atoms: C_3  and  N_7 
REMARK    3  A    between atoms: C_6  and  C_3 
REMARK    4  A    between atoms: N_7  and  C_12 
ROOT
ATOM      1  N   UNL d   1      52.767  34.691  53.915  0.00  0.00    -0.230 N 
ATOM      2  C   UNL d   1      53.169  34.059  54.261  0.00  0.00     0.076 A 
ATOM      3  C   UNL d   1      52.933  33.284  54.119  0.00  0.00     0.037 A 
ATOM      4  C   UNL d   1      53.348  32.656  54.476  0.00  0.00     0.086 A 
ATOM      5  C   UNL d   1      53.820  34.207  54.760  0.00  0.00     0.017 A 
ATOM      6  C   UNL d   1      54.231  33.580  55.113  0.00  0.00     0.003 A 
ATOM      7  C   UNL d   1      53.011  35.469  54.062  0.00  0.00     0.092 A 
ATOM      8  C   UNL d   1      53.988  32.808  54.966  0.00  0.00     0.019 A 
ATOM      9  C   UNL d   1      53.655  35.618  54.555  0.00  0.00     0.020 A 
ATOM     10  C   UNL d   1      54.058  34.990  54.903  0.00  0.00     0.003 A 
ENDROOT
BRANCH   4  11
ATOM     11  N   UNL d   1      53.111  31.877  54.333  0.00  0.00    -0.208 NA
ATOM     12  C   UNL d   1      53.554  31.396  53.836  0.00  0.00     0.282 C 
ATOM     13  O   UNL d   1      54.240  31.681  53.472  0.00  0.00    -0.265 OA
BRANCH  12  14
ATOM     14  C   UNL d   1      53.330  30.626  53.687  0.00  0.00     0.096 A 
ATOM     15  C   UNL d   1      52.986  30.431  52.951  0.00  0.00     0.065 A 
ATOM     16 CL   UNL d   1      52.877  31.021  52.385  0.00  0.00    -0.082 Cl
ATOM     17  C   UNL d   1      52.759  29.655  52.798  0.00  0.00     0.012 A 
ATOM     18  C   UNL d   1      52.872  29.068  53.373  0.00  0.00     0.003 A 
ATOM     19  C   UNL d   1      53.213  29.262  54.100  0.00  0.00     0.030 A 
ATOM     20  C   UNL d   1      53.439  30.039  54.250  0.00  0.00     0.146 A 
ATOM     21  F   UNL d   1      53.776  30.225  54.971  0.00  0.00    -0.204 F 
ENDBRANCH  12  14
ENDBRANCH   4  11
BRANCH   1  22
ATOM     22  S   UNL d   1      52.121  34.533  53.420  0.00  0.00     0.277 S 
ATOM     23  O   UNL d   1      52.630  34.585  52.768  0.00  0.00    -0.199 OA
ATOM     24  O   UNL d   1      51.624  34.482  54.066  0.00  0.00    -0.199 OA
BRANCH  22  25
ATOM     25  C   UNL d   1      51.490  34.377  52.919  0.00  0.00     0.133 A 
ATOM     26  S   UNL d   1      50.696  34.325  53.139  0.00  0.00    -0.074 SA
ATOM     27  C   UNL d   1      50.253  34.162  52.469  0.00  0.00     0.036 A 
ATOM     28  C   UNL d   1      50.767  34.110  51.826  0.00  0.00     0.008 A 
ATOM     29  C   UNL d   1      51.535  34.244  52.108  0.00  0.00     0.020 A 
ENDBRANCH  22  25
ENDBRANCH   1  22
TORSDOF 4
ENDMDL
MODEL 2
REMARK VINA RESULT:      -9.7      1.802      3.962
REMARK  4 active torsions:
REMARK  status: ('A' for Active; 'I' for Inactive)
REMARK    1  A    between atoms: N_2  and  S_1 
REMARK    2  A    between atoms: C_4  and  S_1 
REMARK       I    between atoms: C_3  and  N_7 
REMARK    3  A    between atoms: C_6  and  C_3 
REMARK    4  A    between atoms: N_7  and  C_12 
ROOT
ATOM      1  N   UNL d   1      54.013  32.726  54.327  0.00  0.00    -0.230 N 
ATOM      2  C   UNL d   1      53.531  33.396  54.327  0.00  0.00     0.076 A 
ATOM      3  C   UNL d   1      52.790  33.379  53.969  0.00  0.00     0.037 A 
ATOM      4  C   UNL d   1      52.315  34.062  53.977  0.00  0.00     0.086 A 
ATOM      5  C   UNL d   1      53.797  34.096  54.692  0.00  0.00     0.017 A 
ATOM      6  C   UNL d   1      53.321  34.774  54.698  0.00  0.00     0.003 A 
ATOM      7  C   UNL d   1      54.757  32.751  54.689  0.00  0.00     0.092 A 
ATOM      8  C   UNL d   1      52.581  34.749  54.338  0.00  0.00     0.019 A 
ATOM      9  C   UNL d   1      55.023  33.442  55.052  0.00  0.00     0.020 A 
ATOM     10  C   UNL d   1      54.545  34.113  55.054  0.00  0.00     0.003 A 
ENDROOT
BRANCH   4  11
ATOM     11  N   UNL d   1      51.570  34.045  53.617  0.00  0.00    -0.208 NA
ATOM     12  C   UNL d   1      51.421  34.511  52.956  0.00  0.00     0.282 C 
ATOM     13  O   UNL d   1      52.010  35.001  52.642  0.00  0.00    -0.265 OA
BRANCH  12  14
ATOM     14  C   UNL d   1      50.691  34.503  52.593  0.00  0.00     0.096 A 
ATOM     15  C   UNL d   1      50.619  34.192  51.821  0.00  0.00     0.065 A 
ATOM     16 CL   UNL d   1      51.286  33.899  51.436  0.00  0.00    -0.082 Cl
ATOM     17  C   UNL d   1      49.884  34.183  51.451  0.00  0.00     0.012 A 
ATOM     18  C   UNL d   1      49.217  34.480  51.844  0.00  0.00     0.003 A 
ATOM     19  C   UNL d   1      49.290  34.787  52.608  0.00  0.00     0.030 A 
ATOM     20  C   UNL d   1      50.027  34.795  52.975  0.00  0.00     0.146 A 
ATOM     21  F   UNL d   1      50.093  35.099  53.731  0.00  0.00    -0.204 F 
ENDBRANCH  12  14
ENDBRANCH   4  11
BRANCH   1  22
ATOM     22  S   UNL d   1      53.739  32.034  53.961  0.00  0.00     0.277 S 
ATOM     23  O   UNL d   1      53.446  31.784  54.695  0.00  0.00    -0.199 OA
ATOM     24  O   UNL d   1      54.030  32.286  53.241  0.00  0.00    -0.199 OA
BRANCH  22  25
ATOM     25  C   UNL d   1      53.463  31.345  53.611  0.00  0.00     0.133 A 
ATOM     26  S   UNL d   1      53.374  30.614  53.982  0.00  0.00    -0.074 SA
ATOM     27  C   UNL d   1      53.083  30.080  53.434  0.00  0.00     0.036 A 
ATOM     28  C   UNL d   1      52.988  30.473  52.715  0.00  0.00     0.008 A 
ATOM     29  C   UNL d   1      53.225  31.260  52.828  0.00  0.00     0.020 A 
ENDBRANCH  22  25
ENDBRANCH   1  22
TORSDOF 4
ENDMDL
MODEL 3
REMARK VINA RESULT:      -7.6      1.339      2.628
REMARK  4 active torsions:
REMARK  status: ('A' for Active; 'I' for Inactive)
REMARK    1  A    between atoms: N_2  and  S_1 
REMARK    2  A    between atoms: C_4  and  S_1 
REMARK       I    between atoms: C_3  and  N_7 
REMARK    3  A    between atoms: C_6  and  C_3 
REMARK    4  A    between atoms: N_7  and  C_12 
ROOT
ATOM      1  N   UNL d   1      52.930  34.255  53.650  0.00  0.00    -0.230 N 
ATOM      2  C   UNL d   1      52.469  33.618  53.400  0.00  0.00     0.076 A 
ATOM      3  C   UNL d   1      52.630  32.855  53.662  0.00  0.00     0.037 A 
ATOM      4  C   UNL d   1      52.157  32.221  53.402  0.00  0.00     0.086 A 
ATOM      5  C   UNL d   1      51.833  33.747  52.877  0.00  0.00     0.017 A 
ATOM      6  C   UNL d   1      51.364  33.115  52.619  0.00  0.00     0.003 A 
ATOM      7  C   UNL d   1      52.761  35.019  53.381  0.00  0.00     0.092 A 
ATOM      8  C   UNL d   1      51.533  32.355  52.887  0.00  0.00     0.019 A 
ATOM      9  C   UNL d   1      52.133  35.151  52.863  0.00  0.00     0.020 A 
ATOM     10  C   UNL d   1      51.670  34.518  52.611  0.00  0.00     0.003 A 
ENDROOT
BRANCH   4  11
ATOM     11  N   UNL d   1      52.319  31.455  53.666  0.00  0.00    -0.208 NA
ATOM     12  C   UNL d   1      52.701  30.921  53.171  0.00  0.00     0.282 C 
ATOM     13  O   UNL d   1      52.927  31.140  52.406  0.00  0.00    -0.265 OA
BRANCH  12  14
ATOM     14  C   UNL d   1      52.867  30.162  53.420  0.00  0.00     0.096 A 
ATOM     15  C   UNL d   1      53.650  29.958  53.625  0.00  0.00     0.065 A 
ATOM     16 CL   UNL d   1      54.246  30.526  53.573  0.00  0.00    -0.082 Cl
ATOM     17  C   UNL d   1      53.822  29.193  53.876  0.00  0.00     0.012 A 
ATOM     18  C   UNL d   1      53.217  28.627  53.926  0.00  0.00     0.003 A 
ATOM     19  C   UNL d   1      52.443  28.831  53.723  0.00  0.00     0.030 A 
ATOM     20  C   UNL d   1      52.275  29.596  53.472  0.00  0.00     0.146 A 
ATOM     21  F   UNL d   1      51.507  29.793  53.272  0.00  0.00    -0.204 F 
ENDBRANCH  12  14
ENDBRANCH   4  11
BRANCH   1  22
ATOM     22  S   UNL d   1      53.559  34.114  54.170  0.00  0.00     0.277 S 
ATOM     23  O   UNL d   1      54.054  34.005  53.514  0.00  0.00    -0.199 OA
ATOM     24  O   UNL d   1      53.068  34.223  54.813  0.00  0.00    -0.199 OA
BRANCH  22  25
ATOM     25  C   UNL d   1      54.192  33.974  54.674  0.00  0.00     0.133 A 
ATOM     26  S   UNL d   1      54.154  33.911  55.496  0.00  0.00    -0.074 SA
ATOM     27  C   UNL d   1      54.909  33.769  55.779  0.00  0.00     0.036 A 
ATOM     28  C   UNL d   1      55.426  33.743  55.136  0.00  0.00     0.008 A 
ATOM     29  C   UNL d   1      54.977  33.870  54.450  0.00  0.00     0.020 A 
ENDBRANCH  22  25
ENDBRANCH   1  22
TORSDOF 4
ENDMDL
