MODEL 1
REMARK VINA RESULT:      44.5      0.000      0.000
REMARK  2 active torsions:
REMARK  status: ('A' for Active; 'I' for Inactive)
REMARK    1  A    between atoms: C_6  and  C_3 
REMARK    2  A    between atoms: C_13  and  C_7 
ROOT
ATOM      1  C   UNL d   1     -55.008-101.686 -42.710  0.00  0.00     0.018 A 
ATOM      2  C   UNL d   1     -54.926-101.902 -41.082  0.00  0.00     0.000 A 
ATOM      3  C   UNL d   1     -55.222-102.409 -42.382  0.00  0.00     0.002 A 
ATOM      4  C   UNL d   1     -54.751-101.066 -42.227  0.00  0.00     0.002 A 
ATOM      5  C   UNL d   1     -55.183-102.522 -41.565  0.00  0.00     0.000 A 
ATOM      6  C   UNL d   1     -54.711-101.178 -41.414  0.00  0.00     0.000 A 
ENDROOT
BRANCH   1   7
ATOM      7  C   UNL d   1     -55.047-101.574 -43.528  0.00  0.00     0.090 A 
ATOM      8  N   UNL d   1     -55.231-100.869 -43.914  0.00  0.00    -0.219 NA
ATOM      9  C   UNL d   1     -55.208-101.007 -44.725  0.00  0.00     0.215 A 
ATOM     10  S   UNL d   1     -55.010-101.797 -44.852  0.00  0.00    -0.045 SA
ATOM     11  N   UNL d   1     -55.356-100.450 -45.318  0.00  0.00    -0.120 N 
ATOM     12  C   UNL d   1     -54.909-102.152 -44.111  0.00  0.00     0.058 A 
ENDBRANCH   1   7
BRANCH   2  13
ATOM     13  C   UNL d   1     -54.885-102.011 -40.264  0.00  0.00     0.000 A 
ATOM     14  C   UNL d   1     -54.928-102.775 -39.955  0.00  0.00     0.000 A 
ATOM     15  C   UNL d   1     -54.888-102.880 -39.149  0.00  0.00     0.000 A 
ATOM     16  C   UNL d   1     -54.805-102.234 -38.640  0.00  0.00     0.000 A 
ATOM     17  C   UNL d   1     -54.763-101.478 -38.955  0.00  0.00     0.000 A 
ATOM     18  C   UNL d   1     -54.803-101.365 -39.768  0.00  0.00     0.000 A 
ENDBRANCH   2  13
TORSDOF 2
ENDMDL
