MODEL 1
REMARK VINA RESULT:      68.4      0.000      0.000
REMARK  4 active torsions:
REMARK  status: ('A' for Active; 'I' for Inactive)
REMARK    1  A    between atoms: C_6  and  C_1 
REMARK       I    between atoms: N_7  and  C_1 
REMARK    2  A    between atoms: N_3  and  C_5 
REMARK    3  A    between atoms: C_19  and  N_7 
REMARK    4  A    between atoms: C_8  and  C_10 
ROOT
ATOM      1  C   UNL d   1      14.825  14.931  -2.108  0.00  0.00     0.019 A 
ATOM      2  C   UNL d   1      14.928  13.733  -0.978  0.00  0.00     0.085 A 
ATOM      3  C   UNL d   1      15.042  14.173  -2.328  0.00  0.00     0.003 A 
ATOM      4  C   UNL d   1      14.657  15.094  -1.316  0.00  0.00     0.003 A 
ATOM      5  C   UNL d   1      15.094  13.574  -1.762  0.00  0.00     0.019 A 
ATOM      6  C   UNL d   1      14.709  14.495  -0.751  0.00  0.00     0.019 A 
ENDROOT
BRANCH   1   7
ATOM      7  C   UNL d   1      14.774  15.529  -2.673  0.00  0.00     0.103 A 
ATOM      8  N   UNL d   1      15.163  16.243  -2.554  0.00  0.00    -0.147 NA
ATOM      9  N   UNL d   1      15.112  16.842  -3.119  0.00  0.00    -0.130 NA
ATOM     10  C   UNL d   1      14.671  16.727  -3.803  0.00  0.00     0.169 A 
ATOM     11  C   UNL d   1      14.279  16.010  -3.924  0.00  0.00     0.041 A 
ATOM     12  C   UNL d   1      14.331  15.412  -3.359  0.00  0.00     0.024 A 
BRANCH  10  13
ATOM     13  N   UNL d   1      14.619  17.326  -4.368  0.00  0.00    -0.288 N 
ATOM     14  C   UNL d   1      14.865  18.088  -4.185  0.00  0.00     0.082 A 
ATOM     15  C   UNL d   1      14.814  18.687  -4.750  0.00  0.00     0.019 A 
ATOM     16  C   UNL d   1      14.516  18.524  -5.499  0.00  0.00     0.003 A 
ATOM     17  C   UNL d   1      14.269  17.758  -5.684  0.00  0.00     0.019 A 
ATOM     18  C   UNL d   1      14.468  19.129  -6.058  0.00  0.00     0.000 C 
ATOM     19  C   UNL d   1      14.320  17.159  -5.119  0.00  0.00     0.082 A 
ENDBRANCH  10  13
ENDBRANCH   1   7
BRANCH   2  20
ATOM     20  N   UNL d   1      14.979  13.134  -0.413  0.00  0.00    -0.206 NA
ATOM     21  C   UNL d   1      14.696  12.381  -0.582  0.00  0.00     0.302 C 
ATOM     22  O   UNL d   1      14.747  11.779  -0.014  0.00  0.00    -0.263 OA
BRANCH  21  23
ATOM     23  C   UNL d   1      14.359  12.225  -1.320  0.00  0.00     0.158 A 
ATOM     24  O   UNL d   1      13.567  11.995  -1.371  0.00  0.00    -0.300 OA
ATOM     25  C   UNL d   1      13.385  11.878  -2.173  0.00  0.00     0.123 A 
ATOM     26  C   UNL d   1      14.066  12.037  -2.610  0.00  0.00     0.029 A 
ATOM     27  C   UNL d   1      14.660  12.249  -2.084  0.00  0.00     0.032 A 
ENDBRANCH  21  23
ENDBRANCH   2  20
TORSDOF 4
ENDMDL
