MODEL 1
REMARK VINA RESULT:      42.1      0.000      0.000
REMARK  3 active torsions:
REMARK  status: ('A' for Active; 'I' for Inactive)
REMARK    1  A    between atoms: N_10  and  C_3 
REMARK    2  A    between atoms: C_11  and  C_5 
REMARK    3  A    between atoms: C_15  and  N_10 
ROOT
ATOM      1  N   UNL d   1      59.242  49.612  51.354  0.00  0.00    -0.184 N 
ATOM      2  C   UNL d   1      58.695  49.594  50.713  0.00  0.00     0.168 A 
ATOM      3  C   UNL d   1      60.057  49.648  51.198  0.00  0.00     0.217 A 
ATOM      4  N   UNL d   1      58.159  49.558  52.280  0.00  0.00    -0.162 NA
ATOM      5  C   UNL d   1      57.899  49.559  50.865  0.00  0.00     0.055 A 
ATOM      6  N   UNL d   1      58.982  49.613  49.938  0.00  0.00    -0.227 NA
ATOM      7  C   UNL d   1      60.325  49.665  50.428  0.00  0.00     0.066 A 
ATOM      8  C   UNL d   1      57.620  49.541  51.649  0.00  0.00     0.104 A 
ATOM      9  C   UNL d   1      59.784  49.648  49.781  0.00  0.00     0.087 A 
ATOM     10  C   UNL d   1      61.073  49.699  50.107  0.00  0.00     0.006 A 
ATOM     11  C   UNL d   1      56.812  49.505  51.794  0.00  0.00     0.023 C 
ATOM     12  C   UNL d   1      60.213  49.672  49.079  0.00  0.00     0.019 A 
ATOM     13  C   UNL d   1      61.021  49.704  49.287  0.00  0.00     0.002 A 
ENDROOT
BRANCH   5  14
ATOM     14  C   UNL d   1      57.363  49.542  50.237  0.00  0.00     0.004 A 
ATOM     15  C   UNL d   1      56.571  49.357  50.373  0.00  0.00     0.000 A 
ATOM     16  C   UNL d   1      56.035  49.338  49.751  0.00  0.00     0.000 A 
ATOM     17  C   UNL d   1      56.292  49.507  48.982  0.00  0.00     0.000 A 
ATOM     18  C   UNL d   1      57.073  49.690  48.839  0.00  0.00     0.000 A 
ATOM     19  C   UNL d   1      57.614  49.708  49.473  0.00  0.00     0.000 A 
ENDBRANCH   5  14
BRANCH   3  20
ATOM     20  N   UNL d   1      60.612  49.666  51.842  0.00  0.00    -0.383 NA
BRANCH  20  21
ATOM     21  C   UNL d   1      61.166  49.684  52.477  0.00  0.00     0.134 C 
ATOM     22  C   UNL d   1      60.885  49.680  53.272  0.00  0.00     0.035 C 
ATOM     23  C   UNL d   1      62.002  49.708  52.310  0.00  0.00     0.035 C 
ENDBRANCH  20  21
ENDBRANCH   3  20
TORSDOF 3
ENDMDL
