MODEL 1
REMARK VINA RESULT:      -4.7      0.000      0.000
REMARK  4 active torsions:
REMARK  status: ('A' for Active; 'I' for Inactive)
REMARK       I    between atoms: N_2  and  C_1 
REMARK       I    between atoms: N_3  and  C_1 
REMARK    1  A    between atoms: C_7  and  N_3 
REMARK    2  A    between atoms: C_8  and  C_12 
REMARK    3  A    between atoms: C_17  and  C_8 
REMARK    4  A    between atoms: O_18  and  C_9 
ROOT
ATOM      1  C   UNL d   1      56.954  -0.075  31.959  0.00  0.00     0.354 C 
ATOM      2  N   UNL d   1      57.385  -0.081  31.256  0.00  0.00    -0.256 N 
ATOM      3  N   UNL d   1      56.768   0.642  32.318  0.00  0.00    -0.192 NA
ATOM      4  O   UNL d   1      56.710  -0.786  32.303  0.00  0.00    -0.244 OA
ATOM      5  C   UNL d   1      57.571  -0.805  30.897  0.00  0.00     0.085 A 
ATOM      6  C   UNL d   1      57.631   0.626  30.910  0.00  0.00     0.085 A 
ATOM      7  C   UNL d   1      58.007  -0.811  30.186  0.00  0.00     0.019 A 
ATOM      8  C   UNL d   1      58.058   0.616  30.213  0.00  0.00     0.019 A 
ATOM      9  C   UNL d   1      58.245  -0.105  29.852  0.00  0.00     0.003 A 
ENDROOT
BRANCH   3  10
ATOM     10  C   UNL d   1      56.334   0.652  33.027  0.00  0.00     0.086 A 
ATOM     11  C   UNL d   1      56.728   0.661  33.746  0.00  0.00     0.021 A 
ATOM     12  C   UNL d   1      56.302   0.670  34.452  0.00  0.00     0.026 A 
ATOM     13  C   UNL d   1      55.477   0.671  34.425  0.00  0.00     0.094 A 
ATOM     14  C   UNL d   1      55.079   0.663  33.694  0.00  0.00     0.026 A 
ATOM     15  C   UNL d   1      55.517   0.653  32.997  0.00  0.00     0.021 A 
BRANCH  13  16
ATOM     16  O   UNL d   1      55.038   0.681  35.130  0.00  0.00    -0.328 OA
ATOM     17  C   UNL d   1      55.425   0.678  35.859  0.00  0.00     0.181 C 
ENDBRANCH  13  16
ENDBRANCH   3  10
BRANCH   9  18
ATOM     18  C   UNL d   1      58.678  -0.113  29.146  0.00  0.00     0.000 C 
BRANCH  18  19
ATOM     19  C   UNL d   1      59.443  -0.410  29.126  0.00  0.00     0.000 A 
ATOM     20  C   UNL d   1      60.064   0.027  29.445  0.00  0.00     0.000 A 
ATOM     21  C   UNL d   1      60.835  -0.274  29.424  0.00  0.00     0.000 A 
ATOM     22  C   UNL d   1      60.980  -1.016  29.084  0.00  0.00     0.000 A 
ATOM     23  C   UNL d   1      60.354  -1.454  28.765  0.00  0.00     0.000 A 
ATOM     24  C   UNL d   1      59.588  -1.152  28.786  0.00  0.00     0.000 A 
ENDBRANCH  18  19
ENDBRANCH   9  18
TORSDOF 4
ENDMDL
MODEL 2
REMARK VINA RESULT:      -3.0      1.450      5.625
REMARK  4 active torsions:
REMARK  status: ('A' for Active; 'I' for Inactive)
REMARK       I    between atoms: N_2  and  C_1 
REMARK       I    between atoms: N_3  and  C_1 
REMARK    1  A    between atoms: C_7  and  N_3 
REMARK    2  A    between atoms: C_8  and  C_12 
REMARK    3  A    between atoms: C_17  and  C_8 
REMARK    4  A    between atoms: O_18  and  C_9 
ROOT
ATOM      1  C   UNL d   1      57.602  -0.958  30.947  0.00  0.00     0.354 C 
ATOM      2  N   UNL d   1      57.082  -0.550  31.441  0.00  0.00    -0.256 N 
ATOM      3  N   UNL d   1      58.096  -0.538  30.439  0.00  0.00    -0.192 NA
ATOM      4  O   UNL d   1      57.628  -1.784  30.962  0.00  0.00    -0.244 OA
ATOM      5  C   UNL d   1      56.586  -0.975  31.951  0.00  0.00     0.085 A 
ATOM      6  C   UNL d   1      57.053   0.274  31.429  0.00  0.00     0.085 A 
ATOM      7  C   UNL d   1      56.060  -0.564  32.451  0.00  0.00     0.019 A 
ATOM      8  C   UNL d   1      56.536   0.674  31.920  0.00  0.00     0.019 A 
ATOM      9  C   UNL d   1      56.040   0.253  32.430  0.00  0.00     0.003 A 
ENDROOT
BRANCH   3  10
ATOM     10  C   UNL d   1      58.622  -0.946  29.940  0.00  0.00     0.086 A 
ATOM     11  C   UNL d   1      59.410  -0.721  29.909  0.00  0.00     0.021 A 
ATOM     12  C   UNL d   1      59.935  -1.122  29.415  0.00  0.00     0.026 A 
ATOM     13  C   UNL d   1      59.659  -1.749  28.956  0.00  0.00     0.094 A 
ATOM     14  C   UNL d   1      58.858  -1.975  28.990  0.00  0.00     0.026 A 
ATOM     15  C   UNL d   1      58.344  -1.566  29.487  0.00  0.00     0.021 A 
BRANCH  13  16
ATOM     16  O   UNL d   1      60.179  -2.160  28.456  0.00  0.00    -0.328 OA
ATOM     17  C   UNL d   1      60.469  -2.900  28.678  0.00  0.00     0.181 C 
ENDBRANCH  13  16
ENDBRANCH   3  10
BRANCH   9  18
ATOM     18  C   UNL d   1      55.517   0.661  32.927  0.00  0.00     0.000 C 
BRANCH  18  19
ATOM     19  C   UNL d   1      55.620   0.653  33.741  0.00  0.00     0.000 A 
ATOM     20  C   UNL d   1      54.966   0.619  34.241  0.00  0.00     0.000 A 
ATOM     21  C   UNL d   1      55.072   0.611  35.061  0.00  0.00     0.000 A 
ATOM     22  C   UNL d   1      55.837   0.639  35.379  0.00  0.00     0.000 A 
ATOM     23  C   UNL d   1      56.493   0.674  34.876  0.00  0.00     0.000 A 
ATOM     24  C   UNL d   1      56.385   0.681  34.059  0.00  0.00     0.000 A 
ENDBRANCH  18  19
ENDBRANCH   9  18
TORSDOF 4
ENDMDL
MODEL 3
REMARK VINA RESULT:      -1.8      1.896      5.709
REMARK  4 active torsions:
REMARK  status: ('A' for Active; 'I' for Inactive)
REMARK       I    between atoms: N_2  and  C_1 
REMARK       I    between atoms: N_3  and  C_1 
REMARK    1  A    between atoms: C_7  and  N_3 
REMARK    2  A    between atoms: C_8  and  C_12 
REMARK    3  A    between atoms: C_17  and  C_8 
REMARK    4  A    between atoms: O_18  and  C_9 
ROOT
ATOM      1  C   UNL d   1      58.510  -0.933  30.338  0.00  0.00     0.354 C 
ATOM      2  N   UNL d   1      57.938  -0.538  30.782  0.00  0.00    -0.256 N 
ATOM      3  N   UNL d   1      58.450  -1.747  30.229  0.00  0.00    -0.192 NA
ATOM      4  O   UNL d   1      59.139  -0.515  30.003  0.00  0.00    -0.244 OA
ATOM      5  C   UNL d   1      58.000   0.282  30.890  0.00  0.00     0.085 A 
ATOM      6  C   UNL d   1      57.308  -0.952  31.117  0.00  0.00     0.085 A 
ATOM      7  C   UNL d   1      57.422   0.682  31.340  0.00  0.00     0.019 A 
ATOM      8  C   UNL d   1      56.744  -0.556  31.557  0.00  0.00     0.019 A 
ATOM      9  C   UNL d   1      56.803   0.262  31.667  0.00  0.00     0.003 A 
ENDROOT
BRANCH   3  10
ATOM     10  C   UNL d   1      59.025  -2.149  29.781  0.00  0.00     0.086 A 
ATOM     11  C   UNL d   1      58.791  -2.690  29.210  0.00  0.00     0.021 A 
ATOM     12  C   UNL d   1      59.357  -3.091  28.764  0.00  0.00     0.026 A 
ATOM     13  C   UNL d   1      60.157  -2.942  28.899  0.00  0.00     0.094 A 
ATOM     14  C   UNL d   1      60.391  -2.394  29.480  0.00  0.00     0.026 A 
ATOM     15  C   UNL d   1      59.816  -2.000  29.918  0.00  0.00     0.021 A 
BRANCH  13  16
ATOM     16  O   UNL d   1      60.735  -3.341  28.455  0.00  0.00    -0.328 OA
ATOM     17  C   UNL d   1      60.876  -4.143  28.586  0.00  0.00     0.181 C 
ENDBRANCH  13  16
ENDBRANCH   3  10
BRANCH   9  18
ATOM     18  C   UNL d   1      56.230   0.661  32.113  0.00  0.00     0.000 C 
BRANCH  18  19
ATOM     19  C   UNL d   1      56.215   0.594  32.931  0.00  0.00     0.000 A 
ATOM     20  C   UNL d   1      55.504   0.445  33.320  0.00  0.00     0.000 A 
ATOM     21  C   UNL d   1      55.491   0.378  34.145  0.00  0.00     0.000 A 
ATOM     22  C   UNL d   1      56.193   0.462  34.578  0.00  0.00     0.000 A 
ATOM     23  C   UNL d   1      56.905   0.613  34.185  0.00  0.00     0.000 A 
ATOM     24  C   UNL d   1      56.917   0.678  33.364  0.00  0.00     0.000 A 
ENDBRANCH  18  19
ENDBRANCH   9  18
TORSDOF 4
ENDMDL
