MODEL 1
REMARK VINA RESULT:     120.5      0.000      0.000
REMARK  7 active torsions:
REMARK  status: ('A' for Active; 'I' for Inactive)
REMARK    1  A    between atoms: C_7  and  C_1 
REMARK    2  A    between atoms: C_9  and  N_2 
REMARK    3  A    between atoms: C_6  and  C_3 
REMARK    4  A    between atoms: C_8  and  C_7 
REMARK    5  A    between atoms: C_20  and  C_9 
REMARK    6  A    between atoms: O_24  and  C_10 
REMARK    7  A    between atoms: O_26  and  C_22 
ROOT
ATOM      1  C   UNL d   1     -56.057-100.243 -43.728  0.00  0.00     0.101 A 
ATOM      2  N   UNL d   1     -57.091 -99.431 -43.521  0.00  0.00    -0.270 N 
ATOM      3  C   UNL d   1     -56.528 -99.659 -44.065  0.00  0.00     0.075 A 
ATOM      4  C   UNL d   1     -56.336-100.380 -42.957  0.00  0.00     0.256 A 
ATOM      5  C   UNL d   1     -56.976 -99.878 -42.829  0.00  0.00     0.304 A 
ATOM      6  O   UNL d   1     -57.422 -99.828 -42.135  0.00  0.00    -0.263 OA
ATOM      7  O   UNL d   1     -56.030-100.921 -42.414  0.00  0.00    -0.281 OA
ENDROOT
BRANCH   3   8
ATOM      8  C   UNL d   1     -56.432 -99.362 -44.835  0.00  0.00     0.041 A 
ATOM      9  C   UNL d   1     -57.087 -99.057 -45.229  0.00  0.00     0.096 A 
ATOM     10  C   UNL d   1     -57.003 -98.757 -45.999  0.00  0.00     0.026 A 
ATOM     11  C   UNL d   1     -56.256 -98.768 -46.363  0.00  0.00     0.026 A 
ATOM     12  C   UNL d   1     -55.600 -99.076 -45.961  0.00  0.00     0.094 A 
ATOM     13  C   UNL d   1     -55.691 -99.371 -45.198  0.00  0.00     0.028 A 
BRANCH   9  14
ATOM     14  O   UNL d   1     -57.824 -99.046 -44.871  0.00  0.00    -0.328 OA
ATOM     15  C   UNL d   1     -58.507 -99.205 -45.305  0.00  0.00     0.181 C 
ENDBRANCH   9  14
BRANCH  12  16
ATOM     16  O   UNL d   1     -54.856 -99.086 -46.325  0.00  0.00    -0.328 OA
ATOM     17  C   UNL d   1     -54.722 -99.595 -46.968  0.00  0.00     0.181 C 
ENDBRANCH  12  16
ENDBRANCH   3   8
BRANCH   2  18
ATOM     18  C   UNL d   1     -57.681 -98.854 -43.632  0.00  0.00     0.085 C 
BRANCH  18  19
ATOM     19  C   UNL d   1     -58.395 -98.911 -43.217  0.00  0.00     0.037 A 
ATOM     20  C   UNL d   1     -58.403 -98.764 -42.397  0.00  0.00     0.100 A 
ATOM     21  N   UNL d   1     -59.111 -98.820 -41.985  0.00  0.00    -0.242 NA
ATOM     22  C   UNL d   1     -59.809 -99.021 -42.375  0.00  0.00     0.099 A 
ATOM     23  C   UNL d   1     -59.796 -99.166 -43.186  0.00  0.00     0.021 A 
ATOM     24  C   UNL d   1     -59.086 -99.111 -43.607  0.00  0.00     0.005 A 
ENDBRANCH  18  19
ENDBRANCH   2  18
BRANCH   1  25
ATOM     25  C   UNL d   1     -55.417-100.632 -44.086  0.00  0.00     0.223 C 
ATOM     26  O   UNL d   1     -54.744-100.208 -44.289  0.00  0.00    -0.284 OA
BRANCH  25  27
ATOM     27  C   UNL d   1     -55.461-101.433 -44.233  0.00  0.00     0.139 A 
ATOM     28  O   UNL d   1     -56.079-101.964 -44.356  0.00  0.00    -0.302 OA
ATOM     29  C   UNL d   1     -55.757-102.712 -44.478  0.00  0.00     0.123 A 
ATOM     30  C   UNL d   1     -54.945-102.645 -44.430  0.00  0.00     0.029 A 
ATOM     31  C   UNL d   1     -54.761-101.857 -44.280  0.00  0.00     0.030 A 
ENDBRANCH  25  27
ENDBRANCH   1  25
TORSDOF 7
ENDMDL
