MODEL 1
REMARK VINA RESULT:      74.4      0.000      0.000
REMARK  4 active torsions:
REMARK  status: ('A' for Active; 'I' for Inactive)
REMARK    1  A    between atoms: N_10  and  C_3 
REMARK    2  A    between atoms: C_11  and  C_4 
REMARK    3  A    between atoms: C_15  and  N_10 
REMARK       I    between atoms: C_12  and  N_13 
REMARK    4  A    between atoms: N_13  and  C_16 
ROOT
ATOM      1  C   UNL d   1     -54.807-101.171 -39.051  0.00  0.00     0.167 A 
ATOM      2  N   UNL d   1     -54.783-100.550 -39.584  0.00  0.00    -0.195 N 
ATOM      3  C   UNL d   1     -54.738-100.699 -40.395  0.00  0.00     0.167 A 
ATOM      4  C   UNL d   1     -54.851-100.857 -38.294  0.00  0.00     0.057 A 
ATOM      5  N   UNL d   1     -54.812 -99.848 -39.161  0.00  0.00    -0.161 NA
ATOM      6  N   UNL d   1     -54.786-101.952 -39.319  0.00  0.00    -0.227 NA
ATOM      7  C   UNL d   1     -54.717-101.482 -40.666  0.00  0.00     0.058 A 
ATOM      8  C   UNL d   1     -54.854-100.036 -38.369  0.00  0.00     0.124 A 
ATOM      9  C   UNL d   1     -54.741-102.103 -40.132  0.00  0.00     0.086 A 
ATOM     10  C   UNL d   1     -54.719-102.878 -40.422  0.00  0.00     0.021 C 
ENDROOT
BRANCH   3  11
ATOM     11  N   UNL d   1     -54.714-100.077 -40.929  0.00  0.00    -0.227 NA
BRANCH  11  12
ATOM     12  C   UNL d   1     -54.876-100.208 -41.728  0.00  0.00     0.083 A 
ATOM     13  C   UNL d   1     -54.958-100.981 -42.004  0.00  0.00     0.021 A 
ATOM     14  C   UNL d   1     -55.121-101.117 -42.808  0.00  0.00     0.021 A 
ATOM     15  C   UNL d   1     -55.200-100.484 -43.323  0.00  0.00     0.085 A 
ATOM     16  C   UNL d   1     -55.117 -99.705 -43.041  0.00  0.00     0.021 A 
ATOM     17  C   UNL d   1     -54.956 -99.572 -42.245  0.00  0.00     0.021 A 
BRANCH  15  18
ATOM     18  N   UNL d   1     -55.365-100.623 -44.132  0.00  0.00    -0.208 NA
ATOM     19  C   UNL d   1     -55.124-101.323 -44.496  0.00  0.00     0.279 C 
ATOM     20  O   UNL d   1     -55.289-101.459 -45.303  0.00  0.00    -0.265 OA
ATOM     21  C   UNL d   1     -54.718-101.888 -44.061  0.00  0.00     0.068 C 
ENDBRANCH  15  18
ENDBRANCH  11  12
ENDBRANCH   3  11
BRANCH   4  22
ATOM     22  C   UNL d   1     -54.883-101.349 -37.630  0.00  0.00     0.004 A 
ATOM     23  C   UNL d   1     -54.711-101.031 -36.888  0.00  0.00     0.000 A 
ATOM     24  C   UNL d   1     -54.741-101.514 -36.221  0.00  0.00     0.000 A 
ATOM     25  C   UNL d   1     -54.944-102.319 -36.295  0.00  0.00     0.000 A 
ATOM     26  C   UNL d   1     -55.114-102.626 -37.038  0.00  0.00     0.000 A 
ATOM     27  C   UNL d   1     -55.083-102.139 -37.704  0.00  0.00     0.000 A 
ENDBRANCH   4  22
TORSDOF 4
ENDMDL
