MODEL 1
REMARK VINA RESULT:      60.9      0.000      0.000
REMARK  7 active torsions:
REMARK  status: ('A' for Active; 'I' for Inactive)
REMARK    1  A    between atoms: N_3  and  S_1 
REMARK    2  A    between atoms: C_8  and  S_1 
REMARK    3  A    between atoms: S_2  and  C_7 
REMARK    4  A    between atoms: N_9  and  S_2 
REMARK    5  A    between atoms: C_4  and  N_3 
REMARK       I    between atoms: C_5  and  N_10 
REMARK    6  A    between atoms: C_16  and  C_5 
REMARK    7  A    between atoms: N_10  and  C_24 
ROOT
ATOM      1  C   UNL d   1      13.770  13.495  -3.582  0.00  0.00     0.106 A 
ATOM      2  C   UNL d   1      13.768  13.537  -4.396  0.00  0.00     0.015 A 
ATOM      3  C   UNL d   1      13.797  14.179  -3.121  0.00  0.00     0.015 A 
ATOM      4  C   UNL d   1      13.821  14.961  -4.312  0.00  0.00     0.085 A 
ATOM      5  C   UNL d   1      13.823  14.915  -3.490  0.00  0.00     0.020 A 
ATOM      6  C   UNL d   1      13.793  14.272  -4.765  0.00  0.00     0.020 A 
ENDROOT
BRANCH   4   7
ATOM      7  N   UNL d   1      13.847  15.708  -4.684  0.00  0.00    -0.208 NA
ATOM      8  C   UNL d   1      14.265  16.330  -4.338  0.00  0.00     0.279 C 
ATOM      9  O   UNL d   1      14.657  16.205  -3.622  0.00  0.00    -0.265 OA
BRANCH   8  10
ATOM     10  C   UNL d   1      14.289  17.065  -4.707  0.00  0.00     0.058 A 
ATOM     11  C   UNL d   1      14.971  17.527  -4.673  0.00  0.00     0.005 A 
ATOM     12  C   UNL d   1      14.998  18.260  -5.039  0.00  0.00     0.013 A 
ATOM     13  C   UNL d   1      14.335  18.549  -5.451  0.00  0.00     0.104 A 
ATOM     14  C   UNL d   1      13.643  18.077  -5.484  0.00  0.00     0.013 A 
ATOM     15  C   UNL d   1      13.616  17.347  -5.119  0.00  0.00     0.005 A 
BRANCH  13  16
ATOM     16  S   UNL d   1      14.364  19.292  -5.822  0.00  0.00     0.271 S 
ATOM     17  O   UNL d   1      13.741  19.558  -5.343  0.00  0.00    -0.200 OA
ATOM     18  O   UNL d   1      14.986  19.021  -6.299  0.00  0.00    -0.200 OA
BRANCH  16  19
ATOM     19  N   UNL d   1      14.392  20.030  -6.190  0.00  0.00    -0.226 N 
ATOM     20  C   UNL d   1      15.127  20.382  -6.363  0.00  0.00     0.111 C 
ATOM     21  C   UNL d   1      13.698  20.421  -6.388  0.00  0.00     0.111 C 
ENDBRANCH  16  19
ENDBRANCH  13  16
ENDBRANCH   8  10
ENDBRANCH   4   7
BRANCH   1  22
ATOM     22  S   UNL d   1      13.744  12.760  -3.212  0.00  0.00     0.300 S 
ATOM     23  O   UNL d   1      13.202  12.487  -3.774  0.00  0.00    -0.198 OA
ATOM     24  O   UNL d   1      14.283  13.016  -2.645  0.00  0.00    -0.198 OA
BRANCH  22  25
ATOM     25  N   UNL d   1      13.716  12.017  -2.841  0.00  0.00     0.034 NA
BRANCH  25  26
ATOM     26  C   UNL d   1      13.955  11.938  -2.057  0.00  0.00     0.760 A 
ATOM     27  N   UNL d   1      13.386  11.937  -1.443  0.00  0.00    -0.059 NA
ATOM     28  C   UNL d   1      13.626  11.858  -0.658  0.00  0.00     0.102 A 
ATOM     29  C   UNL d   1      13.065  11.858  -0.053  0.00  0.00     0.021 C 
ATOM     30  C   UNL d   1      14.426  11.779  -0.481  0.00  0.00     0.041 A 
ATOM     31  C   UNL d   1      14.994  11.780  -1.095  0.00  0.00     0.120 A 
ATOM     32  N   UNL d   1      14.749  11.859  -1.872  0.00  0.00    -0.057 NA
ENDBRANCH  25  26
ENDBRANCH  22  25
ENDBRANCH   1  22
TORSDOF 7
ENDMDL
