MODEL 1
REMARK VINA RESULT:      -4.7      0.000      0.000
REMARK  2 active torsions:
REMARK  status: ('A' for Active; 'I' for Inactive)
REMARK       I    between atoms: N_3  and  C_1 
REMARK    1  A    between atoms: O_4  and  C_1 
REMARK    2  A    between atoms: C_6  and  O_4 
ROOT
ATOM      1  C   UNL d   1     -41.932-122.368 -53.598  0.00  0.00     0.105 A 
ATOM      2  C   UNL d   1     -41.788-122.599 -54.374  0.00  0.00     0.030 A 
ATOM      3  C   UNL d   1     -41.671-122.847 -52.962  0.00  0.00     0.122 A 
ATOM      4  N   UNL d   1     -42.337-121.660 -53.441  0.00  0.00    -0.242 NA
ATOM      5  C   UNL d   1     -41.385-123.304 -54.529  0.00  0.00     0.059 A 
ATOM      6  C   UNL d   1     -41.270-123.547 -53.117  0.00  0.00     0.027 A 
ATOM      7  C   UNL d   1     -41.123-123.783 -53.893  0.00  0.00     0.013 A 
ATOM      8 CL   UNL d   1     -41.237-123.541 -55.311  0.00  0.00    -0.082 Cl
ATOM      9  C   UNL d   1     -42.046-122.127 -55.000  0.00  0.00     0.004 A 
ATOM     10  C   UNL d   1     -42.595-121.189 -54.067  0.00  0.00     0.099 A 
ATOM     11  C   UNL d   1     -42.448-121.425 -54.850  0.00  0.00     0.021 A 
ENDROOT
BRANCH   3  12
ATOM     12  O   UNL d   1     -41.816-122.615 -52.174  0.00  0.00    -0.257 OA
BRANCH  12  13
ATOM     13  C   UNL d   1     -41.616-123.120 -51.539  0.00  0.00     0.378 C 
ATOM     14  N   UNL d   1     -41.898-122.976 -50.786  0.00  0.00    -0.252 N 
ATOM     15  C   UNL d   1     -41.698-123.478 -50.162  0.00  0.00     0.085 A 
ATOM     16  C   UNL d   1     -42.385-122.324 -50.645  0.00  0.00     0.085 A 
ATOM     17  C   UNL d   1     -41.979-123.336 -49.404  0.00  0.00     0.019 A 
ATOM     18  C   UNL d   1     -42.467-122.684 -49.263  0.00  0.00     0.003 A 
ATOM     19  C   UNL d   1     -42.664-122.186 -49.883  0.00  0.00     0.019 A 
ATOM     20  O   UNL d   1     -41.122-123.781 -51.682  0.00  0.00    -0.237 OA
ENDBRANCH  12  13
ENDBRANCH   3  12
TORSDOF 2
ENDMDL
MODEL 2
REMARK VINA RESULT:      -4.0      1.880      2.567
REMARK  2 active torsions:
REMARK  status: ('A' for Active; 'I' for Inactive)
REMARK       I    between atoms: N_3  and  C_1 
REMARK    1  A    between atoms: O_4  and  C_1 
REMARK    2  A    between atoms: C_6  and  O_4 
ROOT
ATOM      1  C   UNL d   1     -41.352-122.282 -51.070  0.00  0.00     0.105 A 
ATOM      2  C   UNL d   1     -41.240-122.392 -51.878  0.00  0.00     0.030 A 
ATOM      3  C   UNL d   1     -41.459-122.944 -50.567  0.00  0.00     0.122 A 
ATOM      4  N   UNL d   1     -41.358-121.516 -50.750  0.00  0.00    -0.242 NA
ATOM      5  C   UNL d   1     -41.235-123.156 -52.195  0.00  0.00     0.059 A 
ATOM      6  C   UNL d   1     -41.453-123.701 -50.883  0.00  0.00     0.027 A 
ATOM      7  C   UNL d   1     -41.342-123.817 -51.692  0.00  0.00     0.013 A 
ATOM      8 CL   UNL d   1     -41.123-123.271 -53.010  0.00  0.00    -0.082 Cl
ATOM      9  C   UNL d   1     -41.135-121.741 -52.373  0.00  0.00     0.004 A 
ATOM     10  C   UNL d   1     -41.252-120.864 -51.245  0.00  0.00     0.099 A 
ATOM     11  C   UNL d   1     -41.140-120.979 -52.060  0.00  0.00     0.021 A 
ENDROOT
BRANCH   3  12
ATOM     12  O   UNL d   1     -41.572-122.834 -49.748  0.00  0.00    -0.257 OA
BRANCH  12  13
ATOM     13  C   UNL d   1     -42.206-123.210 -49.353  0.00  0.00     0.378 C 
ATOM     14  N   UNL d   1     -42.199-123.298 -48.541  0.00  0.00    -0.252 N 
ATOM     15  C   UNL d   1     -42.827-123.669 -48.156  0.00  0.00     0.085 A 
ATOM     16  C   UNL d   1     -41.560-123.014 -48.100  0.00  0.00     0.085 A 
ATOM     17  C   UNL d   1     -42.823-123.759 -47.339  0.00  0.00     0.019 A 
ATOM     18  C   UNL d   1     -42.184-123.476 -46.899  0.00  0.00     0.003 A 
ATOM     19  C   UNL d   1     -41.560-123.107 -47.283  0.00  0.00     0.019 A 
ATOM     20  O   UNL d   1     -42.853-123.497 -49.799  0.00  0.00    -0.237 OA
ENDBRANCH  12  13
ENDBRANCH   3  12
TORSDOF 2
ENDMDL
MODEL 3
REMARK VINA RESULT:      -2.5      1.708      4.249
REMARK  2 active torsions:
REMARK  status: ('A' for Active; 'I' for Inactive)
REMARK       I    between atoms: N_3  and  C_1 
REMARK    1  A    between atoms: O_4  and  C_1 
REMARK    2  A    between atoms: C_6  and  O_4 
ROOT
ATOM      1  C   UNL d   1     -41.511-122.524 -51.720  0.00  0.00     0.105 A 
ATOM      2  C   UNL d   1     -41.410-122.218 -50.964  0.00  0.00     0.030 A 
ATOM      3  C   UNL d   1     -41.428-122.027 -52.390  0.00  0.00     0.122 A 
ATOM      4  N   UNL d   1     -41.695-123.327 -51.825  0.00  0.00    -0.242 NA
ATOM      5  C   UNL d   1     -41.226-121.418 -50.862  0.00  0.00     0.059 A 
ATOM      6  C   UNL d   1     -41.246-121.233 -52.288  0.00  0.00     0.027 A 
ATOM      7  C   UNL d   1     -41.143-120.920 -51.531  0.00  0.00     0.013 A 
ATOM      8 CL   UNL d   1     -41.123-121.104 -50.100  0.00  0.00    -0.082 Cl
ATOM      9  C   UNL d   1     -41.491-122.708 -50.305  0.00  0.00     0.004 A 
ATOM     10  C   UNL d   1     -41.777-123.817 -51.166  0.00  0.00     0.099 A 
ATOM     11  C   UNL d   1     -41.674-123.504 -50.403  0.00  0.00     0.021 A 
ENDROOT
BRANCH   3  12
ATOM     12  O   UNL d   1     -41.530-122.335 -53.158  0.00  0.00    -0.257 OA
BRANCH  12  13
ATOM     13  C   UNL d   1     -42.044-121.963 -53.701  0.00  0.00     0.378 C 
ATOM     14  N   UNL d   1     -41.951-122.068 -54.506  0.00  0.00    -0.252 N 
ATOM     15  C   UNL d   1     -42.462-121.698 -55.037  0.00  0.00     0.085 A 
ATOM     16  C   UNL d   1     -41.343-122.549 -54.791  0.00  0.00     0.085 A 
ATOM     17  C   UNL d   1     -42.371-121.802 -55.847  0.00  0.00     0.019 A 
ATOM     18  C   UNL d   1     -41.763-122.283 -56.132  0.00  0.00     0.003 A 
ATOM     19  C   UNL d   1     -41.256-122.651 -55.603  0.00  0.00     0.019 A 
ATOM     20  O   UNL d   1     -42.660-121.476 -53.411  0.00  0.00    -0.237 OA
ENDBRANCH  12  13
ENDBRANCH   3  12
TORSDOF 2
ENDMDL
