MODEL 1
REMARK VINA RESULT:      -9.7      0.000      0.000
REMARK  1 active torsions:
REMARK  status: ('A' for Active; 'I' for Inactive)
REMARK    1  A    between atoms: C_11  and  C_4 
ROOT
ATOM      1  N   UNL d   1      52.232  33.595  53.532  0.00  0.00    -0.242 NA
ATOM      2  C   UNL d   1      52.900  33.589  53.998  0.00  0.00     0.099 A 
ATOM      3  N   UNL d   1      52.973  35.007  53.951  0.00  0.00    -0.241 NA
ATOM      4  C   UNL d   1      51.938  34.308  53.277  0.00  0.00     0.101 A 
ATOM      5  C   UNL d   1      53.270  34.295  54.208  0.00  0.00     0.099 A 
ATOM      6  C   UNL d   1      53.199  32.873  54.257  0.00  0.00     0.021 A 
ATOM      7  C   UNL d   1      53.887  32.852  54.739  0.00  0.00     0.002 A 
ATOM      8  C   UNL d   1      54.257  33.558  54.949  0.00  0.00     0.002 A 
ATOM      9  C   UNL d   1      53.939  34.284  54.676  0.00  0.00     0.021 A 
ATOM     10  C   UNL d   1      52.309  35.014  53.486  0.00  0.00     0.118 A 
ATOM     11  C   UNL d   1      54.199  32.125  55.008  0.00  0.00     0.000 C 
ATOM     12  C   UNL d   1      54.940  33.537  55.427  0.00  0.00     0.000 C 
ENDROOT
BRANCH   4  13
ATOM     13  C   UNL d   1      51.269  34.315  52.809  0.00  0.00     0.019 A 
ATOM     14  C   UNL d   1      50.533  34.459  53.140  0.00  0.00     0.002 A 
ATOM     15  C   UNL d   1      49.828  34.470  52.663  0.00  0.00     0.000 A 
ATOM     16  C   UNL d   1      49.928  34.327  51.853  0.00  0.00     0.000 A 
ATOM     17  C   UNL d   1      50.665  34.183  51.522  0.00  0.00     0.000 A 
ATOM     18  C   UNL d   1      51.332  34.175  51.987  0.00  0.00     0.002 A 
ENDBRANCH   4  13
TORSDOF 1
ENDMDL
MODEL 2
REMARK VINA RESULT:      -9.6      1.838      3.572
REMARK  1 active torsions:
REMARK  status: ('A' for Active; 'I' for Inactive)
REMARK    1  A    between atoms: C_11  and  C_4 
ROOT
ATOM      1  N   UNL d   1      52.738  32.215  53.483  0.00  0.00    -0.242 NA
ATOM      2  C   UNL d   1      52.820  33.015  53.612  0.00  0.00     0.099 A 
ATOM      3  N   UNL d   1      54.097  32.810  54.200  0.00  0.00    -0.241 NA
ATOM      4  C   UNL d   1      53.336  31.716  53.712  0.00  0.00     0.101 A 
ATOM      5  C   UNL d   1      53.501  33.312  53.971  0.00  0.00     0.099 A 
ATOM      6  C   UNL d   1      52.219  33.520  53.382  0.00  0.00     0.021 A 
ATOM      7  C   UNL d   1      52.291  34.347  53.510  0.00  0.00     0.002 A 
ATOM      8  C   UNL d   1      52.972  34.645  53.868  0.00  0.00     0.002 A 
ATOM      9  C   UNL d   1      53.579  34.115  54.099  0.00  0.00     0.021 A 
ATOM     10  C   UNL d   1      54.016  32.014  54.071  0.00  0.00     0.118 A 
ATOM     11  C   UNL d   1      51.683  34.870  53.278  0.00  0.00     0.000 C 
ATOM     12  C   UNL d   1      53.042  35.466  53.995  0.00  0.00     0.000 C 
ENDROOT
BRANCH   4  13
ATOM     13  C   UNL d   1      53.254  30.914  53.583  0.00  0.00     0.019 A 
ATOM     14  C   UNL d   1      53.398  30.379  54.188  0.00  0.00     0.002 A 
ATOM     15  C   UNL d   1      53.317  29.541  54.066  0.00  0.00     0.000 A 
ATOM     16  C   UNL d   1      53.086  29.299  53.308  0.00  0.00     0.000 A 
ATOM     17  C   UNL d   1      52.942  29.834  52.703  0.00  0.00     0.000 A 
ATOM     18  C   UNL d   1      53.023  30.633  52.830  0.00  0.00     0.002 A 
ENDBRANCH   4  13
TORSDOF 1
ENDMDL
MODEL 3
REMARK VINA RESULT:      -9.5      2.340      3.892
REMARK  1 active torsions:
REMARK  status: ('A' for Active; 'I' for Inactive)
REMARK    1  A    between atoms: C_11  and  C_4 
ROOT
ATOM      1  N   UNL d   1      53.753  31.817  54.346  0.00  0.00    -0.242 NA
ATOM      2  C   UNL d   1      53.455  31.174  53.944  0.00  0.00     0.099 A 
ATOM      3  N   UNL d   1      53.056  32.008  52.865  0.00  0.00    -0.241 NA
ATOM      4  C   UNL d   1      53.701  32.552  54.006  0.00  0.00     0.101 A 
ATOM      5  C   UNL d   1      53.107  31.270  53.202  0.00  0.00     0.099 A 
ATOM      6  C   UNL d   1      53.506  30.432  54.284  0.00  0.00     0.021 A 
ATOM      7  C   UNL d   1      53.203  29.761  53.880  0.00  0.00     0.002 A 
ATOM      8  C   UNL d   1      52.855  29.856  53.138  0.00  0.00     0.002 A 
ATOM      9  C   UNL d   1      52.809  30.623  52.802  0.00  0.00     0.021 A 
ATOM     10  C   UNL d   1      53.352  32.648  53.264  0.00  0.00     0.118 A 
ATOM     11  C   UNL d   1      53.251  28.999  54.219  0.00  0.00     0.000 C 
ATOM     12  C   UNL d   1      52.554  29.190  52.738  0.00  0.00     0.000 C 
ENDROOT
BRANCH   4  13
ATOM     13  C   UNL d   1      53.999  33.197  54.408  0.00  0.00     0.019 A 
ATOM     14  C   UNL d   1      53.511  33.827  54.601  0.00  0.00     0.002 A 
ATOM     15  C   UNL d   1      53.810  34.505  55.020  0.00  0.00     0.000 A 
ATOM     16  C   UNL d   1      54.614  34.490  55.220  0.00  0.00     0.000 A 
ATOM     17  C   UNL d   1      55.101  33.860  55.028  0.00  0.00     0.000 A 
ATOM     18  C   UNL d   1      54.806  33.217  54.626  0.00  0.00     0.002 A 
ENDBRANCH   4  13
TORSDOF 1
ENDMDL
MODEL 4
REMARK VINA RESULT:      -9.0      0.637      3.983
REMARK  1 active torsions:
REMARK  status: ('A' for Active; 'I' for Inactive)
REMARK    1  A    between atoms: C_11  and  C_4 
ROOT
ATOM      1  N   UNL d   1      52.250  33.915  53.880  0.00  0.00    -0.242 NA
ATOM      2  C   UNL d   1      51.671  33.998  53.314  0.00  0.00     0.099 A 
ATOM      3  N   UNL d   1      52.440  33.249  52.385  0.00  0.00    -0.241 NA
ATOM      4  C   UNL d   1      52.923  33.499  53.696  0.00  0.00     0.101 A 
ATOM      5  C   UNL d   1      51.766  33.665  52.566  0.00  0.00     0.099 A 
ATOM      6  C   UNL d   1      50.992  34.417  53.497  0.00  0.00     0.021 A 
ATOM      7  C   UNL d   1      50.386  34.510  52.923  0.00  0.00     0.002 A 
ATOM      8  C   UNL d   1      50.481  34.177  52.175  0.00  0.00     0.002 A 
ATOM      9  C   UNL d   1      51.182  33.751  52.001  0.00  0.00     0.021 A 
ATOM     10  C   UNL d   1      53.018  33.165  52.947  0.00  0.00     0.118 A 
ATOM     11  C   UNL d   1      49.690  34.936  53.100  0.00  0.00     0.000 C 
ATOM     12  C   UNL d   1      49.880  34.270  51.605  0.00  0.00     0.000 C 
ENDROOT
BRANCH   4  13
ATOM     13  C   UNL d   1      53.504  33.415  54.262  0.00  0.00     0.019 A 
ATOM     14  C   UNL d   1      53.983  34.050  54.463  0.00  0.00     0.002 A 
ATOM     15  C   UNL d   1      54.592  33.975  55.052  0.00  0.00     0.000 A 
ATOM     16  C   UNL d   1      54.674  33.231  55.407  0.00  0.00     0.000 A 
ATOM     17  C   UNL d   1      54.196  32.596  55.206  0.00  0.00     0.000 A 
ATOM     18  C   UNL d   1      53.615  32.678  54.641  0.00  0.00     0.002 A 
ENDBRANCH   4  13
TORSDOF 1
ENDMDL
MODEL 5
REMARK VINA RESULT:      -8.9      1.763      3.109
REMARK  1 active torsions:
REMARK  status: ('A' for Active; 'I' for Inactive)
REMARK    1  A    between atoms: C_11  and  C_4 
ROOT
ATOM      1  N   UNL d   1      52.955  32.643  53.560  0.00  0.00    -0.242 NA
ATOM      2  C   UNL d   1      53.105  31.844  53.598  0.00  0.00     0.099 A 
ATOM      3  N   UNL d   1      53.958  32.035  54.717  0.00  0.00    -0.241 NA
ATOM      4  C   UNL d   1      53.307  33.135  54.102  0.00  0.00     0.101 A 
ATOM      5  C   UNL d   1      53.607  31.539  54.177  0.00  0.00     0.099 A 
ATOM      6  C   UNL d   1      52.752  31.345  53.054  0.00  0.00     0.021 A 
ATOM      7  C   UNL d   1      52.898  30.519  53.081  0.00  0.00     0.002 A 
ATOM      8  C   UNL d   1      53.400  30.214  53.660  0.00  0.00     0.002 A 
ATOM      9  C   UNL d   1      53.755  30.737  54.211  0.00  0.00     0.021 A 
ATOM     10  C   UNL d   1      53.809  32.831  54.681  0.00  0.00     0.118 A 
ATOM     11  C   UNL d   1      52.541  30.002  52.530  0.00  0.00     0.000 C 
ATOM     12  C   UNL d   1      53.545  29.394  53.687  0.00  0.00     0.000 C 
ENDROOT
BRANCH   4  13
ATOM     13  C   UNL d   1      53.157  33.937  54.065  0.00  0.00     0.019 A 
ATOM     14  C   UNL d   1      52.917  34.282  53.361  0.00  0.00     0.002 A 
ATOM     15  C   UNL d   1      52.757  35.116  53.310  0.00  0.00     0.000 A 
ATOM     16  C   UNL d   1      52.858  35.555  54.005  0.00  0.00     0.000 A 
ATOM     17  C   UNL d   1      53.099  35.210  54.709  0.00  0.00     0.000 A 
ATOM     18  C   UNL d   1      53.248  34.411  54.747  0.00  0.00     0.002 A 
ENDBRANCH   4  13
TORSDOF 1
ENDMDL
MODEL 6
REMARK VINA RESULT:      -6.7      1.947      2.962
REMARK  1 active torsions:
REMARK  status: ('A' for Active; 'I' for Inactive)
REMARK    1  A    between atoms: C_11  and  C_4 
ROOT
ATOM      1  N   UNL d   1      52.739  32.248  53.845  0.00  0.00    -0.242 NA
ATOM      2  C   UNL d   1      52.901  31.458  53.731  0.00  0.00     0.099 A 
ATOM      3  N   UNL d   1      53.052  31.670  52.334  0.00  0.00    -0.241 NA
ATOM      4  C   UNL d   1      52.734  32.745  53.204  0.00  0.00     0.101 A 
ATOM      5  C   UNL d   1      53.058  31.169  52.975  0.00  0.00     0.099 A 
ATOM      6  C   UNL d   1      52.907  30.955  54.375  0.00  0.00     0.021 A 
ATOM      7  C   UNL d   1      53.073  30.138  54.272  0.00  0.00     0.002 A 
ATOM      8  C   UNL d   1      53.230  29.849  53.515  0.00  0.00     0.002 A 
ATOM      9  C   UNL d   1      53.220  30.376  52.864  0.00  0.00     0.021 A 
ATOM     10  C   UNL d   1      52.891  32.456  52.447  0.00  0.00     0.118 A 
ATOM     11  C   UNL d   1      53.081  29.616  54.924  0.00  0.00     0.000 C 
ATOM     12  C   UNL d   1      53.394  29.038  53.413  0.00  0.00     0.000 C 
ENDROOT
BRANCH   4  13
ATOM     13  C   UNL d   1      52.571  33.537  53.317  0.00  0.00     0.019 A 
ATOM     14  C   UNL d   1      51.796  33.795  53.392  0.00  0.00     0.002 A 
ATOM     15  C   UNL d   1      51.614  34.617  53.511  0.00  0.00     0.000 A 
ATOM     16  C   UNL d   1      52.258  35.137  53.546  0.00  0.00     0.000 A 
ATOM     17  C   UNL d   1      53.033  34.880  53.472  0.00  0.00     0.000 A 
ATOM     18  C   UNL d   1      53.197  34.091  53.358  0.00  0.00     0.002 A 
ENDBRANCH   4  13
TORSDOF 1
ENDMDL
