MODEL 1
REMARK VINA RESULT:       7.8      0.000      0.000
REMARK  4 active torsions:
REMARK  status: ('A' for Active; 'I' for Inactive)
REMARK       I    between atoms: C_2  and  N_1 
REMARK       I    between atoms: C_3  and  N_1 
REMARK    1  A    between atoms: C_4  and  C_2 
REMARK       I    between atoms: N_7  and  C_3 
REMARK    2  A    between atoms: C_15  and  N_7 
REMARK    3  A    between atoms: N_11  and  C_16 
REMARK    4  A    between atoms: C_16  and  C_15 
ROOT
ATOM      1  N   UNL d   1      46.059 -15.999  44.080  0.00  0.00    -0.152 NA
ATOM      2  C   UNL d   1      45.538 -15.526  44.518  0.00  0.00     0.283 C 
ATOM      3  C   UNL d   1      45.973 -16.821  44.078  0.00  0.00     0.371 C 
ATOM      4  O   UNL d   1      44.927 -15.879  44.955  0.00  0.00    -0.265 OA
ATOM      5  O   UNL d   1      45.372 -17.180  44.507  0.00  0.00    -0.242 OA
ATOM      6  N   UNL d   1      46.497 -17.295  43.638  0.00  0.00    -0.188 NA
ENDROOT
BRANCH   2   7
ATOM      7  C   UNL d   1      45.622 -14.707  44.522  0.00  0.00     0.058 A 
ATOM      8  C   UNL d   1      45.084 -14.236  44.101  0.00  0.00     0.006 A 
ATOM      9  C   UNL d   1      45.161 -13.418  44.100  0.00  0.00     0.012 A 
ATOM     10  C   UNL d   1      45.782 -13.058  44.523  0.00  0.00     0.058 A 
ATOM     11  C   UNL d   1      46.320 -13.537  44.946  0.00  0.00     0.012 A 
ATOM     12 CL   UNL d   1      45.875 -12.236  44.534  0.00  0.00    -0.082 Cl
ATOM     13  C   UNL d   1      46.237 -14.361  44.942  0.00  0.00     0.006 A 
ENDBRANCH   2   7
BRANCH   6  14
ATOM     14  C   UNL d   1      46.260 -18.067  43.755  0.00  0.00     0.123 C 
BRANCH  14  15
ATOM     15  C   UNL d   1      46.581 -18.671  43.297  0.00  0.00     0.101 C 
BRANCH  15  16
ATOM     16  N   UNL d   1      46.441 -19.453  43.494  0.00  0.00    -0.299 N 
ATOM     17  C   UNL d   1      46.002 -19.924  42.990  0.00  0.00     0.100 C 
ATOM     18  C   UNL d   1      46.646 -19.937  44.125  0.00  0.00     0.100 C 
ENDBRANCH  15  16
ENDBRANCH  14  15
ENDBRANCH   6  14
TORSDOF 4
ENDMDL
