MODEL 1
REMARK VINA RESULT:      -4.1      0.000      0.000
REMARK  4 active torsions:
REMARK  status: ('A' for Active; 'I' for Inactive)
REMARK    1  A    between atoms: C_12  and  N_3 
REMARK    2  A    between atoms: C_13  and  N_10 
REMARK    3  A    between atoms: C_21  and  C_12 
REMARK    4  A    between atoms: C_16  and  C_13 
ROOT
ATOM      1  C   UNL d   1      58.380  -0.166  30.132  0.00  0.00     0.191 A 
ATOM      2  C   UNL d   1      58.060  -0.912  30.274  0.00  0.00     0.173 A 
ATOM      3  N   UNL d   1      58.839  -1.456  29.210  0.00  0.00    -0.224 N 
ATOM      4  N   UNL d   1      58.049   0.361  30.675  0.00  0.00    -0.042 NA
ATOM      5  C   UNL d   1      57.521  -0.068  31.153  0.00  0.00     0.722 A 
ATOM      6  N   UNL d   1      57.530  -0.852  30.903  0.00  0.00    -0.131 N 
ATOM      7  N   UNL d   1      58.935  -0.066  29.523  0.00  0.00    -0.240 N 
ATOM      8  C   UNL d   1      59.163  -0.708  29.065  0.00  0.00     0.343 A 
ATOM      9  C   UNL d   1      58.287  -1.562  29.814  0.00  0.00     0.288 A 
ATOM     10  N   UNL d   1      56.995  -0.006  31.779  0.00  0.00    -0.135 N 
ATOM     11  C   UNL d   1      57.009  -1.271  31.376  0.00  0.00     0.118 A 
ATOM     12  O   UNL d   1      59.717  -0.608  28.456  0.00  0.00    -0.245 OA
ATOM     13  O   UNL d   1      57.963  -2.311  29.959  0.00  0.00    -0.265 OA
ATOM     14  C   UNL d   1      56.673  -0.755  31.920  0.00  0.00     0.118 A 
ATOM     15  C   UNL d   1      59.259   0.682  29.378  0.00  0.00     0.105 C 
ENDROOT
BRANCH   3  16
ATOM     16  C   UNL d   1      59.067  -2.102  28.749  0.00  0.00     0.087 C 
BRANCH  16  17
ATOM     17  C   UNL d   1      59.730  -2.565  28.969  0.00  0.00     0.018 A 
ATOM     18  C   UNL d   1      59.804  -3.328  28.704  0.00  0.00     0.002 A 
ATOM     19  C   UNL d   1      60.452  -3.779  28.919  0.00  0.00     0.000 A 
ATOM     20  C   UNL d   1      60.532  -4.553  28.653  0.00  0.00     0.000 C 
ATOM     21  C   UNL d   1      61.034  -3.453  29.410  0.00  0.00     0.000 A 
ATOM     22  C   UNL d   1      60.969  -2.680  29.685  0.00  0.00     0.000 A 
ATOM     23  C   UNL d   1      60.317  -2.236  29.465  0.00  0.00     0.002 A 
ENDBRANCH  16  17
ENDBRANCH   3  16
BRANCH  10  24
ATOM     24  C   UNL d   1      56.814   0.682  32.197  0.00  0.00     0.123 C 
BRANCH  24  25
ATOM     25  C   UNL d   1      56.626   0.634  33.006  0.00  0.00     0.118 A 
ATOM     26  O   UNL d   1      57.157   0.568  33.626  0.00  0.00    -0.304 OA
ATOM     27  C   UNL d   1      56.738   0.537  34.323  0.00  0.00     0.123 A 
ATOM     28  C   UNL d   1      55.929   0.584  34.138  0.00  0.00     0.029 A 
ATOM     29  C   UNL d   1      55.863   0.644  33.316  0.00  0.00     0.028 A 
ENDBRANCH  24  25
ENDBRANCH  10  24
TORSDOF 4
ENDMDL
MODEL 2
REMARK VINA RESULT:      -2.0      1.565      2.154
REMARK  4 active torsions:
REMARK  status: ('A' for Active; 'I' for Inactive)
REMARK    1  A    between atoms: C_12  and  N_3 
REMARK    2  A    between atoms: C_13  and  N_10 
REMARK    3  A    between atoms: C_21  and  C_12 
REMARK    4  A    between atoms: C_16  and  C_13 
ROOT
ATOM      1  C   UNL d   1      58.555   0.657  31.795  0.00  0.00     0.191 A 
ATOM      2  C   UNL d   1      58.008   0.646  31.178  0.00  0.00     0.173 A 
ATOM      3  N   UNL d   1      59.070   0.632  30.227  0.00  0.00    -0.224 N 
ATOM      4  N   UNL d   1      58.136   0.668  32.506  0.00  0.00    -0.042 NA
ATOM      5  C   UNL d   1      57.325   0.664  32.322  0.00  0.00     0.722 A 
ATOM      6  N   UNL d   1      57.249   0.650  31.503  0.00  0.00    -0.131 N 
ATOM      7  N   UNL d   1      59.366   0.656  31.623  0.00  0.00    -0.240 N 
ATOM      8  C   UNL d   1      59.623   0.643  30.844  0.00  0.00     0.343 A 
ATOM      9  C   UNL d   1      58.262   0.633  30.390  0.00  0.00     0.288 A 
ATOM     10  N   UNL d   1      56.573   0.668  32.648  0.00  0.00    -0.135 N 
ATOM     11  C   UNL d   1      56.450   0.646  31.326  0.00  0.00     0.118 A 
ATOM     12  O   UNL d   1      60.435   0.642  30.673  0.00  0.00    -0.245 OA
ATOM     13  O   UNL d   1      57.709   0.622  29.772  0.00  0.00    -0.265 OA
ATOM     14  C   UNL d   1      56.024   0.657  32.028  0.00  0.00     0.118 A 
ATOM     15  C   UNL d   1      59.919   0.667  32.240  0.00  0.00     0.105 C 
ENDROOT
BRANCH   3  16
ATOM     16  C   UNL d   1      59.327   0.620  29.442  0.00  0.00     0.087 C 
BRANCH  16  17
ATOM     17  C   UNL d   1      59.636  -0.084  29.109  0.00  0.00     0.018 A 
ATOM     18  C   UNL d   1      59.181  -0.756  29.076  0.00  0.00     0.002 A 
ATOM     19  C   UNL d   1      59.484  -1.444  28.750  0.00  0.00     0.000 A 
ATOM     20  C   UNL d   1      59.029  -2.127  28.713  0.00  0.00     0.000 C 
ATOM     21  C   UNL d   1      60.258  -1.452  28.455  0.00  0.00     0.000 A 
ATOM     22  C   UNL d   1      60.728  -0.776  28.484  0.00  0.00     0.000 A 
ATOM     23  C   UNL d   1      60.417  -0.093  28.811  0.00  0.00     0.002 A 
ENDBRANCH  16  17
ENDBRANCH   3  16
BRANCH  10  24
ATOM     24  C   UNL d   1      56.389   0.681  33.452  0.00  0.00     0.123 C 
BRANCH  24  25
ATOM     25  C   UNL d   1      55.675   0.348  33.716  0.00  0.00     0.118 A 
ATOM     26  O   UNL d   1      55.587  -0.359  34.121  0.00  0.00    -0.304 OA
ATOM     27  C   UNL d   1      54.796  -0.474  34.271  0.00  0.00     0.123 A 
ATOM     28  C   UNL d   1      54.378   0.172  33.956  0.00  0.00     0.029 A 
ATOM     29  C   UNL d   1      54.929   0.682  33.611  0.00  0.00     0.028 A 
ENDBRANCH  24  25
ENDBRANCH  10  24
TORSDOF 4
ENDMDL
