MODEL 1
REMARK VINA RESULT:      59.5      0.000      0.000
REMARK  2 active torsions:
REMARK  status: ('A' for Active; 'I' for Inactive)
REMARK    1  A    between atoms: N_7  and  C_1 
REMARK       I    between atoms: C_8  and  N_7 
REMARK    2  A    between atoms: C_10  and  C_8 
ROOT
ATOM      1  C   UNL d   1      59.286  49.704  50.682  0.00  0.00     0.159 A 
ATOM      2  N   UNL d   1      58.108  49.704  49.855  0.00  0.00    -0.257 N 
ATOM      3  C   UNL d   1      57.636  49.702  50.539  0.00  0.00     0.150 A 
ATOM      4  C   UNL d   1      58.934  49.705  49.939  0.00  0.00     0.285 A 
ATOM      5  N   UNL d   1      57.981  49.702  51.299  0.00  0.00    -0.226 NA
ATOM      6  C   UNL d   1      58.806  49.703  51.370  0.00  0.00     0.105 A 
ATOM      7  C   UNL d   1      56.819  49.701  50.478  0.00  0.00     0.035 A 
ATOM      8  C   UNL d   1      57.767  49.704  49.120  0.00  0.00     0.085 A 
ATOM      9  O   UNL d   1      59.405  49.706  49.254  0.00  0.00    -0.265 OA
ATOM     10  C   UNL d   1      56.941  49.703  49.048  0.00  0.00     0.019 A 
ATOM     11  C   UNL d   1      56.467  49.702  49.712  0.00  0.00     0.004 A 
ATOM     12  C   UNL d   1      59.157  49.702  52.106  0.00  0.00     0.022 C 
ATOM     13  C   UNL d   1      56.338  49.700  51.139  0.00  0.00     0.003 C 
ENDROOT
BRANCH   1  14
ATOM     14  N   UNL d   1      60.111  49.705  50.754  0.00  0.00    -0.202 NA
ATOM     15  C   UNL d   1      60.525  48.987  50.716  0.00  0.00     0.279 C 
ATOM     16  O   UNL d   1      61.039  49.614  50.826  0.00  0.00    -0.265 OA
BRANCH  15  17
ATOM     17  C   UNL d   1      60.816  48.215  50.661  0.00  0.00     0.060 A 
ATOM     18  C   UNL d   1      61.301  48.012  50.030  0.00  0.00     0.031 A 
ATOM     19  C   UNL d   1      61.592  47.239  49.975  0.00  0.00     0.119 A 
ATOM     20  O   UNL d   1      62.082  46.873  49.417  0.00  0.00    -0.300 OA
ATOM     21  C   UNL d   1      61.401  46.680  50.546  0.00  0.00     0.119 A 
ATOM     22  C   UNL d   1      62.193  46.080  49.646  0.00  0.00     0.304 A 
ATOM     23  O   UNL d   1      61.761  45.969  50.358  0.00  0.00    -0.300 OA
ATOM     24  C   UNL d   1      60.910  46.892  51.184  0.00  0.00     0.026 A 
ATOM     25  C   UNL d   1      60.618  47.661  51.241  0.00  0.00     0.007 A 
ENDBRANCH  15  17
ENDBRANCH   1  14
TORSDOF 2
ENDMDL
MODEL 2
REMARK VINA RESULT:      60.3      0.668      1.290
REMARK  2 active torsions:
REMARK  status: ('A' for Active; 'I' for Inactive)
REMARK    1  A    between atoms: N_7  and  C_1 
REMARK       I    between atoms: C_8  and  N_7 
REMARK    2  A    between atoms: C_10  and  C_8 
ROOT
ATOM      1  C   UNL d   1      59.174  49.708  50.594  0.00  0.00     0.159 A 
ATOM      2  N   UNL d   1      57.747  49.708  50.793  0.00  0.00    -0.257 N 
ATOM      3  C   UNL d   1      57.640  49.708  49.969  0.00  0.00     0.150 A 
ATOM      4  C   UNL d   1      58.521  49.708  51.095  0.00  0.00     0.285 A 
ATOM      5  N   UNL d   1      58.294  49.708  49.450  0.00  0.00    -0.226 NA
ATOM      6  C   UNL d   1      59.061  49.708  49.763  0.00  0.00     0.105 A 
ATOM      7  C   UNL d   1      56.885  49.708  49.650  0.00  0.00     0.035 A 
ATOM      8  C   UNL d   1      57.109  49.708  51.291  0.00  0.00     0.085 A 
ATOM      9  O   UNL d   1      58.628  49.708  51.919  0.00  0.00    -0.265 OA
ATOM     10  C   UNL d   1      56.341  49.708  50.978  0.00  0.00     0.019 A 
ATOM     11  C   UNL d   1      56.222  49.708  50.171  0.00  0.00     0.004 A 
ATOM     12  C   UNL d   1      59.708  49.708  49.269  0.00  0.00     0.022 C 
ATOM     13  C   UNL d   1      56.759  49.708  48.842  0.00  0.00     0.003 C 
ENDROOT
BRANCH   1  14
ATOM     14  N   UNL d   1      59.941  49.708  50.907  0.00  0.00    -0.202 NA
ATOM     15  C   UNL d   1      60.376  49.003  50.918  0.00  0.00     0.279 C 
ATOM     16  O   UNL d   1      60.810  49.618  51.240  0.00  0.00    -0.265 OA
BRANCH  15  17
ATOM     17  C   UNL d   1      60.703  48.244  50.873  0.00  0.00     0.060 A 
ATOM     18  C   UNL d   1      61.143  48.034  50.211  0.00  0.00     0.031 A 
ATOM     19  C   UNL d   1      61.469  47.275  50.166  0.00  0.00     0.119 A 
ATOM     20  O   UNL d   1      61.929  46.906  49.585  0.00  0.00    -0.300 OA
ATOM     21  C   UNL d   1      61.356  46.735  50.775  0.00  0.00     0.119 A 
ATOM     22  C   UNL d   1      62.101  46.133  49.838  0.00  0.00     0.304 A 
ATOM     23  O   UNL d   1      61.736  46.034  50.588  0.00  0.00    -0.300 OA
ATOM     24  C   UNL d   1      60.909  46.954  51.443  0.00  0.00     0.026 A 
ATOM     25  C   UNL d   1      60.583  47.710  51.491  0.00  0.00     0.007 A 
ENDBRANCH  15  17
ENDBRANCH   1  14
TORSDOF 2
ENDMDL
