MODEL 1
REMARK VINA RESULT:      -2.5      0.000      0.000
REMARK  7 active torsions:
REMARK  status: ('A' for Active; 'I' for Inactive)
REMARK    1  A    between atoms: C_11  and  C_1 
REMARK    2  A    between atoms: C_15  and  N_3 
REMARK    3  A    between atoms: C_7  and  S_12 
REMARK    4  A    between atoms: C_13  and  C_11 
REMARK    5  A    between atoms: S_12  and  C_13 
REMARK    6  A    between atoms: C_20  and  C_15 
REMARK    7  A    between atoms: O_19  and  C_20 
ROOT
ATOM      1  C   UNL d   1      32.690  17.809 -23.485  0.00  0.00     0.057 A 
ATOM      2  C   UNL d   1      32.082  17.567 -23.971  0.00  0.00     0.067 A 
ATOM      3  N   UNL d   1      32.087  16.748 -23.956  0.00  0.00    -0.303 N 
ATOM      4  C   UNL d   1      33.055  17.153 -23.183  0.00  0.00     0.022 A 
ATOM      5  C   UNL d   1      32.681  16.511 -23.475  0.00  0.00     0.064 A 
ATOM      6  C   UNL d   1      31.566  18.053 -24.392  0.00  0.00     0.019 C 
ATOM      7  C   UNL d   1      32.884  15.709 -23.301  0.00  0.00     0.019 C 
ENDROOT
BRANCH   1   8
ATOM      8  C   UNL d   1      32.894  18.604 -23.332  0.00  0.00     0.203 C 
ATOM      9  O   UNL d   1      33.096  19.094 -23.960  0.00  0.00    -0.286 OA
BRANCH   8  10
ATOM     10  C   UNL d   1      32.894  18.895 -22.563  0.00  0.00     0.079 C 
BRANCH  10  11
ATOM     11  S   UNL d   1      33.116  19.677 -22.412  0.00  0.00    -0.056 SA
BRANCH  11  12
ATOM     12  C   UNL d   1      33.153  20.360 -21.937  0.00  0.00     0.164 A 
ATOM     13  S   UNL d   1      33.121  21.136 -22.227  0.00  0.00    -0.039 SA
ATOM     14  C   UNL d   1      33.175  21.652 -21.567  0.00  0.00     0.134 A 
ATOM     15  C   UNL d   1      33.165  22.486 -21.596  0.00  0.00     0.030 C 
ATOM     16  N   UNL d   1      33.239  21.184 -20.876  0.00  0.00    -0.140 NA
ATOM     17  N   UNL d   1      33.225  20.382 -21.117  0.00  0.00    -0.134 NA
ENDBRANCH  11  12
ENDBRANCH  10  11
ENDBRANCH   8  10
ENDBRANCH   1   8
BRANCH   3  18
ATOM     18  C   UNL d   1      31.572  16.222 -24.363  0.00  0.00     0.107 C 
BRANCH  18  19
ATOM     19  C   UNL d   1      30.780  16.156 -24.109  0.00  0.00     0.135 C 
BRANCH  19  20
ATOM     20  O   UNL d   1      30.249  15.696 -24.509  0.00  0.00    -0.325 OA
ATOM     21  C   UNL d   1      29.639  15.555 -24.224  0.00  0.00     0.182 C 
ENDBRANCH  19  20
ENDBRANCH  18  19
ENDBRANCH   3  18
TORSDOF 7
ENDMDL
MODEL 2
REMARK VINA RESULT:      -2.1      1.613      5.139
REMARK  7 active torsions:
REMARK  status: ('A' for Active; 'I' for Inactive)
REMARK    1  A    between atoms: C_11  and  C_1 
REMARK    2  A    between atoms: C_15  and  N_3 
REMARK    3  A    between atoms: C_7  and  S_12 
REMARK    4  A    between atoms: C_13  and  C_11 
REMARK    5  A    between atoms: S_12  and  C_13 
REMARK    6  A    between atoms: C_20  and  C_15 
REMARK    7  A    between atoms: O_19  and  C_20 
ROOT
ATOM      1  C   UNL d   1      33.213  20.088 -22.404  0.00  0.00     0.057 A 
ATOM      2  C   UNL d   1      33.228  20.881 -22.596  0.00  0.00     0.067 A 
ATOM      3  N   UNL d   1      33.228  21.290 -21.886  0.00  0.00    -0.303 N 
ATOM      4  C   UNL d   1      33.205  20.018 -21.598  0.00  0.00     0.022 A 
ATOM      5  C   UNL d   1      33.214  20.755 -21.290  0.00  0.00     0.064 A 
ATOM      6  C   UNL d   1      33.241  21.203 -23.355  0.00  0.00     0.019 C 
ATOM      7  C   UNL d   1      33.209  20.937 -20.466  0.00  0.00     0.019 C 
ENDROOT
BRANCH   1   8
ATOM      8  C   UNL d   1      33.208  19.461 -22.957  0.00  0.00     0.203 C 
ATOM      9  O   UNL d   1      33.181  19.635 -23.760  0.00  0.00    -0.286 OA
BRANCH   8  10
ATOM     10  C   UNL d   1      33.230  18.680 -22.702  0.00  0.00     0.079 C 
BRANCH  10  11
ATOM     11  S   UNL d   1      32.957  18.073 -23.192  0.00  0.00    -0.056 SA
BRANCH  11  12
ATOM     12  C   UNL d   1      32.737  17.285 -23.346  0.00  0.00     0.164 A 
ATOM     13  S   UNL d   1      32.116  17.059 -23.846  0.00  0.00    -0.039 SA
ATOM     14  C   UNL d   1      32.085  16.220 -23.844  0.00  0.00     0.134 A 
ATOM     15  C   UNL d   1      31.544  15.750 -24.270  0.00  0.00     0.030 C 
ATOM     16  N   UNL d   1      32.690  15.940 -23.339  0.00  0.00    -0.140 NA
ATOM     17  N   UNL d   1      33.090  16.609 -23.035  0.00  0.00    -0.134 NA
ENDBRANCH  11  12
ENDBRANCH  10  11
ENDBRANCH   8  10
ENDBRANCH   1   8
BRANCH   3  18
ATOM     18  C   UNL d   1      33.241  22.123 -21.771  0.00  0.00     0.107 C 
BRANCH  18  19
ATOM     19  C   UNL d   1      32.517  22.533 -21.717  0.00  0.00     0.135 C 
BRANCH  19  20
ATOM     20  O   UNL d   1      32.496  23.337 -21.636  0.00  0.00    -0.325 OA
ATOM     21  C   UNL d   1      32.004  23.628 -21.253  0.00  0.00     0.182 C 
ENDBRANCH  19  20
ENDBRANCH  18  19
ENDBRANCH   3  18
TORSDOF 7
ENDMDL
MODEL 3
REMARK VINA RESULT:      -1.1      0.998      1.720
REMARK  7 active torsions:
REMARK  status: ('A' for Active; 'I' for Inactive)
REMARK    1  A    between atoms: C_11  and  C_1 
REMARK    2  A    between atoms: C_15  and  N_3 
REMARK    3  A    between atoms: C_7  and  S_12 
REMARK    4  A    between atoms: C_13  and  C_11 
REMARK    5  A    between atoms: S_12  and  C_13 
REMARK    6  A    between atoms: C_20  and  C_15 
REMARK    7  A    between atoms: O_19  and  C_20 
ROOT
ATOM      1  C   UNL d   1      31.859  17.383 -24.311  0.00  0.00     0.057 A 
ATOM      2  C   UNL d   1      31.561  16.645 -24.132  0.00  0.00     0.067 A 
ATOM      3  N   UNL d   1      30.786  16.639 -24.397  0.00  0.00    -0.303 N 
ATOM      4  C   UNL d   1      31.279  17.813 -24.676  0.00  0.00     0.022 A 
ATOM      5  C   UNL d   1      30.628  17.352 -24.724  0.00  0.00     0.064 A 
ATOM      6  C   UNL d   1      31.963  16.030 -23.757  0.00  0.00     0.019 C 
ATOM      7  C   UNL d   1      29.892  17.584 -25.067  0.00  0.00     0.019 C 
ENDROOT
BRANCH   1   8
ATOM      8  C   UNL d   1      32.635  17.641 -24.142  0.00  0.00     0.203 C 
ATOM      9  O   UNL d   1      33.192  17.660 -24.747  0.00  0.00    -0.286 OA
BRANCH   8  10
ATOM     10  C   UNL d   1      32.841  17.874 -23.381  0.00  0.00     0.079 C 
BRANCH  10  11
ATOM     11  S   UNL d   1      32.970  18.673 -23.209  0.00  0.00    -0.056 SA
BRANCH  11  12
ATOM     12  C   UNL d   1      33.065  19.313 -22.686  0.00  0.00     0.164 A 
ATOM     13  S   UNL d   1      33.085  20.109 -22.917  0.00  0.00    -0.039 SA
ATOM     14  C   UNL d   1      33.189  20.568 -22.222  0.00  0.00     0.134 A 
ATOM     15  C   UNL d   1      33.241  21.400 -22.189  0.00  0.00     0.030 C 
ATOM     16  N   UNL d   1      33.231  20.046 -21.570  0.00  0.00    -0.140 NA
ATOM     17  N   UNL d   1      33.152  19.268 -21.868  0.00  0.00    -0.134 NA
ENDBRANCH  11  12
ENDBRANCH  10  11
ENDBRANCH   8  10
ENDBRANCH   1   8
BRANCH   3  18
ATOM     18  C   UNL d   1      30.230  16.010 -24.348  0.00  0.00     0.107 C 
BRANCH  18  19
ATOM     19  C   UNL d   1      29.570  16.094 -23.845  0.00  0.00     0.135 C 
BRANCH  19  20
ATOM     20  O   UNL d   1      29.121  15.455 -23.634  0.00  0.00    -0.325 OA
ATOM     21  C   UNL d   1      28.435  15.512 -23.621  0.00  0.00     0.182 C 
ENDBRANCH  19  20
ENDBRANCH  18  19
ENDBRANCH   3  18
TORSDOF 7
ENDMDL
