MODEL 1
REMARK VINA RESULT:      10.5      0.000      0.000
REMARK  4 active torsions:
REMARK  status: ('A' for Active; 'I' for Inactive)
REMARK    1  A    between atoms: C_2  and  S_1 
REMARK    2  A    between atoms: N_3  and  S_1 
REMARK    3  A    between atoms: C_4  and  N_3 
REMARK    4  A    between atoms: O_12  and  C_10 
ROOT
ATOM      1  N   UNL d   1      13.587  11.785  -2.989  0.00  0.00    -0.156 NA
ENDROOT
BRANCH   1   2
ATOM      2  S   UNL d   1      13.840  11.825  -2.171  0.00  0.00     0.291 S 
ATOM      3  O   UNL d   1      14.629  11.870  -2.422  0.00  0.00    -0.198 OA
ATOM      4  O   UNL d   1      13.049  11.780  -1.925  0.00  0.00    -0.198 OA
BRANCH   2   5
ATOM      5  C   UNL d   1      14.083  11.864  -1.379  0.00  0.00     0.135 A 
ATOM      6  S   UNL d   1      13.652  11.874  -0.687  0.00  0.00    -0.073 SA
ATOM      7  C   UNL d   1      14.186  11.917  -0.084  0.00  0.00     0.036 A 
ATOM      8  C   UNL d   1      14.920  11.932  -0.387  0.00  0.00     0.008 A 
ATOM      9  C   UNL d   1      14.891  11.901  -1.197  0.00  0.00     0.020 A 
ENDBRANCH   2   5
ENDBRANCH   1   2
BRANCH   1  10
ATOM     10  C   UNL d   1      13.342  12.502  -3.391  0.00  0.00     0.116 A 
ATOM     11  C   UNL d   1      13.204  12.490  -4.244  0.00  0.00     0.112 A 
ATOM     12  C   UNL d   1      12.981  13.127  -4.631  0.00  0.00     0.026 A 
ATOM     13  C   UNL d   1      12.866  13.850  -4.235  0.00  0.00     0.002 A 
ATOM     14  C   UNL d   1      12.991  13.887  -3.422  0.00  0.00     0.002 A 
ATOM     15  C   UNL d   1      13.231  13.201  -3.003  0.00  0.00     0.022 A 
BRANCH  11  16
ATOM     16  O   UNL d   1      13.308  11.779  -4.688  0.00  0.00    -0.327 OA
ATOM     17  C   UNL d   1      13.346  11.798  -5.493  0.00  0.00     0.181 C 
ENDBRANCH  11  16
ENDBRANCH   1  10
TORSDOF 4
ENDMDL
