MODEL 1
REMARK VINA RESULT:      -7.1      0.000      0.000
REMARK  6 active torsions:
REMARK  status: ('A' for Active; 'I' for Inactive)
REMARK    1  A    between atoms: C_4  and  C_1 
REMARK    2  A    between atoms: C_3  and  N_8 
REMARK       I    between atoms: N_8  and  C_4 
REMARK    3  A    between atoms: C_14  and  C_6 
REMARK    4  A    between atoms: C_15  and  C_10 
REMARK    5  A    between atoms: C_12  and  C_16 
REMARK    6  A    between atoms: C_19  and  C_15 
ROOT
ATOM      1  C   UNL d   1     -47.186  13.835  22.991  0.00  0.00     0.083 A 
ATOM      2  C   UNL d   1     -47.999  13.715  22.988  0.00  0.00     0.032 A 
ATOM      3  C   UNL d   1     -48.362  14.425  22.776  0.00  0.00     0.100 A 
ATOM      4  C   UNL d   1     -47.043  14.621  22.781  0.00  0.00     0.105 A 
ATOM      5  O   UNL d   1     -47.769  14.986  22.648  0.00  0.00    -0.307 OA
ATOM      6  C   UNL d   1     -46.304  14.981  22.716  0.00  0.00     0.027 C 
ENDROOT
BRANCH   1   7
ATOM      7  C   UNL d   1     -46.614  13.269  23.173  0.00  0.00     0.283 C 
ATOM      8  N   UNL d   1     -46.684  12.501  22.871  0.00  0.00    -0.181 NA
ATOM      9  O   UNL d   1     -45.977  13.465  23.651  0.00  0.00    -0.265 OA
BRANCH   8  10
ATOM     10  C   UNL d   1     -46.113  11.935  23.051  0.00  0.00     0.216 A 
ATOM     11  N   UNL d   1     -45.436  11.779  22.614  0.00  0.00    -0.200 NA
ATOM     12  C   UNL d   1     -45.025  11.173  22.994  0.00  0.00     0.175 A 
ATOM     13  N   UNL d   1     -45.454  10.959  23.667  0.00  0.00    -0.187 NA
ATOM     14  S   UNL d   1     -46.126  11.433  23.698  0.00  0.00     0.054 SA
BRANCH  12  15
ATOM     15  C   UNL d   1     -44.314  10.841  22.747  0.00  0.00     0.082 C 
BRANCH  15  16
ATOM     16  C   UNL d   1     -43.837  10.442  23.290  0.00  0.00     0.199 C 
ATOM     17  O   UNL d   1     -43.246  10.854  23.696  0.00  0.00    -0.286 OA
ATOM     18  C   UNL d   1     -43.949   9.637  23.427  0.00  0.00     0.045 C 
ENDBRANCH  15  16
ENDBRANCH  12  15
ENDBRANCH   8  10
ENDBRANCH   1   7
BRANCH   3  19
ATOM     19  C   UNL d   1     -49.176  14.550  22.705  0.00  0.00     0.023 A 
ATOM     20  C   UNL d   1     -49.601  14.206  22.083  0.00  0.00     0.006 A 
ATOM     21  C   UNL d   1     -50.411  14.335  22.019  0.00  0.00     0.071 A 
ATOM     22  C   UNL d   1     -50.802  14.806  22.572  0.00  0.00     0.004 A 
ATOM     23  C   UNL d   1     -50.378  15.150  23.193  0.00  0.00     0.000 A 
ATOM     24  C   UNL d   1     -49.565  15.021  23.258  0.00  0.00     0.002 A 
BRANCH  21  25
ATOM     25  C   UNL d   1     -50.835  13.991  21.399  0.00  0.00     0.419 C 
ATOM     26  F   UNL d   1     -51.064  14.449  20.751  0.00  0.00    -0.166 F 
ATOM     27  F   UNL d   1     -51.031  13.190  21.425  0.00  0.00    -0.166 F 
ATOM     28  F   UNL d   1     -50.745  14.780  21.183  0.00  0.00    -0.166 F 
ENDBRANCH  21  25
ENDBRANCH   3  19
TORSDOF 6
ENDMDL
MODEL 2
REMARK VINA RESULT:      -6.8      1.918      2.281
REMARK  6 active torsions:
REMARK  status: ('A' for Active; 'I' for Inactive)
REMARK    1  A    between atoms: C_4  and  C_1 
REMARK    2  A    between atoms: C_3  and  N_8 
REMARK       I    between atoms: N_8  and  C_4 
REMARK    3  A    between atoms: C_14  and  C_6 
REMARK    4  A    between atoms: C_15  and  C_10 
REMARK    5  A    between atoms: C_12  and  C_16 
REMARK    6  A    between atoms: C_19  and  C_15 
ROOT
ATOM      1  C   UNL d   1     -46.650  13.341  22.684  0.00  0.00     0.083 A 
ATOM      2  C   UNL d   1     -47.268  12.798  22.669  0.00  0.00     0.032 A 
ATOM      3  C   UNL d   1     -47.976  13.214  22.738  0.00  0.00     0.100 A 
ATOM      4  C   UNL d   1     -46.976  14.096  22.764  0.00  0.00     0.105 A 
ATOM      5  O   UNL d   1     -47.796  14.018  22.797  0.00  0.00    -0.307 OA
ATOM      6  C   UNL d   1     -46.558  14.805  22.803  0.00  0.00     0.027 C 
ENDROOT
BRANCH   1   7
ATOM      7  C   UNL d   1     -45.847  13.162  22.630  0.00  0.00     0.283 C 
ATOM      8  N   UNL d   1     -45.535  12.883  21.916  0.00  0.00    -0.181 NA
ATOM      9  O   UNL d   1     -45.359  13.259  23.281  0.00  0.00    -0.265 OA
BRANCH   8  10
ATOM     10  C   UNL d   1     -44.732  12.703  21.860  0.00  0.00     0.216 A 
ATOM     11  N   UNL d   1     -44.206  13.019  21.315  0.00  0.00    -0.200 NA
ATOM     12  C   UNL d   1     -43.465  12.687  21.460  0.00  0.00     0.175 A 
ATOM     13  N   UNL d   1     -43.540  12.166  22.096  0.00  0.00    -0.187 NA
ATOM     14  S   UNL d   1     -44.326  12.180  22.340  0.00  0.00     0.054 SA
BRANCH  12  15
ATOM     15  C   UNL d   1     -42.773  12.847  21.043  0.00  0.00     0.082 C 
BRANCH  15  16
ATOM     16  C   UNL d   1     -42.211  13.360  21.363  0.00  0.00     0.199 C 
ATOM     17  O   UNL d   1     -41.745  13.110  21.999  0.00  0.00    -0.286 OA
ATOM     18  C   UNL d   1     -42.114  14.116  21.050  0.00  0.00     0.045 C 
ENDBRANCH  15  16
ENDBRANCH  12  15
ENDBRANCH   8  10
ENDBRANCH   1   7
BRANCH   3  19
ATOM     19  C   UNL d   1     -48.734  12.882  22.747  0.00  0.00     0.023 A 
ATOM     20  C   UNL d   1     -49.282  13.072  22.156  0.00  0.00     0.006 A 
ATOM     21  C   UNL d   1     -50.034  12.737  22.172  0.00  0.00     0.071 A 
ATOM     22  C   UNL d   1     -50.244  12.215  22.774  0.00  0.00     0.004 A 
ATOM     23  C   UNL d   1     -49.696  12.026  23.365  0.00  0.00     0.000 A 
ATOM     24  C   UNL d   1     -48.942  12.360  23.350  0.00  0.00     0.002 A 
BRANCH  21  25
ATOM     25  C   UNL d   1     -50.581  12.926  21.582  0.00  0.00     0.419 C 
ATOM     26  F   UNL d   1     -50.658  12.440  20.919  0.00  0.00    -0.166 F 
ATOM     27  F   UNL d   1     -51.051  13.601  21.654  0.00  0.00    -0.166 F 
ATOM     28  F   UNL d   1     -50.222  12.232  21.325  0.00  0.00    -0.166 F 
ENDBRANCH  21  25
ENDBRANCH   3  19
TORSDOF 6
ENDMDL
MODEL 3
REMARK VINA RESULT:      -6.2      2.320      2.784
REMARK  6 active torsions:
REMARK  status: ('A' for Active; 'I' for Inactive)
REMARK    1  A    between atoms: C_4  and  C_1 
REMARK    2  A    between atoms: C_3  and  N_8 
REMARK       I    between atoms: N_8  and  C_4 
REMARK    3  A    between atoms: C_14  and  C_6 
REMARK    4  A    between atoms: C_15  and  C_10 
REMARK    5  A    between atoms: C_12  and  C_16 
REMARK    6  A    between atoms: C_19  and  C_15 
ROOT
ATOM      1  C   UNL d   1     -45.974  12.890  22.647  0.00  0.00     0.083 A 
ATOM      2  C   UNL d   1     -46.470  13.464  22.330  0.00  0.00     0.032 A 
ATOM      3  C   UNL d   1     -47.201  13.406  22.708  0.00  0.00     0.100 A 
ATOM      4  C   UNL d   1     -46.397  12.474  23.221  0.00  0.00     0.105 A 
ATOM      5  O   UNL d   1     -47.156  12.793  23.260  0.00  0.00    -0.307 OA
ATOM      6  C   UNL d   1     -46.114  11.850  23.678  0.00  0.00     0.027 C 
ENDROOT
BRANCH   1   7
ATOM      7  C   UNL d   1     -45.190  12.754  22.427  0.00  0.00     0.283 C 
ATOM      8  N   UNL d   1     -44.841  13.220  21.839  0.00  0.00    -0.181 NA
ATOM      9  O   UNL d   1     -44.758  12.159  22.791  0.00  0.00    -0.265 OA
BRANCH   8  10
ATOM     10  C   UNL d   1     -44.058  13.085  21.619  0.00  0.00     0.216 A 
ATOM     11  N   UNL d   1     -43.425  13.586  21.764  0.00  0.00    -0.200 NA
ATOM     12  C   UNL d   1     -42.748  13.235  21.450  0.00  0.00     0.175 A 
ATOM     13  N   UNL d   1     -42.970  12.515  21.111  0.00  0.00    -0.187 NA
ATOM     14  S   UNL d   1     -43.781  12.427  21.219  0.00  0.00     0.054 SA
BRANCH  12  15
ATOM     15  C   UNL d   1     -41.987  13.547  21.470  0.00  0.00     0.082 C 
BRANCH  15  16
ATOM     16  C   UNL d   1     -41.708  13.992  20.833  0.00  0.00     0.199 C 
ATOM     17  O   UNL d   1     -41.558  13.619  20.110  0.00  0.00    -0.286 OA
ATOM     18  C   UNL d   1     -41.582  14.801  20.916  0.00  0.00     0.045 C 
ENDBRANCH  15  16
ENDBRANCH  12  15
ENDBRANCH   8  10
ENDBRANCH   1   7
BRANCH   3  19
ATOM     19  C   UNL d   1     -47.863  13.879  22.558  0.00  0.00     0.023 A 
ATOM     20  C   UNL d   1     -48.552  13.549  22.241  0.00  0.00     0.006 A 
ATOM     21  C   UNL d   1     -49.207  14.027  22.095  0.00  0.00     0.071 A 
ATOM     22  C   UNL d   1     -49.178  14.834  22.262  0.00  0.00     0.004 A 
ATOM     23  C   UNL d   1     -48.488  15.164  22.579  0.00  0.00     0.000 A 
ATOM     24  C   UNL d   1     -47.832  14.686  22.726  0.00  0.00     0.002 A 
BRANCH  21  25
ATOM     25  C   UNL d   1     -49.895  13.697  21.779  0.00  0.00     0.419 C 
ATOM     26  F   UNL d   1     -50.043  13.747  20.967  0.00  0.00    -0.166 F 
ATOM     27  F   UNL d   1     -50.436  13.317  22.272  0.00  0.00    -0.166 F 
ATOM     28  F   UNL d   1     -49.500  14.021  21.134  0.00  0.00    -0.166 F 
ENDBRANCH  21  25
ENDBRANCH   3  19
TORSDOF 6
ENDMDL
MODEL 4
REMARK VINA RESULT:      -5.5      3.757      4.659
REMARK  6 active torsions:
REMARK  status: ('A' for Active; 'I' for Inactive)
REMARK    1  A    between atoms: C_4  and  C_1 
REMARK    2  A    between atoms: C_3  and  N_8 
REMARK       I    between atoms: N_8  and  C_4 
REMARK    3  A    between atoms: C_14  and  C_6 
REMARK    4  A    between atoms: C_15  and  C_10 
REMARK    5  A    between atoms: C_12  and  C_16 
REMARK    6  A    between atoms: C_19  and  C_15 
ROOT
ATOM      1  C   UNL d   1     -43.817  12.894  21.729  0.00  0.00     0.083 A 
ATOM      2  C   UNL d   1     -44.499  13.353  21.715  0.00  0.00     0.032 A 
ATOM      3  C   UNL d   1     -45.058  12.996  22.205  0.00  0.00     0.100 A 
ATOM      4  C   UNL d   1     -43.953  12.250  22.228  0.00  0.00     0.105 A 
ATOM      5  O   UNL d   1     -44.720  12.312  22.523  0.00  0.00    -0.307 OA
ATOM      6  C   UNL d   1     -43.417  11.649  22.403  0.00  0.00     0.027 C 
ENDROOT
BRANCH   1   7
ATOM      7  C   UNL d   1     -43.120  13.051  21.316  0.00  0.00     0.283 C 
ATOM      8  N   UNL d   1     -42.657  13.704  21.524  0.00  0.00    -0.181 NA
ATOM      9  O   UNL d   1     -42.887  12.560  20.702  0.00  0.00    -0.265 OA
BRANCH   8  10
ATOM     10  C   UNL d   1     -41.960  13.861  21.112  0.00  0.00     0.216 A 
ATOM     11  N   UNL d   1     -41.900  14.296  20.418  0.00  0.00    -0.200 NA
ATOM     12  C   UNL d   1     -41.105  14.313  20.200  0.00  0.00     0.175 A 
ATOM     13  N   UNL d   1     -40.678  13.887  20.764  0.00  0.00    -0.187 NA
ATOM     14  S   UNL d   1     -41.212  13.610  21.326  0.00  0.00     0.054 SA
BRANCH  12  15
ATOM     15  C   UNL d   1     -40.793  14.689  19.538  0.00  0.00     0.082 C 
BRANCH  15  16
ATOM     16  C   UNL d   1     -40.482  14.239  18.919  0.00  0.00     0.199 C 
ATOM     17  O   UNL d   1     -40.995  13.877  18.381  0.00  0.00    -0.286 OA
ATOM     18  C   UNL d   1     -39.667  14.152  18.839  0.00  0.00     0.045 C 
ENDBRANCH  15  16
ENDBRANCH  12  15
ENDBRANCH   8  10
ENDBRANCH   1   7
BRANCH   3  19
ATOM     19  C   UNL d   1     -45.823  13.275  22.351  0.00  0.00     0.023 A 
ATOM     20  C   UNL d   1     -46.483  12.839  22.103  0.00  0.00     0.006 A 
ATOM     21  C   UNL d   1     -47.241  13.124  22.252  0.00  0.00     0.071 A 
ATOM     22  C   UNL d   1     -47.347  13.840  22.646  0.00  0.00     0.004 A 
ATOM     23  C   UNL d   1     -46.687  14.275  22.893  0.00  0.00     0.000 A 
ATOM     24  C   UNL d   1     -45.927  13.991  22.745  0.00  0.00     0.002 A 
BRANCH  21  25
ATOM     25  C   UNL d   1     -47.899  12.689  22.006  0.00  0.00     0.419 C 
ATOM     26  F   UNL d   1     -48.302  12.903  21.317  0.00  0.00    -0.166 F 
ATOM     27  F   UNL d   1     -48.155  12.041  22.446  0.00  0.00    -0.166 F 
ATOM     28  F   UNL d   1     -47.811  13.281  21.440  0.00  0.00    -0.166 F 
ENDBRANCH  21  25
ENDBRANCH   3  19
TORSDOF 6
ENDMDL
MODEL 5
REMARK VINA RESULT:      -5.3      6.440      8.185
REMARK  6 active torsions:
REMARK  status: ('A' for Active; 'I' for Inactive)
REMARK    1  A    between atoms: C_4  and  C_1 
REMARK    2  A    between atoms: C_3  and  N_8 
REMARK       I    between atoms: N_8  and  C_4 
REMARK    3  A    between atoms: C_14  and  C_6 
REMARK    4  A    between atoms: C_15  and  C_10 
REMARK    5  A    between atoms: C_12  and  C_16 
REMARK    6  A    between atoms: C_19  and  C_15 
ROOT
ATOM      1  C   UNL d   1     -41.377  14.012  20.490  0.00  0.00     0.083 A 
ATOM      2  C   UNL d   1     -41.314  13.979  19.671  0.00  0.00     0.032 A 
ATOM      3  C   UNL d   1     -40.569  14.261  19.460  0.00  0.00     0.100 A 
ATOM      4  C   UNL d   1     -40.669  14.315  20.789  0.00  0.00     0.105 A 
ATOM      5  O   UNL d   1     -40.169  14.469  20.152  0.00  0.00    -0.307 OA
ATOM      6  C   UNL d   1     -40.491  14.442  21.583  0.00  0.00     0.027 C 
ENDROOT
BRANCH   1   7
ATOM      7  C   UNL d   1     -42.034  13.782  20.935  0.00  0.00     0.283 C 
ATOM      8  N   UNL d   1     -42.387  13.047  20.796  0.00  0.00    -0.181 NA
ATOM      9  O   UNL d   1     -42.335  14.281  21.512  0.00  0.00    -0.265 OA
BRANCH   8  10
ATOM     10  C   UNL d   1     -43.043  12.817  21.240  0.00  0.00     0.216 A 
ATOM     11  N   UNL d   1     -43.818  13.053  21.110  0.00  0.00    -0.200 NA
ATOM     12  C   UNL d   1     -44.290  12.692  21.681  0.00  0.00     0.175 A 
ATOM     13  N   UNL d   1     -43.801  12.233  22.162  0.00  0.00    -0.187 NA
ATOM     14  S   UNL d   1     -43.030  12.313  21.885  0.00  0.00     0.054 SA
BRANCH  12  15
ATOM     15  C   UNL d   1     -45.106  12.775  21.758  0.00  0.00     0.082 C 
BRANCH  15  16
ATOM     16  C   UNL d   1     -45.423  13.077  22.457  0.00  0.00     0.199 C 
ATOM     17  O   UNL d   1     -45.424  12.611  23.140  0.00  0.00    -0.286 OA
ATOM     18  C   UNL d   1     -45.737  13.839  22.475  0.00  0.00     0.045 C 
ENDBRANCH  15  16
ENDBRANCH  12  15
ENDBRANCH   8  10
ENDBRANCH   1   7
BRANCH   3  19
ATOM     19  C   UNL d   1     -40.275  14.323  18.690  0.00  0.00     0.023 A 
ATOM     20  C   UNL d   1     -39.637  13.855  18.444  0.00  0.00     0.006 A 
ATOM     21  C   UNL d   1     -39.350  13.923  17.676  0.00  0.00     0.071 A 
ATOM     22  C   UNL d   1     -39.695  14.455  17.149  0.00  0.00     0.004 A 
ATOM     23  C   UNL d   1     -40.332  14.924  17.394  0.00  0.00     0.000 A 
ATOM     24  C   UNL d   1     -40.621  14.856  18.164  0.00  0.00     0.002 A 
BRANCH  21  25
ATOM     25  C   UNL d   1     -38.715  13.456  17.431  0.00  0.00     0.419 C 
ATOM     26  F   UNL d   1     -38.852  12.726  17.070  0.00  0.00    -0.166 F 
ATOM     27  F   UNL d   1     -37.940  13.718  17.547  0.00  0.00    -0.166 F 
ATOM     28  F   UNL d   1     -39.385  13.025  17.228  0.00  0.00    -0.166 F 
ENDBRANCH  21  25
ENDBRANCH   3  19
TORSDOF 6
ENDMDL
MODEL 6
REMARK VINA RESULT:      -5.1      4.799      6.631
REMARK  6 active torsions:
REMARK  status: ('A' for Active; 'I' for Inactive)
REMARK    1  A    between atoms: C_4  and  C_1 
REMARK    2  A    between atoms: C_3  and  N_8 
REMARK       I    between atoms: N_8  and  C_4 
REMARK    3  A    between atoms: C_14  and  C_6 
REMARK    4  A    between atoms: C_15  and  C_10 
REMARK    5  A    between atoms: C_12  and  C_16 
REMARK    6  A    between atoms: C_19  and  C_15 
ROOT
ATOM      1  C   UNL d   1     -43.466  13.063  21.519  0.00  0.00     0.083 A 
ATOM      2  C   UNL d   1     -43.123  13.718  21.160  0.00  0.00     0.032 A 
ATOM      3  C   UNL d   1     -42.312  13.582  21.102  0.00  0.00     0.100 A 
ATOM      4  C   UNL d   1     -42.867  12.519  21.684  0.00  0.00     0.105 A 
ATOM      5  O   UNL d   1     -42.153  12.839  21.426  0.00  0.00    -0.307 OA
ATOM      6  C   UNL d   1     -42.963  11.783  22.043  0.00  0.00     0.027 C 
ENDROOT
BRANCH   1   7
ATOM      7  C   UNL d   1     -44.269  12.967  21.685  0.00  0.00     0.283 C 
ATOM      8  N   UNL d   1     -44.609  13.375  22.320  0.00  0.00    -0.181 NA
ATOM      9  O   UNL d   1     -44.728  12.469  21.223  0.00  0.00    -0.265 OA
BRANCH   8  10
ATOM     10  C   UNL d   1     -45.411  13.280  22.486  0.00  0.00     0.216 A 
ATOM     11  N   UNL d   1     -45.724  12.862  23.119  0.00  0.00    -0.200 NA
ATOM     12  C   UNL d   1     -46.546  12.911  23.072  0.00  0.00     0.175 A 
ATOM     13  N   UNL d   1     -46.735  13.361  22.406  0.00  0.00    -0.187 NA
ATOM     14  S   UNL d   1     -46.030  13.587  22.047  0.00  0.00     0.054 SA
BRANCH  12  15
ATOM     15  C   UNL d   1     -47.082  12.571  23.595  0.00  0.00     0.082 C 
BRANCH  15  16
ATOM     16  C   UNL d   1     -47.348  11.800  23.467  0.00  0.00     0.199 C 
ATOM     17  O   UNL d   1     -46.876  11.162  23.698  0.00  0.00    -0.286 OA
ATOM     18  C   UNL d   1     -48.079  11.667  23.112  0.00  0.00     0.045 C 
ENDBRANCH  15  16
ENDBRANCH  12  15
ENDBRANCH   8  10
ENDBRANCH   1   7
BRANCH   3  19
ATOM     19  C   UNL d   1     -41.756  14.100  20.775  0.00  0.00     0.023 A 
ATOM     20  C   UNL d   1     -41.373  13.912  20.066  0.00  0.00     0.006 A 
ATOM     21  C   UNL d   1     -40.821  14.433  19.747  0.00  0.00     0.071 A 
ATOM     22  C   UNL d   1     -40.648  15.142  20.130  0.00  0.00     0.004 A 
ATOM     23  C   UNL d   1     -41.031  15.330  20.840  0.00  0.00     0.000 A 
ATOM     24  C   UNL d   1     -41.585  14.809  21.160  0.00  0.00     0.002 A 
BRANCH  21  25
ATOM     25  C   UNL d   1     -40.439  14.245  19.039  0.00  0.00     0.419 C 
ATOM     26  F   UNL d   1     -40.697  14.578  18.328  0.00  0.00    -0.166 F 
ATOM     27  F   UNL d   1     -39.798  13.724  19.040  0.00  0.00    -0.166 F 
ATOM     28  F   UNL d   1     -41.037  14.768  18.824  0.00  0.00    -0.166 F 
ENDBRANCH  21  25
ENDBRANCH   3  19
TORSDOF 6
ENDMDL
