MODEL 1
REMARK VINA RESULT:       3.6      0.000      0.000
REMARK  7 active torsions:
REMARK  status: ('A' for Active; 'I' for Inactive)
REMARK    1  A    between atoms: C_16  and  N_3 
REMARK    2  A    between atoms: C_15  and  N_8 
REMARK    3  A    between atoms: C_12  and  C_10 
REMARK    4  A    between atoms: C_11  and  N_14 
REMARK    5  A    between atoms: O_22  and  C_12 
REMARK    6  A    between atoms: C_13  and  C_15 
REMARK       I    between atoms: N_14  and  C_13 
REMARK    7  A    between atoms: C_28  and  O_22 
ROOT
ATOM      1  C   UNL d   1     -42.433-122.392 -50.215  0.00  0.00     0.191 A 
ATOM      2  C   UNL d   1     -43.039-122.216 -50.758  0.00  0.00     0.196 A 
ATOM      3  N   UNL d   1     -42.795-122.636 -49.509  0.00  0.00    -0.193 N 
ATOM      4  N   UNL d   1     -43.605-122.609 -49.622  0.00  0.00    -0.058 NA
ATOM      5  N   UNL d   1     -43.762-122.356 -50.375  0.00  0.00    -0.122 NA
ATOM      6  N   UNL d   1     -41.652-122.305 -50.438  0.00  0.00    -0.204 NA
ATOM      7  C   UNL d   1     -42.848-121.960 -51.509  0.00  0.00     0.289 A 
ATOM      8  N   UNL d   1     -42.062-121.871 -51.739  0.00  0.00    -0.249 N 
ATOM      9  C   UNL d   1     -41.455-122.046 -51.195  0.00  0.00     0.187 A 
ATOM     10  O   UNL d   1     -43.454-121.784 -52.052  0.00  0.00    -0.265 OA
ENDROOT
BRANCH   8  11
ATOM     11  C   UNL d   1     -41.858-121.610 -52.501  0.00  0.00     0.147 C 
BRANCH  11  12
ATOM     12  C   UNL d   1     -41.650-122.156 -53.092  0.00  0.00     0.297 C 
ATOM     13  N   UNL d   1     -41.888-122.022 -53.867  0.00  0.00    -0.207 NA
ATOM     14  O   UNL d   1     -41.208-122.825 -52.896  0.00  0.00    -0.264 OA
BRANCH  13  15
ATOM     15  C   UNL d   1     -41.683-122.561 -54.460  0.00  0.00     0.090 A 
ATOM     16  C   UNL d   1     -41.836-122.380 -55.239  0.00  0.00     0.081 A 
ATOM     17  C   UNL d   1     -41.632-122.920 -55.832  0.00  0.00     0.007 A 
ATOM     18  C   UNL d   1     -41.276-123.636 -55.632  0.00  0.00     0.000 A 
ATOM     19  C   UNL d   1     -41.123-123.817 -54.854  0.00  0.00     0.002 A 
ATOM     20  C   UNL d   1     -41.326-123.280 -54.268  0.00  0.00     0.019 A 
BRANCH  16  21
ATOM     21  C   UNL d   1     -42.193-121.663 -55.439  0.00  0.00     0.302 C 
ATOM     22  O   UNL d   1     -42.913-121.450 -55.091  0.00  0.00    -0.259 OA
BRANCH  21  23
ATOM     23  O   UNL d   1     -41.829-121.161 -55.986  0.00  0.00    -0.271 OA
BRANCH  23  24
ATOM     24  C   UNL d   1     -42.121-121.105 -56.759  0.00  0.00     0.126 C 
ATOM     25  C   UNL d   1     -41.921-120.462 -57.227  0.00  0.00     0.029 C 
ENDBRANCH  23  24
ENDBRANCH  21  23
ENDBRANCH  16  21
ENDBRANCH  13  15
ENDBRANCH  11  12
ENDBRANCH   8  11
BRANCH   3  26
ATOM     26  C   UNL d   1     -42.451-122.866 -48.816  0.00  0.00     0.086 A 
ATOM     27  C   UNL d   1     -42.557-122.409 -48.120  0.00  0.00     0.019 A 
ATOM     28  C   UNL d   1     -42.209-122.645 -47.428  0.00  0.00     0.002 A 
ATOM     29  C   UNL d   1     -41.743-123.346 -47.400  0.00  0.00     0.000 A 
ATOM     30  C   UNL d   1     -41.646-123.783 -48.078  0.00  0.00     0.002 A 
ATOM     31  C   UNL d   1     -41.379-123.597 -46.677  0.00  0.00     0.000 C 
ATOM     32  C   UNL d   1     -41.994-123.553 -48.787  0.00  0.00     0.019 A 
ENDBRANCH   3  26
TORSDOF 7
ENDMDL
MODEL 2
REMARK VINA RESULT:       4.1      1.501      6.341
REMARK  7 active torsions:
REMARK  status: ('A' for Active; 'I' for Inactive)
REMARK    1  A    between atoms: C_16  and  N_3 
REMARK    2  A    between atoms: C_15  and  N_8 
REMARK    3  A    between atoms: C_12  and  C_10 
REMARK    4  A    between atoms: C_11  and  N_14 
REMARK    5  A    between atoms: O_22  and  C_12 
REMARK    6  A    between atoms: C_13  and  C_15 
REMARK       I    between atoms: N_14  and  C_13 
REMARK    7  A    between atoms: C_28  and  O_22 
ROOT
ATOM      1  C   UNL d   1     -41.622-122.502 -53.620  0.00  0.00     0.191 A 
ATOM      2  C   UNL d   1     -41.387-123.160 -53.167  0.00  0.00     0.196 A 
ATOM      3  N   UNL d   1     -41.591-122.725 -54.418  0.00  0.00    -0.193 N 
ATOM      4  N   UNL d   1     -41.342-123.504 -54.450  0.00  0.00    -0.058 NA
ATOM      5  N   UNL d   1     -41.216-123.775 -53.697  0.00  0.00    -0.122 NA
ATOM      6  N   UNL d   1     -41.827-121.805 -53.246  0.00  0.00    -0.204 NA
ATOM      7  C   UNL d   1     -41.363-123.104 -52.354  0.00  0.00     0.289 A 
ATOM      8  N   UNL d   1     -41.569-122.403 -51.971  0.00  0.00    -0.249 N 
ATOM      9  C   UNL d   1     -41.804-121.745 -52.424  0.00  0.00     0.187 A 
ATOM     10  O   UNL d   1     -41.128-123.762 -51.901  0.00  0.00    -0.265 OA
ENDROOT
BRANCH   8  11
ATOM     11  C   UNL d   1     -41.548-122.338 -51.143  0.00  0.00     0.147 C 
BRANCH  11  12
ATOM     12  C   UNL d   1     -42.205-122.560 -50.685  0.00  0.00     0.297 C 
ATOM     13  N   UNL d   1     -42.087-122.860 -49.930  0.00  0.00    -0.207 NA
ATOM     14  O   UNL d   1     -42.966-122.478 -50.993  0.00  0.00    -0.264 OA
BRANCH  13  15
ATOM     15  C   UNL d   1     -42.737-123.083 -49.469  0.00  0.00     0.090 A 
ATOM     16  C   UNL d   1     -42.663-123.117 -48.659  0.00  0.00     0.081 A 
ATOM     17  C   UNL d   1     -43.313-123.340 -48.198  0.00  0.00     0.007 A 
ATOM     18  C   UNL d   1     -44.031-123.526 -48.560  0.00  0.00     0.000 A 
ATOM     19  C   UNL d   1     -44.104-123.492 -49.369  0.00  0.00     0.002 A 
ATOM     20  C   UNL d   1     -43.458-123.270 -49.823  0.00  0.00     0.019 A 
BRANCH  16  21
ATOM     21  C   UNL d   1     -41.946-122.931 -48.296  0.00  0.00     0.302 C 
ATOM     22  O   UNL d   1     -41.729-122.139 -48.193  0.00  0.00    -0.259 OA
BRANCH  21  23
ATOM     23  O   UNL d   1     -41.446-123.537 -48.037  0.00  0.00    -0.271 OA
BRANCH  23  24
ATOM     24  C   UNL d   1     -41.232-123.588 -47.239  0.00  0.00     0.126 C 
ATOM     25  C   UNL d   1     -41.787-123.811 -46.679  0.00  0.00     0.029 C 
ENDBRANCH  23  24
ENDBRANCH  21  23
ENDBRANCH  16  21
ENDBRANCH  13  15
ENDBRANCH  11  12
ENDBRANCH   8  11
BRANCH   3  26
ATOM     26  C   UNL d   1     -41.765-122.289 -55.075  0.00  0.00     0.086 A 
ATOM     27  C   UNL d   1     -41.148-121.979 -55.552  0.00  0.00     0.019 A 
ATOM     28  C   UNL d   1     -41.330-121.542 -56.210  0.00  0.00     0.002 A 
ATOM     29  C   UNL d   1     -42.133-121.397 -56.419  0.00  0.00     0.000 A 
ATOM     30  C   UNL d   1     -42.724-121.701 -55.952  0.00  0.00     0.002 A 
ATOM     31  C   UNL d   1     -42.327-120.940 -57.106  0.00  0.00     0.000 C 
ATOM     32  C   UNL d   1     -42.552-122.146 -55.282  0.00  0.00     0.019 A 
ENDBRANCH   3  26
TORSDOF 7
ENDMDL
