MODEL 1
REMARK VINA RESULT:      -8.2      0.000      0.000
REMARK  5 active torsions:
REMARK  status: ('A' for Active; 'I' for Inactive)
REMARK    1  A    between atoms: C_3  and  C_1 
REMARK    2  A    between atoms: S_2  and  C_3 
REMARK    3  A    between atoms: C_7  and  S_2 
REMARK    4  A    between atoms: C_9  and  C_3 
REMARK    5  A    between atoms: N_8  and  C_4 
ROOT
ATOM      1  C   UNL d   1      53.016  33.018  53.429  0.00  0.00     0.128 A 
ATOM      2  C   UNL d   1      53.022  33.519  54.084  0.00  0.00     0.166 A 
ATOM      3  N   UNL d   1      52.392  33.046  52.895  0.00  0.00    -0.240 NA
ATOM      4  N   UNL d   1      52.398  34.052  54.203  0.00  0.00    -0.225 NA
ATOM      5  C   UNL d   1      51.777  33.573  53.016  0.00  0.00     0.099 A 
ATOM      6  C   UNL d   1      51.780  34.074  53.667  0.00  0.00     0.101 A 
ATOM      7  C   UNL d   1      51.155  34.605  53.783  0.00  0.00     0.021 A 
ATOM      8  C   UNL d   1      51.152  33.599  52.479  0.00  0.00     0.021 A 
ATOM      9  C   UNL d   1      50.534  34.126  52.596  0.00  0.00     0.002 A 
ATOM     10  C   UNL d   1      50.536  34.626  53.246  0.00  0.00     0.002 A 
ENDROOT
BRANCH   1  11
ATOM     11  C   UNL d   1      53.634  32.489  53.309  0.00  0.00     0.129 C 
BRANCH  11  12
ATOM     12  S   UNL d   1      53.428  31.670  53.021  0.00  0.00     0.213 S 
ATOM     13  O   UNL d   1      53.421  32.157  52.349  0.00  0.00    -0.217 OA
ATOM     14  O   UNL d   1      53.275  31.571  52.149  0.00  0.00    -0.217 OA
BRANCH  12  15
ATOM     15  C   UNL d   1      53.343  30.935  53.402  0.00  0.00     0.088 A 
ATOM     16  C   UNL d   1      52.594  30.601  53.490  0.00  0.00     0.011 A 
ATOM     17  C   UNL d   1      52.505  29.869  53.869  0.00  0.00     0.001 A 
ATOM     18  C   UNL d   1      51.757  29.535  53.958  0.00  0.00     0.000 C 
ATOM     19  C   UNL d   1      53.175  29.477  54.158  0.00  0.00     0.000 A 
ATOM     20  C   UNL d   1      53.929  29.816  54.068  0.00  0.00     0.001 A 
ATOM     21  C   UNL d   1      53.095  28.752  54.534  0.00  0.00     0.000 C 
ATOM     22  C   UNL d   1      54.010  30.545  53.689  0.00  0.00     0.011 A 
ENDBRANCH  12  15
ENDBRANCH  11  12
BRANCH  11  23
ATOM     23  C   UNL d   1      54.483  32.593  53.417  0.00  0.00     0.135 C 
ATOM     24  N   UNL d   1      55.105  32.698  52.791  0.00  0.00    -0.146 N 
ENDBRANCH  11  23
ENDBRANCH   1  11
BRANCH   2  25
ATOM     25  N   UNL d   1      53.658  33.484  54.620  0.00  0.00    -0.288 N 
ATOM     26  C   UNL d   1      54.372  33.898  54.557  0.00  0.00     0.082 A 
ATOM     27  C   UNL d   1      54.845  33.693  55.218  0.00  0.00     0.021 A 
ATOM     28  C   UNL d   1      54.416  33.152  55.687  0.00  0.00     0.021 A 
ATOM     29  C   UNL d   1      53.677  33.020  55.316  0.00  0.00     0.082 A 
ENDBRANCH   2  25
TORSDOF 5
ENDMDL
MODEL 2
REMARK VINA RESULT:      -7.4      0.930      3.432
REMARK  5 active torsions:
REMARK  status: ('A' for Active; 'I' for Inactive)
REMARK    1  A    between atoms: C_3  and  C_1 
REMARK    2  A    between atoms: S_2  and  C_3 
REMARK    3  A    between atoms: C_7  and  S_2 
REMARK    4  A    between atoms: C_9  and  C_3 
REMARK    5  A    between atoms: N_8  and  C_4 
ROOT
ATOM      1  C   UNL d   1      53.547  31.997  53.709  0.00  0.00     0.128 A 
ATOM      2  C   UNL d   1      53.783  31.946  54.498  0.00  0.00     0.166 A 
ATOM      3  N   UNL d   1      53.266  31.331  53.320  0.00  0.00    -0.240 NA
ATOM      4  N   UNL d   1      53.735  31.221  54.898  0.00  0.00    -0.225 NA
ATOM      5  C   UNL d   1      53.220  30.617  53.718  0.00  0.00     0.099 A 
ATOM      6  C   UNL d   1      53.453  30.562  54.504  0.00  0.00     0.101 A 
ATOM      7  C   UNL d   1      53.404  29.836  54.900  0.00  0.00     0.021 A 
ATOM      8  C   UNL d   1      52.936  29.949  53.325  0.00  0.00     0.021 A 
ATOM      9  C   UNL d   1      52.889  29.232  53.720  0.00  0.00     0.002 A 
ATOM     10  C   UNL d   1      53.122  29.176  54.505  0.00  0.00     0.002 A 
ENDROOT
BRANCH   1  11
ATOM     11  C   UNL d   1      53.594  32.715  53.311  0.00  0.00     0.129 C 
BRANCH  11  12
ATOM     12  S   UNL d   1      52.900  32.953  52.804  0.00  0.00     0.213 S 
ATOM     13  O   UNL d   1      53.370  32.459  52.330  0.00  0.00    -0.217 OA
ATOM     14  O   UNL d   1      52.873  32.632  51.973  0.00  0.00    -0.217 OA
BRANCH  12  15
ATOM     15  C   UNL d   1      52.234  33.434  52.937  0.00  0.00     0.088 A 
ATOM     16  C   UNL d   1      51.504  33.090  53.104  0.00  0.00     0.011 A 
ATOM     17  C   UNL d   1      50.838  33.566  53.237  0.00  0.00     0.001 A 
ATOM     18  C   UNL d   1      50.108  33.223  53.404  0.00  0.00     0.000 C 
ATOM     19  C   UNL d   1      50.914  34.390  53.200  0.00  0.00     0.000 A 
ATOM     20  C   UNL d   1      51.651  34.735  53.031  0.00  0.00     0.001 A 
ATOM     21  C   UNL d   1      50.259  34.868  53.330  0.00  0.00     0.000 C 
ATOM     22  C   UNL d   1      52.310  34.254  52.899  0.00  0.00     0.011 A 
ENDBRANCH  12  15
ENDBRANCH  11  12
BRANCH  11  23
ATOM     23  C   UNL d   1      54.225  33.302  53.297  0.00  0.00     0.135 C 
ATOM     24  N   UNL d   1      54.879  33.387  52.701  0.00  0.00    -0.146 N 
ENDBRANCH  11  23
ENDBRANCH   1  11
BRANCH   2  25
ATOM     25  N   UNL d   1      54.067  32.626  54.885  0.00  0.00    -0.288 N 
ATOM     26  C   UNL d   1      54.831  32.939  54.823  0.00  0.00     0.082 A 
ATOM     27  C   UNL d   1      54.867  33.622  55.307  0.00  0.00     0.021 A 
ATOM     28  C   UNL d   1      54.121  33.727  55.666  0.00  0.00     0.021 A 
ATOM     29  C   UNL d   1      53.621  33.107  55.404  0.00  0.00     0.082 A 
ENDBRANCH   2  25
TORSDOF 5
ENDMDL
