MODEL 1
REMARK VINA RESULT:      16.5      0.000      0.000
REMARK  4 active torsions:
REMARK  status: ('A' for Active; 'I' for Inactive)
REMARK    1  A    between atoms: C_12  and  N_3 
REMARK    2  A    between atoms: C_10  and  C_5 
REMARK       I    between atoms: N_11  and  C_10 
REMARK    3  A    between atoms: C_24  and  C_12 
REMARK    4  A    between atoms: C_25  and  N_14 
ROOT
ATOM      1  C   UNL d   1     -41.153-121.086 -52.305  0.00  0.00     0.154 A 
ATOM      2  C   UNL d   1     -41.182-120.762 -51.546  0.00  0.00     0.093 A 
ATOM      3  N   UNL d   1     -41.151-121.909 -52.230  0.00  0.00    -0.286 N 
ATOM      4  N   UNL d   1     -41.134-120.589 -52.956  0.00  0.00    -0.210 NA
ATOM      5  C   UNL d   1     -41.177-122.094 -51.432  0.00  0.00     0.122 A 
ATOM      6  C   UNL d   1     -41.191-119.944 -51.446  0.00  0.00     0.269 A 
ATOM      7  N   UNL d   1     -41.171-119.452 -52.105  0.00  0.00    -0.258 N 
ATOM      8  C   UNL d   1     -41.142-119.775 -52.864  0.00  0.00     0.152 A 
ATOM      9  C   UNL d   1     -41.197-121.385 -51.001  0.00  0.00     0.030 A 
ATOM     10  C   UNL d   1     -41.180-118.634 -52.005  0.00  0.00     0.084 A 
ATOM     11  O   UNL d   1     -41.220-119.621 -50.689  0.00  0.00    -0.266 OA
ATOM     12  C   UNL d   1     -41.123-119.278 -53.515  0.00  0.00     0.038 A 
ATOM     13  C   UNL d   1     -41.160-118.137 -52.666  0.00  0.00     0.019 A 
ATOM     14  C   UNL d   1     -41.131-118.461 -53.424  0.00  0.00     0.005 A 
ENDROOT
BRANCH   5  15
ATOM     15  C   UNL d   1     -41.184-122.854 -51.108  0.00  0.00     0.281 C 
ATOM     16  N   UNL d   1     -41.239-122.953 -50.292  0.00  0.00    -0.268 N 
ATOM     17  C   UNL d   1     -41.288-122.296 -49.801  0.00  0.00     0.102 A 
ATOM     18  C   UNL d   1     -41.246-123.716 -49.967  0.00  0.00     0.102 A 
ATOM     19  C   UNL d   1     -41.344-122.394 -48.981  0.00  0.00     0.100 A 
ATOM     20  N   UNL d   1     -41.351-123.156 -48.656  0.00  0.00    -0.300 N 
ATOM     21  C   UNL d   1     -41.301-123.817 -49.152  0.00  0.00     0.100 A 
ATOM     22  O   UNL d   1     -41.135-123.512 -51.599  0.00  0.00    -0.265 OA
BRANCH  20  23
ATOM     23  C   UNL d   1     -41.407-123.261 -47.830  0.00  0.00     0.080 C 
ATOM     24  C   UNL d   1     -42.142-123.206 -47.451  0.00  0.00     0.021 C 
ENDBRANCH  20  23
ENDBRANCH   5  15
BRANCH   3  25
ATOM     25  C   UNL d   1     -41.125-122.448 -52.856  0.00  0.00     0.082 C 
BRANCH  25  26
ATOM     26  C   UNL d   1     -41.654-122.383 -53.479  0.00  0.00     0.018 A 
ATOM     27  C   UNL d   1     -41.377-122.298 -54.252  0.00  0.00     0.002 A 
ATOM     28  C   UNL d   1     -41.906-122.232 -54.880  0.00  0.00     0.000 A 
ATOM     29  C   UNL d   1     -42.711-122.252 -54.738  0.00  0.00     0.000 A 
ATOM     30  C   UNL d   1     -42.992-122.337 -53.965  0.00  0.00     0.000 A 
ATOM     31  C   UNL d   1     -42.463-122.402 -53.337  0.00  0.00     0.002 A 
ENDBRANCH  25  26
ENDBRANCH   3  25
TORSDOF 4
ENDMDL
MODEL 2
REMARK VINA RESULT:      19.4      1.411      3.969
REMARK  4 active torsions:
REMARK  status: ('A' for Active; 'I' for Inactive)
REMARK    1  A    between atoms: C_12  and  N_3 
REMARK    2  A    between atoms: C_10  and  C_5 
REMARK       I    between atoms: N_11  and  C_10 
REMARK    3  A    between atoms: C_24  and  C_12 
REMARK    4  A    between atoms: C_25  and  N_14 
ROOT
ATOM      1  C   UNL d   1     -41.305-121.594 -51.567  0.00  0.00     0.154 A 
ATOM      2  C   UNL d   1     -41.304-121.135 -52.252  0.00  0.00     0.093 A 
ATOM      3  N   UNL d   1     -41.355-122.388 -51.794  0.00  0.00    -0.286 N 
ATOM      4  N   UNL d   1     -41.259-121.228 -50.835  0.00  0.00    -0.210 NA
ATOM      5  C   UNL d   1     -41.385-122.419 -52.612  0.00  0.00     0.122 A 
ATOM      6  C   UNL d   1     -41.259-120.314 -52.199  0.00  0.00     0.269 A 
ATOM      7  N   UNL d   1     -41.214-119.954 -51.460  0.00  0.00    -0.258 N 
ATOM      8  C   UNL d   1     -41.214-120.413 -50.775  0.00  0.00     0.152 A 
ATOM      9  C   UNL d   1     -41.355-121.643 -52.904  0.00  0.00     0.030 A 
ATOM     10  C   UNL d   1     -41.168-119.133 -51.407  0.00  0.00     0.084 A 
ATOM     11  O   UNL d   1     -41.259-119.854 -52.883  0.00  0.00    -0.266 OA
ATOM     12  C   UNL d   1     -41.168-120.047 -50.043  0.00  0.00     0.038 A 
ATOM     13  C   UNL d   1     -41.123-118.769 -50.666  0.00  0.00     0.019 A 
ATOM     14  C   UNL d   1     -41.123-119.229 -49.980  0.00  0.00     0.005 A 
ENDROOT
BRANCH   5  15
ATOM     15  C   UNL d   1     -41.438-123.104 -53.071  0.00  0.00     0.281 C 
ATOM     16  N   UNL d   1     -41.783-123.073 -53.818  0.00  0.00    -0.268 N 
ATOM     17  C   UNL d   1     -42.075-122.360 -54.107  0.00  0.00     0.102 A 
ATOM     18  C   UNL d   1     -41.836-123.760 -54.279  0.00  0.00     0.102 A 
ATOM     19  C   UNL d   1     -42.422-122.328 -54.856  0.00  0.00     0.100 A 
ATOM     20  N   UNL d   1     -42.475-123.015 -55.317  0.00  0.00    -0.300 N 
ATOM     21  C   UNL d   1     -42.181-123.731 -55.026  0.00  0.00     0.100 A 
ATOM     22  O   UNL d   1     -41.146-123.817 -52.783  0.00  0.00    -0.265 OA
BRANCH  20  23
ATOM     23  C   UNL d   1     -42.825-122.987 -56.075  0.00  0.00     0.080 C 
ATOM     24  C   UNL d   1     -43.016-122.259 -56.421  0.00  0.00     0.021 C 
ENDBRANCH  20  23
ENDBRANCH   5  15
BRANCH   3  25
ATOM     25  C   UNL d   1     -41.371-123.034 -51.278  0.00  0.00     0.082 C 
BRANCH  25  26
ATOM     26  C   UNL d   1     -41.969-123.104 -50.722  0.00  0.00     0.018 A 
ATOM     27  C   UNL d   1     -41.789-123.303 -49.941  0.00  0.00     0.002 A 
ATOM     28  C   UNL d   1     -42.387-123.374 -49.380  0.00  0.00     0.000 A 
ATOM     29  C   UNL d   1     -43.165-123.247 -49.596  0.00  0.00     0.000 A 
ATOM     30  C   UNL d   1     -43.349-123.047 -50.377  0.00  0.00     0.000 A 
ATOM     31  C   UNL d   1     -42.751-122.976 -50.939  0.00  0.00     0.002 A 
ENDBRANCH  25  26
ENDBRANCH   3  25
TORSDOF 4
ENDMDL
