MODEL 1
REMARK VINA RESULT:       2.8      0.000      0.000
REMARK  9 active torsions:
REMARK  status: ('A' for Active; 'I' for Inactive)
REMARK    1  A    between atoms: C_3  and  C_1 
REMARK    2  A    between atoms: N_5  and  C_2 
REMARK    3  A    between atoms: N_4  and  C_3 
REMARK    4  A    between atoms: C_14  and  C_3 
REMARK    5  A    between atoms: C_12  and  N_4 
REMARK       I    between atoms: C_6  and  N_5 
REMARK    6  A    between atoms: C_9  and  C_6 
REMARK    7  A    between atoms: C_7  and  C_12 
REMARK       I    between atoms: N_16  and  C_7 
REMARK    8  A    between atoms: N_8  and  C_17 
REMARK    9  A    between atoms: C_17  and  C_9 
ROOT
ATOM      1  C   UNL d   1      58.416  -0.102  29.907  0.00  0.00     0.036 A 
ATOM      2  C   UNL d   1      58.189   0.193  30.644  0.00  0.00     0.086 A 
ATOM      3  C   UNL d   1      57.904   0.002  29.247  0.00  0.00     0.010 A 
ATOM      4  C   UNL d   1      57.471   0.587  30.748  0.00  0.00     0.020 A 
ATOM      5  C   UNL d   1      57.187   0.396  29.351  0.00  0.00     0.035 A 
ATOM      6  C   UNL d   1      56.981   0.682  30.092  0.00  0.00     0.008 A 
ATOM      7 BR   UNL d   1      56.697   0.496  28.718  0.00  0.00    -0.049 Br
ENDROOT
BRANCH   1   8
ATOM      8  C   UNL d   1      59.155  -0.511  29.788  0.00  0.00     0.083 C 
BRANCH   8   9
ATOM      9  N   UNL d   1      59.172  -1.319  29.962  0.00  0.00    -0.239 NA
BRANCH   9  10
ATOM     10  C   UNL d   1      59.180  -1.888  29.377  0.00  0.00     0.163 C 
BRANCH  10  11
ATOM     11  C   UNL d   1      59.363  -2.669  29.565  0.00  0.00     0.317 C 
ATOM     12  O   UNL d   1      58.843  -3.090  30.025  0.00  0.00    -0.262 OA
ATOM     13  N   UNL d   1      60.061  -3.007  29.286  0.00  0.00    -0.083 NA
ATOM     14  N   UNL d   1      60.220  -3.790  29.488  0.00  0.00    -0.019 N 
ENDBRANCH  10  11
ENDBRANCH   9  10
ENDBRANCH   8   9
BRANCH   8  15
ATOM     15  C   UNL d   1      59.803  -0.124  29.519  0.00  0.00     0.018 A 
ATOM     16  C   UNL d   1      59.833   0.114  28.730  0.00  0.00     0.002 A 
ATOM     17  C   UNL d   1      60.500   0.512  28.455  0.00  0.00     0.000 A 
ATOM     18  C   UNL d   1      61.133   0.680  28.938  0.00  0.00     0.000 A 
ATOM     19  C   UNL d   1      61.109   0.440  29.746  0.00  0.00     0.000 A 
ATOM     20  C   UNL d   1      60.433   0.035  30.028  0.00  0.00     0.002 A 
ENDBRANCH   8  15
ENDBRANCH   1   8
BRANCH   2  21
ATOM     21  N   UNL d   1      58.700   0.085  31.288  0.00  0.00    -0.208 NA
ATOM     22  C   UNL d   1      58.387   0.124  32.047  0.00  0.00     0.281 C 
ATOM     23  O   UNL d   1      58.898   0.016  32.688  0.00  0.00    -0.265 OA
BRANCH  22  24
ATOM     24  C   UNL d   1      57.584   0.266  32.180  0.00  0.00     0.082 C 
BRANCH  24  25
ATOM     25  C   UNL d   1      57.302   0.346  32.938  0.00  0.00     0.085 C 
BRANCH  25  26
ATOM     26  N   UNL d   1      56.561   0.070  33.115  0.00  0.00    -0.299 N 
ATOM     27  C   UNL d   1      56.329  -0.678  32.853  0.00  0.00     0.107 A 
ATOM     28  C   UNL d   1      55.576  -0.967  33.029  0.00  0.00     0.142 A 
ATOM     29  O   UNL d   1      55.056  -0.496  33.472  0.00  0.00    -0.300 OA
ATOM     30  C   UNL d   1      55.288   0.242  33.729  0.00  0.00     0.142 A 
ATOM     31  C   UNL d   1      56.040   0.526  33.552  0.00  0.00     0.107 A 
ENDBRANCH  25  26
ENDBRANCH  24  25
ENDBRANCH  22  24
ENDBRANCH   2  21
TORSDOF 9
ENDMDL
