MODEL 1
REMARK VINA RESULT:       0.3      0.000      0.000
REMARK  4 active torsions:
REMARK  status: ('A' for Active; 'I' for Inactive)
REMARK    1  A    between atoms: S_3  and  N_1 
REMARK    2  A    between atoms: C_9  and  S_3 
REMARK    3  A    between atoms: C_10  and  N_5 
REMARK    4  A    between atoms: C_15  and  C_10 
ROOT
ATOM      1  N   UNL d   1      32.481  21.414 -21.673  0.00  0.00    -0.195 N 
ATOM      2  C   UNL d   1      32.669  21.651 -22.430  0.00  0.00     0.193 A 
ATOM      3  C   UNL d   1      32.960  21.103 -22.973  0.00  0.00     0.185 A 
ATOM      4  N   UNL d   1      32.987  20.392 -22.572  0.00  0.00    -0.269 N 
ATOM      5  C   UNL d   1      32.713  20.566 -21.825  0.00  0.00     0.179 A 
ATOM      6  N   UNL d   1      32.567  22.438 -22.647  0.00  0.00    -0.223 NA
ATOM      7  N   UNL d   1      33.149  21.345 -23.737  0.00  0.00    -0.224 NA
ATOM      8  C   UNL d   1      32.757  22.676 -23.412  0.00  0.00     0.101 A 
ATOM      9  C   UNL d   1      33.047  22.132 -23.955  0.00  0.00     0.101 A 
ATOM     10  C   UNL d   1      33.235  22.378 -24.719  0.00  0.00     0.021 A 
ATOM     11  C   UNL d   1      32.654  23.461 -23.625  0.00  0.00     0.021 A 
ATOM     12  C   UNL d   1      32.844  23.700 -24.390  0.00  0.00     0.002 A 
ATOM     13  C   UNL d   1      33.133  23.154 -24.929  0.00  0.00     0.002 A 
ENDROOT
BRANCH   1  14
ATOM     14  S   UNL d   1      32.169  22.035 -21.109  0.00  0.00     0.274 S 
ATOM     15  O   UNL d   1      31.411  22.442 -21.339  0.00  0.00    -0.200 OA
ATOM     16  O   UNL d   1      31.620  22.009 -21.744  0.00  0.00    -0.200 OA
BRANCH  14  17
ATOM     17  C   UNL d   1      32.436  22.328 -20.390  0.00  0.00     0.104 A 
ATOM     18  C   UNL d   1      32.786  21.814 -19.837  0.00  0.00     0.013 A 
ATOM     19  C   UNL d   1      33.054  22.118 -19.110  0.00  0.00     0.001 A 
ATOM     20  C   UNL d   1      32.974  22.922 -18.940  0.00  0.00     0.000 A 
ATOM     21  C   UNL d   1      32.622  23.430 -19.499  0.00  0.00     0.001 A 
ATOM     22  C   UNL d   1      33.240  23.220 -18.220  0.00  0.00     0.000 C 
ATOM     23  C   UNL d   1      32.355  23.133 -20.218  0.00  0.00     0.013 A 
ENDBRANCH  14  17
ENDBRANCH   1  14
BRANCH   4  24
ATOM     24  C   UNL d   1      33.238  19.661 -22.863  0.00  0.00     0.108 C 
BRANCH  24  25
ATOM     25  C   UNL d   1      32.693  19.043 -22.971  0.00  0.00     0.118 A 
ATOM     26  O   UNL d   1      32.139  18.987 -23.584  0.00  0.00    -0.304 OA
ATOM     27  C   UNL d   1      31.702  18.277 -23.480  0.00  0.00     0.123 A 
ATOM     28  C   UNL d   1      31.994  17.901 -22.799  0.00  0.00     0.029 A 
ATOM     29  C   UNL d   1      32.606  18.378 -22.488  0.00  0.00     0.028 A 
ENDBRANCH  24  25
ENDBRANCH   4  24
TORSDOF 4
ENDMDL
MODEL 2
REMARK VINA RESULT:       0.6      2.851      5.021
REMARK  4 active torsions:
REMARK  status: ('A' for Active; 'I' for Inactive)
REMARK    1  A    between atoms: S_3  and  N_1 
REMARK    2  A    between atoms: C_9  and  S_3 
REMARK    3  A    between atoms: C_10  and  N_5 
REMARK    4  A    between atoms: C_15  and  C_10 
ROOT
ATOM      1  N   UNL d   1      31.820  18.669 -24.598  0.00  0.00    -0.195 N 
ATOM      2  C   UNL d   1      31.845  17.927 -24.261  0.00  0.00     0.193 A 
ATOM      3  C   UNL d   1      31.198  17.421 -24.330  0.00  0.00     0.185 A 
ATOM      4  N   UNL d   1      30.642  17.835 -24.762  0.00  0.00    -0.269 N 
ATOM      5  C   UNL d   1      30.995  18.552 -24.918  0.00  0.00     0.179 A 
ATOM      6  N   UNL d   1      32.518  17.688 -23.852  0.00  0.00    -0.223 NA
ATOM      7  N   UNL d   1      31.226  16.672 -23.988  0.00  0.00    -0.224 NA
ATOM      8  C   UNL d   1      32.542  16.939 -23.512  0.00  0.00     0.101 A 
ATOM      9  C   UNL d   1      31.899  16.433 -23.580  0.00  0.00     0.101 A 
ATOM     10  C   UNL d   1      31.931  15.684 -23.236  0.00  0.00     0.021 A 
ATOM     11  C   UNL d   1      33.215  16.704 -23.106  0.00  0.00     0.021 A 
ATOM     12  C   UNL d   1      33.239  15.955 -22.766  0.00  0.00     0.002 A 
ATOM     13  C   UNL d   1      32.596  15.453 -22.835  0.00  0.00     0.002 A 
ENDROOT
BRANCH   1  14
ATOM     14  S   UNL d   1      32.540  19.193 -24.504  0.00  0.00     0.274 S 
ATOM     15  O   UNL d   1      33.241  19.009 -25.021  0.00  0.00    -0.200 OA
ATOM     16  O   UNL d   1      32.742  18.634 -25.097  0.00  0.00    -0.200 OA
BRANCH  14  17
ATOM     17  C   UNL d   1      32.708  19.838 -24.024  0.00  0.00     0.104 A 
ATOM     18  C   UNL d   1      32.889  19.719 -23.219  0.00  0.00     0.013 A 
ATOM     19  C   UNL d   1      33.059  20.377 -22.739  0.00  0.00     0.001 A 
ATOM     20  C   UNL d   1      33.048  21.139 -23.057  0.00  0.00     0.000 A 
ATOM     21  C   UNL d   1      32.867  21.248 -23.863  0.00  0.00     0.001 A 
ATOM     22  C   UNL d   1      33.217  21.788 -22.579  0.00  0.00     0.000 C 
ATOM     23  C   UNL d   1      32.698  20.601 -24.341  0.00  0.00     0.013 A 
ENDBRANCH  14  17
ENDBRANCH   1  14
BRANCH   4  24
ATOM     24  C   UNL d   1      29.890  17.579 -24.988  0.00  0.00     0.108 C 
BRANCH  24  25
ATOM     25  C   UNL d   1      29.222  17.804 -24.550  0.00  0.00     0.118 A 
ATOM     26  O   UNL d   1      28.887  18.562 -24.528  0.00  0.00    -0.304 OA
ATOM     27  C   UNL d   1      28.222  18.541 -24.017  0.00  0.00     0.123 A 
ATOM     28  C   UNL d   1      28.152  17.766 -23.727  0.00  0.00     0.029 A 
ATOM     29  C   UNL d   1      28.772  17.314 -24.058  0.00  0.00     0.028 A 
ENDBRANCH  24  25
ENDBRANCH   4  24
TORSDOF 4
ENDMDL
MODEL 3
REMARK VINA RESULT:       2.7      2.615      5.725
REMARK  4 active torsions:
REMARK  status: ('A' for Active; 'I' for Inactive)
REMARK    1  A    between atoms: S_3  and  N_1 
REMARK    2  A    between atoms: C_9  and  S_3 
REMARK    3  A    between atoms: C_10  and  N_5 
REMARK    4  A    between atoms: C_15  and  C_10 
ROOT
ATOM      1  N   UNL d   1      31.054  18.584 -23.933  0.00  0.00    -0.195 N 
ATOM      2  C   UNL d   1      31.599  17.985 -24.022  0.00  0.00     0.193 A 
ATOM      3  C   UNL d   1      32.339  18.044 -23.665  0.00  0.00     0.185 A 
ATOM      4  N   UNL d   1      32.336  18.762 -23.274  0.00  0.00    -0.269 N 
ATOM      5  C   UNL d   1      31.600  19.075 -23.425  0.00  0.00     0.179 A 
ATOM      6  N   UNL d   1      31.405  17.322 -24.470  0.00  0.00    -0.223 NA
ATOM      7  N   UNL d   1      32.888  17.437 -23.756  0.00  0.00    -0.224 NA
ATOM      8  C   UNL d   1      31.956  16.718 -24.559  0.00  0.00     0.101 A 
ATOM      9  C   UNL d   1      32.695  16.774 -24.204  0.00  0.00     0.101 A 
ATOM     10  C   UNL d   1      33.241  16.164 -24.298  0.00  0.00     0.021 A 
ATOM     11  C   UNL d   1      31.760  16.058 -25.006  0.00  0.00     0.021 A 
ATOM     12  C   UNL d   1      32.311  15.453 -25.096  0.00  0.00     0.002 A 
ATOM     13  C   UNL d   1      33.046  15.513 -24.740  0.00  0.00     0.002 A 
ENDROOT
BRANCH   1  14
ATOM     14  S   UNL d   1      30.260  18.488 -24.334  0.00  0.00     0.274 S 
ATOM     15  O   UNL d   1      30.138  18.931 -25.097  0.00  0.00    -0.200 OA
ATOM     16  O   UNL d   1      30.700  19.007 -24.825  0.00  0.00    -0.200 OA
BRANCH  14  17
ATOM     17  C   UNL d   1      29.583  18.060 -24.149  0.00  0.00     0.104 A 
ATOM     18  C   UNL d   1      29.246  17.552 -24.716  0.00  0.00     0.013 A 
ATOM     19  C   UNL d   1      28.561  17.123 -24.521  0.00  0.00     0.001 A 
ATOM     20  C   UNL d   1      28.218  17.200 -23.774  0.00  0.00     0.000 A 
ATOM     21  C   UNL d   1      28.563  17.711 -23.212  0.00  0.00     0.001 A 
ATOM     22  C   UNL d   1      27.540  16.773 -23.584  0.00  0.00     0.000 C 
ATOM     23  C   UNL d   1      29.240  18.137 -23.401  0.00  0.00     0.013 A 
ENDBRANCH  14  17
ENDBRANCH   1  14
BRANCH   4  24
ATOM     24  C   UNL d   1      32.946  19.092 -22.826  0.00  0.00     0.108 C 
BRANCH  24  25
ATOM     25  C   UNL d   1      32.863  19.850 -22.499  0.00  0.00     0.118 A 
ATOM     26  O   UNL d   1      32.865  20.563 -22.921  0.00  0.00    -0.304 OA
ATOM     27  C   UNL d   1      32.765  21.193 -22.375  0.00  0.00     0.123 A 
ATOM     28  C   UNL d   1      32.702  20.860 -21.617  0.00  0.00     0.029 A 
ATOM     29  C   UNL d   1      32.763  20.030 -21.698  0.00  0.00     0.028 A 
ENDBRANCH  24  25
ENDBRANCH   4  24
TORSDOF 4
ENDMDL
