MODEL 1
REMARK VINA RESULT:      -8.7      0.000      0.000
REMARK  4 active torsions:
REMARK  status: ('A' for Active; 'I' for Inactive)
REMARK    1  A    between atoms: N_5  and  C_1 
REMARK    2  A    between atoms: C_9  and  C_4 
REMARK    3  A    between atoms: C_8  and  N_5 
REMARK    4  A    between atoms: O_12  and  C_9 
ROOT
ATOM      1  N   UNL d   1      52.384  33.082  53.273  0.00  0.00    -0.222 NA
ENDROOT
BRANCH   1   2
ATOM      2  C   UNL d   1      52.992  32.511  53.274  0.00  0.00     0.186 A 
ATOM      3  O   UNL d   1      53.799  32.655  53.288  0.00  0.00    -0.255 OA
ATOM      4  C   UNL d   1      54.214  31.963  53.285  0.00  0.00     0.301 A 
ATOM      5  O   UNL d   1      55.052  31.885  53.296  0.00  0.00    -0.259 OA
ATOM      6  C   UNL d   1      53.663  31.348  53.269  0.00  0.00     0.067 A 
ATOM      7  C   UNL d   1      52.907  31.687  53.262  0.00  0.00     0.046 A 
ATOM      8  C   UNL d   1      53.742  30.528  53.259  0.00  0.00     0.005 A 
ATOM      9  C   UNL d   1      52.238  31.203  53.246  0.00  0.00     0.004 A 
ATOM     10  C   UNL d   1      52.322  30.383  53.236  0.00  0.00     0.000 A 
ATOM     11  C   UNL d   1      53.078  30.044  53.243  0.00  0.00     0.000 A 
ENDBRANCH   1   2
BRANCH   1  12
ATOM     12  C   UNL d   1      52.489  33.858  53.610  0.00  0.00     0.089 A 
ATOM     13  C   UNL d   1      52.061  34.465  53.370  0.00  0.00     0.081 A 
ATOM     14  C   UNL d   1      52.171  35.210  53.703  0.00  0.00     0.007 A 
ATOM     15  C   UNL d   1      52.748  35.304  54.300  0.00  0.00     0.000 A 
ATOM     16  C   UNL d   1      53.190  34.654  54.541  0.00  0.00     0.002 A 
ATOM     17  C   UNL d   1      53.069  33.923  54.201  0.00  0.00     0.019 A 
BRANCH  13  18
ATOM     18  C   UNL d   1      51.503  34.327  52.778  0.00  0.00     0.297 C 
ATOM     19  O   UNL d   1      51.726  34.347  51.990  0.00  0.00    -0.259 OA
BRANCH  18  20
ATOM     20  O   UNL d   1      50.720  34.169  52.988  0.00  0.00    -0.296 OA
ATOM     21  C   UNL d   1      50.117  34.329  52.435  0.00  0.00     0.185 C 
ENDBRANCH  18  20
ENDBRANCH  13  18
ENDBRANCH   1  12
TORSDOF 4
ENDMDL
MODEL 2
REMARK VINA RESULT:      -8.6      1.521      2.473
REMARK  4 active torsions:
REMARK  status: ('A' for Active; 'I' for Inactive)
REMARK    1  A    between atoms: N_5  and  C_1 
REMARK    2  A    between atoms: C_9  and  C_4 
REMARK    3  A    between atoms: C_8  and  N_5 
REMARK    4  A    between atoms: O_12  and  C_9 
ROOT
ATOM      1  N   UNL d   1      53.510  32.119  54.001  0.00  0.00    -0.222 NA
ENDROOT
BRANCH   1   2
ATOM      2  C   UNL d   1      53.336  31.415  53.586  0.00  0.00     0.186 A 
ATOM      3  O   UNL d   1      53.186  31.346  52.783  0.00  0.00    -0.255 OA
ATOM      4  C   UNL d   1      53.040  30.577  52.585  0.00  0.00     0.301 A 
ATOM      5  O   UNL d   1      52.863  30.288  51.814  0.00  0.00    -0.259 OA
ATOM      6  C   UNL d   1      53.095  30.132  53.277  0.00  0.00     0.067 A 
ATOM      7  C   UNL d   1      53.279  30.650  53.897  0.00  0.00     0.046 A 
ATOM      8  C   UNL d   1      53.005  29.327  53.431  0.00  0.00     0.005 A 
ATOM      9  C   UNL d   1      53.370  30.359  54.664  0.00  0.00     0.004 A 
ATOM     10  C   UNL d   1      53.279  29.554  54.815  0.00  0.00     0.000 A 
ATOM     11  C   UNL d   1      53.096  29.035  54.195  0.00  0.00     0.000 A 
ENDBRANCH   1   2
BRANCH   1  12
ATOM     12  C   UNL d   1      53.177  32.871  53.779  0.00  0.00     0.089 A 
ATOM     13  C   UNL d   1      53.561  33.538  53.910  0.00  0.00     0.081 A 
ATOM     14  C   UNL d   1      53.230  34.259  53.691  0.00  0.00     0.007 A 
ATOM     15  C   UNL d   1      52.477  34.264  53.329  0.00  0.00     0.000 A 
ATOM     16  C   UNL d   1      52.087  33.553  53.199  0.00  0.00     0.002 A 
ATOM     17  C   UNL d   1      52.429  32.846  53.421  0.00  0.00     0.019 A 
BRANCH  13  18
ATOM     18  C   UNL d   1      54.302  33.486  54.271  0.00  0.00     0.297 C 
ATOM     19  O   UNL d   1      54.967  33.322  53.822  0.00  0.00    -0.259 OA
BRANCH  18  20
ATOM     20  O   UNL d   1      54.364  33.601  55.086  0.00  0.00    -0.296 OA
ATOM     21  C   UNL d   1      55.111  33.785  55.409  0.00  0.00     0.185 C 
ENDBRANCH  18  20
ENDBRANCH  13  18
ENDBRANCH   1  12
TORSDOF 4
ENDMDL
MODEL 3
REMARK VINA RESULT:      -8.2      1.147      3.352
REMARK  4 active torsions:
REMARK  status: ('A' for Active; 'I' for Inactive)
REMARK    1  A    between atoms: N_5  and  C_1 
REMARK    2  A    between atoms: C_9  and  C_4 
REMARK    3  A    between atoms: C_8  and  N_5 
REMARK    4  A    between atoms: O_12  and  C_9 
ROOT
ATOM      1  N   UNL d   1      52.746  32.855  53.812  0.00  0.00    -0.222 NA
ENDROOT
BRANCH   1   2
ATOM      2  C   UNL d   1      52.436  33.455  53.320  0.00  0.00     0.186 A 
ATOM      3  O   UNL d   1      52.865  34.016  52.905  0.00  0.00    -0.255 OA
ATOM      4  C   UNL d   1      52.373  34.503  52.490  0.00  0.00     0.301 A 
ATOM      5  O   UNL d   1      52.608  35.146  51.998  0.00  0.00    -0.259 OA
ATOM      6  C   UNL d   1      51.601  34.253  52.638  0.00  0.00     0.067 A 
ATOM      7  C   UNL d   1      51.640  33.604  53.152  0.00  0.00     0.046 A 
ATOM      8  C   UNL d   1      50.867  34.524  52.377  0.00  0.00     0.005 A 
ATOM      9  C   UNL d   1      50.945  33.232  53.400  0.00  0.00     0.004 A 
ATOM     10  C   UNL d   1      50.213  33.506  53.137  0.00  0.00     0.000 A 
ATOM     11  C   UNL d   1      50.174  34.156  52.623  0.00  0.00     0.000 A 
ENDBRANCH   1   2
BRANCH   1  12
ATOM     12  C   UNL d   1      53.425  32.983  54.310  0.00  0.00     0.089 A 
ATOM     13  C   UNL d   1      53.973  32.433  54.397  0.00  0.00     0.081 A 
ATOM     14  C   UNL d   1      54.625  32.567  54.881  0.00  0.00     0.007 A 
ATOM     15  C   UNL d   1      54.691  33.300  55.275  0.00  0.00     0.000 A 
ATOM     16  C   UNL d   1      54.106  33.868  55.173  0.00  0.00     0.002 A 
ATOM     17  C   UNL d   1      53.465  33.720  54.690  0.00  0.00     0.019 A 
BRANCH  13  18
ATOM     18  C   UNL d   1      53.867  31.723  53.988  0.00  0.00     0.297 C 
ATOM     19  O   UNL d   1      54.169  31.635  53.232  0.00  0.00    -0.259 OA
BRANCH  18  20
ATOM     20  O   UNL d   1      53.456  31.106  54.350  0.00  0.00    -0.296 OA
ATOM     21  C   UNL d   1      53.486  30.347  54.004  0.00  0.00     0.185 C 
ENDBRANCH  18  20
ENDBRANCH  13  18
ENDBRANCH   1  12
TORSDOF 4
ENDMDL
MODEL 4
REMARK VINA RESULT:      -8.0      1.183      3.736
REMARK  4 active torsions:
REMARK  status: ('A' for Active; 'I' for Inactive)
REMARK    1  A    between atoms: N_5  and  C_1 
REMARK    2  A    between atoms: C_9  and  C_4 
REMARK    3  A    between atoms: C_8  and  N_5 
REMARK    4  A    between atoms: O_12  and  C_9 
ROOT
ATOM      1  N   UNL d   1      52.593  33.098  53.677  0.00  0.00    -0.222 NA
ENDROOT
BRANCH   1   2
ATOM      2  C   UNL d   1      52.161  33.491  53.080  0.00  0.00     0.186 A 
ATOM      3  O   UNL d   1      52.406  33.628  52.310  0.00  0.00    -0.255 OA
ATOM      4  C   UNL d   1      51.838  34.025  51.895  0.00  0.00     0.301 A 
ATOM      5  O   UNL d   1      51.886  34.264  51.089  0.00  0.00    -0.259 OA
ATOM      6  C   UNL d   1      51.204  34.151  52.409  0.00  0.00     0.067 A 
ATOM      7  C   UNL d   1      51.404  33.820  53.142  0.00  0.00     0.046 A 
ATOM      8  C   UNL d   1      50.473  34.519  52.313  0.00  0.00     0.005 A 
ATOM      9  C   UNL d   1      50.871  33.862  53.772  0.00  0.00     0.004 A 
ATOM     10  C   UNL d   1      50.141  34.231  53.672  0.00  0.00     0.000 A 
ATOM     11  C   UNL d   1      49.941  34.562  52.938  0.00  0.00     0.000 A 
ENDBRANCH   1   2
BRANCH   1  12
ATOM     12  C   UNL d   1      52.961  32.341  53.547  0.00  0.00     0.089 A 
ATOM     13  C   UNL d   1      53.617  32.141  53.920  0.00  0.00     0.081 A 
ATOM     14  C   UNL d   1      53.965  31.407  53.787  0.00  0.00     0.007 A 
ATOM     15  C   UNL d   1      53.604  30.882  53.246  0.00  0.00     0.000 A 
ATOM     16  C   UNL d   1      52.915  31.109  52.861  0.00  0.00     0.002 A 
ATOM     17  C   UNL d   1      52.582  31.840  53.004  0.00  0.00     0.019 A 
BRANCH  13  18
ATOM     18  C   UNL d   1      53.939  32.690  54.446  0.00  0.00     0.297 C 
ATOM     19  O   UNL d   1      53.620  32.778  55.195  0.00  0.00    -0.259 OA
BRANCH  18  20
ATOM     20  O   UNL d   1      54.583  33.148  54.208  0.00  0.00    -0.296 OA
ATOM     21  C   UNL d   1      55.036  33.537  54.792  0.00  0.00     0.185 C 
ENDBRANCH  18  20
ENDBRANCH  13  18
ENDBRANCH   1  12
TORSDOF 4
ENDMDL
MODEL 5
REMARK VINA RESULT:      -8.0      1.458      3.101
REMARK  4 active torsions:
REMARK  status: ('A' for Active; 'I' for Inactive)
REMARK    1  A    between atoms: N_5  and  C_1 
REMARK    2  A    between atoms: C_9  and  C_4 
REMARK    3  A    between atoms: C_8  and  N_5 
REMARK    4  A    between atoms: O_12  and  C_9 
ROOT
ATOM      1  N   UNL d   1      53.215  32.490  53.815  0.00  0.00    -0.222 NA
ENDROOT
BRANCH   1   2
ATOM      2  C   UNL d   1      53.992  32.795  53.841  0.00  0.00     0.186 A 
ATOM      3  O   UNL d   1      54.551  32.760  53.242  0.00  0.00    -0.255 OA
ATOM      4  C   UNL d   1      55.238  33.115  53.471  0.00  0.00     0.301 A 
ATOM      5  O   UNL d   1      55.938  33.189  53.008  0.00  0.00    -0.259 OA
ATOM      6  C   UNL d   1      55.127  33.390  54.241  0.00  0.00     0.067 A 
ATOM      7  C   UNL d   1      54.355  33.191  54.470  0.00  0.00     0.046 A 
ATOM      8  C   UNL d   1      55.617  33.792  54.767  0.00  0.00     0.005 A 
ATOM      9  C   UNL d   1      54.082  33.398  55.222  0.00  0.00     0.004 A 
ATOM     10  C   UNL d   1      54.576  33.800  55.745  0.00  0.00     0.000 A 
ATOM     11  C   UNL d   1      55.348  33.999  55.516  0.00  0.00     0.000 A 
ENDBRANCH   1   2
BRANCH   1  12
ATOM     12  C   UNL d   1      53.041  31.717  53.503  0.00  0.00     0.089 A 
ATOM     13  C   UNL d   1      52.414  31.593  53.054  0.00  0.00     0.081 A 
ATOM     14  C   UNL d   1      52.256  30.842  52.757  0.00  0.00     0.007 A 
ATOM     15  C   UNL d   1      52.777  30.216  52.944  0.00  0.00     0.000 A 
ATOM     16  C   UNL d   1      53.432  30.364  53.418  0.00  0.00     0.002 A 
ATOM     17  C   UNL d   1      53.575  31.113  53.704  0.00  0.00     0.019 A 
BRANCH  13  18
ATOM     18  C   UNL d   1      51.927  32.240  52.894  0.00  0.00     0.297 C 
ATOM     19  O   UNL d   1      52.062  32.703  52.233  0.00  0.00    -0.259 OA
BRANCH  18  20
ATOM     20  O   UNL d   1      51.304  32.413  53.408  0.00  0.00    -0.296 OA
ATOM     21  C   UNL d   1      50.761  33.009  53.192  0.00  0.00     0.185 C 
ENDBRANCH  18  20
ENDBRANCH  13  18
ENDBRANCH   1  12
TORSDOF 4
ENDMDL
MODEL 6
REMARK VINA RESULT:      -7.6      1.584      3.075
REMARK  4 active torsions:
REMARK  status: ('A' for Active; 'I' for Inactive)
REMARK    1  A    between atoms: N_5  and  C_1 
REMARK    2  A    between atoms: C_9  and  C_4 
REMARK    3  A    between atoms: C_8  and  N_5 
REMARK    4  A    between atoms: O_12  and  C_9 
ROOT
ATOM      1  N   UNL d   1      52.970  33.270  53.455  0.00  0.00    -0.222 NA
ENDROOT
BRANCH   1   2
ATOM      2  C   UNL d   1      53.297  33.705  54.088  0.00  0.00     0.186 A 
ATOM      3  O   UNL d   1      52.908  34.253  54.557  0.00  0.00    -0.255 OA
ATOM      4  C   UNL d   1      53.406  34.559  55.113  0.00  0.00     0.301 A 
ATOM      5  O   UNL d   1      53.208  35.137  55.694  0.00  0.00    -0.259 OA
ATOM      6  C   UNL d   1      54.141  34.201  55.006  0.00  0.00     0.067 A 
ATOM      7  C   UNL d   1      54.074  33.672  54.371  0.00  0.00     0.046 A 
ATOM      8  C   UNL d   1      54.863  34.282  55.395  0.00  0.00     0.005 A 
ATOM      9  C   UNL d   1      54.729  33.229  54.133  0.00  0.00     0.004 A 
ATOM     10  C   UNL d   1      55.449  33.312  54.525  0.00  0.00     0.000 A 
ATOM     11  C   UNL d   1      55.517  33.841  55.160  0.00  0.00     0.000 A 
ENDBRANCH   1   2
BRANCH   1  12
ATOM     12  C   UNL d   1      52.185  33.418  53.160  0.00  0.00     0.089 A 
ATOM     13  C   UNL d   1      51.752  32.845  52.853  0.00  0.00     0.081 A 
ATOM     14  C   UNL d   1      50.995  33.000  52.571  0.00  0.00     0.007 A 
ATOM     15  C   UNL d   1      50.698  33.779  52.619  0.00  0.00     0.000 A 
ATOM     16  C   UNL d   1      51.166  34.370  52.945  0.00  0.00     0.002 A 
ATOM     17  C   UNL d   1      51.915  34.201  53.220  0.00  0.00     0.019 A 
BRANCH  13  18
ATOM     18  C   UNL d   1      52.086  32.090  52.826  0.00  0.00     0.297 C 
ATOM     19  O   UNL d   1      52.659  31.913  52.269  0.00  0.00    -0.259 OA
BRANCH  18  20
ATOM     20  O   UNL d   1      51.834  31.517  53.365  0.00  0.00    -0.296 OA
ATOM     21  C   UNL d   1      52.083  30.728  53.256  0.00  0.00     0.185 C 
ENDBRANCH  18  20
ENDBRANCH  13  18
ENDBRANCH   1  12
TORSDOF 4
ENDMDL
