MODEL 1
REMARK VINA RESULT:      71.5      0.000      0.000
REMARK  6 active torsions:
REMARK  status: ('A' for Active; 'I' for Inactive)
REMARK       I    between atoms: C_2  and  N_1 
REMARK    1  A    between atoms: C_3  and  C_2 
REMARK    2  A    between atoms: C_12  and  C_4 
REMARK       I    between atoms: C_5  and  N_8 
REMARK    3  A    between atoms: C_6  and  C_5 
REMARK       I    between atoms: N_9  and  C_6 
REMARK    4  A    between atoms: N_8  and  C_12 
REMARK    5  A    between atoms: C_19  and  N_9 
REMARK    6  A    between atoms: C_20  and  C_19 
ROOT
ATOM      1  C   UNL d   1      61.521  49.125  50.295  0.00  0.00     0.337 C 
ATOM      2  N   UNL d   1      60.987  49.678  50.579  0.00  0.00    -0.199 NA
ATOM      3  O   UNL d   1      62.311  49.168  50.516  0.00  0.00    -0.260 OA
ENDROOT
BRANCH   2   4
ATOM      4  C   UNL d   1      60.195  49.635  50.357  0.00  0.00     0.146 C 
BRANCH   4   5
ATOM      5  C   UNL d   1      59.603  49.661  50.941  0.00  0.00     0.190 A 
ATOM      6  N   UNL d   1      58.795  49.670  50.790  0.00  0.00    -0.250 N 
ATOM      7  C   UNL d   1      58.359  49.658  50.084  0.00  0.00     0.272 C 
ATOM      8  C   UNL d   1      58.414  49.696  51.523  0.00  0.00     0.112 A 
ATOM      9  O   UNL d   1      58.755  49.632  49.358  0.00  0.00    -0.266 OA
ATOM     10  C   UNL d   1      58.986  49.703  52.113  0.00  0.00     0.144 A 
ATOM     11  O   UNL d   1      59.726  49.680  51.740  0.00  0.00    -0.285 OA
BRANCH   7  12
ATOM     12  C   UNL d   1      57.538  49.673  50.102  0.00  0.00     0.086 A 
ATOM     13  S   UNL d   1      57.003  49.679  50.736  0.00  0.00    -0.082 SA
ATOM     14  C   UNL d   1      56.231  49.694  50.414  0.00  0.00     0.036 A 
ATOM     15  C   UNL d   1      56.304  49.697  49.592  0.00  0.00     0.008 A 
ATOM     16  C   UNL d   1      57.103  49.684  49.395  0.00  0.00     0.012 A 
ENDBRANCH   7  12
ENDBRANCH   4   5
ENDBRANCH   2   4
BRANCH   1  17
ATOM     17  C   UNL d   1      61.272  48.519  49.784  0.00  0.00     0.337 C 
ATOM     18  N   UNL d   1      61.615  47.775  49.820  0.00  0.00    -0.202 NA
ATOM     19  O   UNL d   1      60.675  48.670  49.238  0.00  0.00    -0.260 OA
BRANCH  18  20
ATOM     20  C   UNL d   1      61.384  47.168  49.327  0.00  0.00     0.102 C 
BRANCH  20  21
ATOM     21  C   UNL d   1      61.633  46.388  49.455  0.00  0.00     0.019 A 
ATOM     22  C   UNL d   1      62.421  46.202  49.428  0.00  0.00     0.002 A 
ATOM     23  C   UNL d   1      62.677  45.433  49.553  0.00  0.00     0.000 A 
ATOM     24  C   UNL d   1      62.122  44.829  49.711  0.00  0.00     0.000 A 
ATOM     25  C   UNL d   1      61.326  45.020  49.737  0.00  0.00     0.000 A 
ATOM     26  C   UNL d   1      62.391  44.043  49.838  0.00  0.00     0.000 C 
ATOM     27  C   UNL d   1      61.091  45.801  49.608  0.00  0.00     0.002 A 
ENDBRANCH  20  21
ENDBRANCH  18  20
ENDBRANCH   1  17
TORSDOF 6
ENDMDL
MODEL 2
REMARK VINA RESULT:      73.1      1.630      5.111
REMARK  6 active torsions:
REMARK  status: ('A' for Active; 'I' for Inactive)
REMARK       I    between atoms: C_2  and  N_1 
REMARK    1  A    between atoms: C_3  and  C_2 
REMARK    2  A    between atoms: C_12  and  C_4 
REMARK       I    between atoms: C_5  and  N_8 
REMARK    3  A    between atoms: C_6  and  C_5 
REMARK       I    between atoms: N_9  and  C_6 
REMARK    4  A    between atoms: N_8  and  C_12 
REMARK    5  A    between atoms: C_19  and  N_9 
REMARK    6  A    between atoms: C_20  and  C_19 
ROOT
ATOM      1  C   UNL d   1      61.168  48.753  51.213  0.00  0.00     0.337 C 
ATOM      2  N   UNL d   1      61.431  48.006  51.001  0.00  0.00    -0.199 NA
ATOM      3  O   UNL d   1      61.351  49.055  51.955  0.00  0.00    -0.260 OA
ENDROOT
BRANCH   2   4
ATOM      4  C   UNL d   1      61.248  47.703  50.257  0.00  0.00     0.146 C 
BRANCH   4   5
ATOM      5  C   UNL d   1      61.806  47.235  49.856  0.00  0.00     0.190 A 
ATOM      6  N   UNL d   1      61.700  46.443  49.659  0.00  0.00    -0.250 N 
ATOM      7  C   UNL d   1      61.072  45.917  49.786  0.00  0.00     0.272 C 
ATOM      8  C   UNL d   1      62.387  46.199  49.268  0.00  0.00     0.112 A 
ATOM      9  O   UNL d   1      60.391  46.176  50.179  0.00  0.00    -0.266 OA
ATOM     10  C   UNL d   1      62.903  46.837  49.227  0.00  0.00     0.144 A 
ATOM     11  O   UNL d   1      62.532  47.480  49.597  0.00  0.00    -0.285 OA
BRANCH   7  12
ATOM     12  C   UNL d   1      61.121  45.139  49.523  0.00  0.00     0.086 A 
ATOM     13  S   UNL d   1      60.607  44.495  49.618  0.00  0.00    -0.082 SA
ATOM     14  C   UNL d   1      60.950  43.840  49.226  0.00  0.00     0.036 A 
ATOM     15  C   UNL d   1      61.665  44.092  48.899  0.00  0.00     0.008 A 
ATOM     16  C   UNL d   1      61.775  44.887  49.078  0.00  0.00     0.012 A 
ENDBRANCH   7  12
ENDBRANCH   4   5
ENDBRANCH   2   4
BRANCH   1  17
ATOM     17  C   UNL d   1      60.719  49.210  50.686  0.00  0.00     0.337 C 
ATOM     18  N   UNL d   1      59.905  49.261  50.764  0.00  0.00    -0.202 NA
ATOM     19  O   UNL d   1      61.098  49.616  50.078  0.00  0.00    -0.260 OA
BRANCH  18  20
ATOM     20  C   UNL d   1      59.448  49.705  50.257  0.00  0.00     0.102 C 
BRANCH  20  21
ATOM     21  C   UNL d   1      58.620  49.694  50.297  0.00  0.00     0.019 A 
ATOM     22  C   UNL d   1      58.247  49.706  51.016  0.00  0.00     0.002 A 
ATOM     23  C   UNL d   1      57.429  49.695  51.066  0.00  0.00     0.000 A 
ATOM     24  C   UNL d   1      56.968  49.673  50.370  0.00  0.00     0.000 A 
ATOM     25  C   UNL d   1      57.348  49.661  49.645  0.00  0.00     0.000 A 
ATOM     26  C   UNL d   1      56.130  49.662  50.429  0.00  0.00     0.000 C 
ATOM     27  C   UNL d   1      58.173  49.672  49.618  0.00  0.00     0.002 A 
ENDBRANCH  20  21
ENDBRANCH  18  20
ENDBRANCH   1  17
TORSDOF 6
ENDMDL
