MODEL 1
REMARK VINA RESULT:      -7.2      0.000      0.000
REMARK  6 active torsions:
REMARK  status: ('A' for Active; 'I' for Inactive)
REMARK       I    between atoms: C_3  and  N_1 
REMARK    1  A    between atoms: C_4  and  N_1 
REMARK    2  A    between atoms: S_2  and  C_12 
REMARK    3  A    between atoms: C_6  and  C_3 
REMARK    4  A    between atoms: N_5  and  C_6 
REMARK       I    between atoms: C_7  and  N_5 
REMARK    5  A    between atoms: C_8  and  C_6 
REMARK    6  A    between atoms: C_12  and  C_8 
ROOT
ATOM      1  N   UNL d   1     -48.973  13.725  23.429  0.00  0.00    -0.207 NA
ATOM      2  C   UNL d   1     -48.652  13.281  22.812  0.00  0.00     0.297 C 
ATOM      3  O   UNL d   1     -48.994  13.318  22.057  0.00  0.00    -0.264 OA
ENDROOT
BRANCH   2   4
ATOM      4  C   UNL d   1     -47.988  12.799  22.947  0.00  0.00     0.143 C 
BRANCH   4   5
ATOM      5  N   UNL d   1     -48.043  12.161  23.468  0.00  0.00    -0.203 NA
ATOM      6  C   UNL d   1     -48.158  11.399  23.176  0.00  0.00     0.280 C 
ATOM      7  O   UNL d   1     -48.218  11.274  22.363  0.00  0.00    -0.265 OA
ATOM      8  C   UNL d   1     -48.213  10.760  23.697  0.00  0.00     0.068 C 
ENDBRANCH   4   5
BRANCH   4   9
ATOM      9  C   UNL d   1     -47.278  12.958  22.561  0.00  0.00     0.036 C 
BRANCH   9  10
ATOM     10  C   UNL d   1     -46.614  13.179  22.998  0.00  0.00     0.096 C 
BRANCH  10  11
ATOM     11  S   UNL d   1     -45.886  13.267  22.622  0.00  0.00     0.192 S 
ATOM     12  O   UNL d   1     -45.704  13.273  23.433  0.00  0.00    -0.222 OA
ATOM     13  O   UNL d   1     -45.075  13.361  22.448  0.00  0.00    -0.222 OA
ATOM     14  C   UNL d   1     -45.849  13.286  21.799  0.00  0.00     0.145 C 
ENDBRANCH  10  11
ENDBRANCH   9  10
ENDBRANCH   4   9
ENDBRANCH   2   4
BRANCH   1  15
ATOM     15  C   UNL d   1     -49.647  14.214  23.287  0.00  0.00     0.085 A 
ATOM     16  C   UNL d   1     -49.538  14.982  23.040  0.00  0.00     0.018 A 
ATOM     17  C   UNL d   1     -50.211  15.454  22.903  0.00  0.00     0.002 A 
ATOM     18  C   UNL d   1     -48.792  15.296  22.924  0.00  0.00     0.002 C 
ATOM     19  C   UNL d   1     -50.974  15.157  23.013  0.00  0.00     0.000 A 
ATOM     20  C   UNL d   1     -51.064  14.371  23.266  0.00  0.00     0.002 A 
ATOM     21  C   UNL d   1     -50.393  13.887  23.406  0.00  0.00     0.018 A 
ATOM     22  C   UNL d   1     -50.503  13.115  23.655  0.00  0.00     0.002 C 
ENDBRANCH   1  15
TORSDOF 6
ENDMDL
MODEL 2
REMARK VINA RESULT:      -7.0      1.675      3.955
REMARK  6 active torsions:
REMARK  status: ('A' for Active; 'I' for Inactive)
REMARK       I    between atoms: C_3  and  N_1 
REMARK    1  A    between atoms: C_4  and  N_1 
REMARK    2  A    between atoms: S_2  and  C_12 
REMARK    3  A    between atoms: C_6  and  C_3 
REMARK    4  A    between atoms: N_5  and  C_6 
REMARK       I    between atoms: C_7  and  N_5 
REMARK    5  A    between atoms: C_8  and  C_6 
REMARK    6  A    between atoms: C_12  and  C_8 
ROOT
ATOM      1  N   UNL d   1     -47.550  13.446  23.343  0.00  0.00    -0.207 NA
ATOM      2  C   UNL d   1     -48.191  13.348  22.833  0.00  0.00     0.297 C 
ATOM      3  O   UNL d   1     -48.060  13.096  22.053  0.00  0.00    -0.264 OA
ENDROOT
BRANCH   2   4
ATOM      4  C   UNL d   1     -48.963  13.501  23.099  0.00  0.00     0.143 C 
BRANCH   4   5
ATOM      5  N   UNL d   1     -49.141  14.230  23.444  0.00  0.00    -0.203 NA
ATOM      6  C   UNL d   1     -49.574  14.791  23.023  0.00  0.00     0.280 C 
ATOM      7  O   UNL d   1     -49.828  14.624  22.256  0.00  0.00    -0.265 OA
ATOM      8  C   UNL d   1     -49.752  15.520  23.368  0.00  0.00     0.068 C 
ENDBRANCH   4   5
BRANCH   4   9
ATOM      9  C   UNL d   1     -49.549  12.927  23.018  0.00  0.00     0.036 C 
BRANCH   9  10
ATOM     10  C   UNL d   1     -49.655  12.362  23.609  0.00  0.00     0.096 C 
BRANCH  10  11
ATOM     11  S   UNL d   1     -50.312  11.865  23.589  0.00  0.00     0.192 S 
ATOM     12  O   UNL d   1     -49.666  11.352  23.696  0.00  0.00    -0.222 OA
ATOM     13  O   UNL d   1     -50.824  11.207  23.597  0.00  0.00    -0.222 OA
ATOM     14  C   UNL d   1     -51.064  12.185  23.489  0.00  0.00     0.145 C 
ENDBRANCH  10  11
ENDBRANCH   9  10
ENDBRANCH   4   9
ENDBRANCH   2   4
BRANCH   1  15
ATOM     15  C   UNL d   1     -46.767  13.289  23.068  0.00  0.00     0.085 A 
ATOM     16  C   UNL d   1     -46.355  13.876  22.682  0.00  0.00     0.018 A 
ATOM     17  C   UNL d   1     -45.584  13.710  22.415  0.00  0.00     0.002 A 
ATOM     18  C   UNL d   1     -46.677  14.616  22.553  0.00  0.00     0.002 C 
ATOM     19  C   UNL d   1     -45.238  12.968  22.535  0.00  0.00     0.000 A 
ATOM     20  C   UNL d   1     -45.674  12.383  22.930  0.00  0.00     0.002 A 
ATOM     21  C   UNL d   1     -46.452  12.540  23.203  0.00  0.00     0.018 A 
ATOM     22  C   UNL d   1     -46.866  11.951  23.591  0.00  0.00     0.002 C 
ENDBRANCH   1  15
TORSDOF 6
ENDMDL
MODEL 3
REMARK VINA RESULT:      -6.2      8.982     10.077
REMARK  6 active torsions:
REMARK  status: ('A' for Active; 'I' for Inactive)
REMARK       I    between atoms: C_3  and  N_1 
REMARK    1  A    between atoms: C_4  and  N_1 
REMARK    2  A    between atoms: S_2  and  C_12 
REMARK    3  A    between atoms: C_6  and  C_3 
REMARK    4  A    between atoms: N_5  and  C_6 
REMARK       I    between atoms: C_7  and  N_5 
REMARK    5  A    between atoms: C_8  and  C_6 
REMARK    6  A    between atoms: C_12  and  C_8 
ROOT
ATOM      1  N   UNL d   1     -39.839  14.542  19.810  0.00  0.00    -0.207 NA
ATOM      2  C   UNL d   1     -39.411  14.820  19.162  0.00  0.00     0.297 C 
ATOM      3  O   UNL d   1     -38.849  15.421  19.267  0.00  0.00    -0.264 OA
ENDROOT
BRANCH   2   4
ATOM      4  C   UNL d   1     -39.543  14.499  18.407  0.00  0.00     0.143 C 
BRANCH   4   5
ATOM      5  N   UNL d   1     -39.370  13.704  18.262  0.00  0.00    -0.203 NA
ATOM      6  C   UNL d   1     -38.690  13.498  17.845  0.00  0.00     0.280 C 
ATOM      7  O   UNL d   1     -38.182  14.087  17.571  0.00  0.00    -0.265 OA
ATOM      8  C   UNL d   1     -38.518  12.703  17.700  0.00  0.00     0.068 C 
ENDBRANCH   4   5
BRANCH   4   9
ATOM      9  C   UNL d   1     -39.844  14.972  17.803  0.00  0.00     0.036 C 
BRANCH   9  10
ATOM     10  C   UNL d   1     -40.580  14.798  17.474  0.00  0.00     0.096 C 
BRANCH  10  11
ATOM     11  S   UNL d   1     -40.930  15.327  16.949  0.00  0.00     0.192 S 
ATOM     12  O   UNL d   1     -41.549  14.822  17.179  0.00  0.00    -0.222 OA
ATOM     13  O   UNL d   1     -41.464  15.745  16.462  0.00  0.00    -0.222 OA
ATOM     14  C   UNL d   1     -40.476  15.921  16.601  0.00  0.00     0.145 C 
ENDBRANCH  10  11
ENDBRANCH   9  10
ENDBRANCH   4   9
ENDBRANCH   2   4
BRANCH   1  15
ATOM     15  C   UNL d   1     -39.701  14.872  20.575  0.00  0.00     0.085 A 
ATOM     16  C   UNL d   1     -39.138  14.535  21.059  0.00  0.00     0.018 A 
ATOM     17  C   UNL d   1     -39.011  14.869  21.811  0.00  0.00     0.002 A 
ATOM     18  C   UNL d   1     -38.701  13.885  20.825  0.00  0.00     0.002 C 
ATOM     19  C   UNL d   1     -39.441  15.526  22.069  0.00  0.00     0.000 A 
ATOM     20  C   UNL d   1     -40.010  15.854  21.561  0.00  0.00     0.002 A 
ATOM     21  C   UNL d   1     -40.146  15.526  20.801  0.00  0.00     0.018 A 
ATOM     22  C   UNL d   1     -40.711  15.864  20.315  0.00  0.00     0.002 C 
ENDBRANCH   1  15
TORSDOF 6
ENDMDL
MODEL 4
REMARK VINA RESULT:      -5.4      1.003      2.399
REMARK  6 active torsions:
REMARK  status: ('A' for Active; 'I' for Inactive)
REMARK       I    between atoms: C_3  and  N_1 
REMARK    1  A    between atoms: C_4  and  N_1 
REMARK    2  A    between atoms: S_2  and  C_12 
REMARK    3  A    between atoms: C_6  and  C_3 
REMARK    4  A    between atoms: N_5  and  C_6 
REMARK       I    between atoms: C_7  and  N_5 
REMARK    5  A    between atoms: C_8  and  C_6 
REMARK    6  A    between atoms: C_12  and  C_8 
ROOT
ATOM      1  N   UNL d   1     -48.881  13.017  23.496  0.00  0.00    -0.207 NA
ATOM      2  C   UNL d   1     -48.551  13.166  22.755  0.00  0.00     0.297 C 
ATOM      3  O   UNL d   1     -48.946  12.911  22.071  0.00  0.00    -0.264 OA
ENDROOT
BRANCH   2   4
ATOM      4  C   UNL d   1     -47.827  13.568  22.693  0.00  0.00     0.143 C 
BRANCH   4   5
ATOM      5  N   UNL d   1     -47.790  14.375  22.864  0.00  0.00    -0.203 NA
ATOM      6  C   UNL d   1     -47.935  14.930  22.272  0.00  0.00     0.280 C 
ATOM      7  O   UNL d   1     -48.116  14.678  21.508  0.00  0.00    -0.265 OA
ATOM      8  C   UNL d   1     -47.898  15.737  22.443  0.00  0.00     0.068 C 
ENDBRANCH   4   5
BRANCH   4   9
ATOM      9  C   UNL d   1     -47.148  13.163  22.462  0.00  0.00     0.036 C 
BRANCH   9  10
ATOM     10  C   UNL d   1     -46.423  13.343  22.812  0.00  0.00     0.096 C 
BRANCH  10  11
ATOM     11  S   UNL d   1     -45.780  12.837  22.709  0.00  0.00     0.192 S 
ATOM     12  O   UNL d   1     -45.622  13.481  22.207  0.00  0.00    -0.222 OA
ATOM     13  O   UNL d   1     -45.066  12.482  22.466  0.00  0.00    -0.222 OA
ATOM     14  C   UNL d   1     -45.746  12.128  23.127  0.00  0.00     0.145 C 
ENDBRANCH  10  11
ENDBRANCH   9  10
ENDBRANCH   4   9
ENDBRANCH   2   4
BRANCH   1  15
ATOM     15  C   UNL d   1     -49.617  12.608  23.553  0.00  0.00     0.085 A 
ATOM     16  C   UNL d   1     -49.622  11.793  23.549  0.00  0.00     0.018 A 
ATOM     17  C   UNL d   1     -50.354  11.400  23.606  0.00  0.00     0.002 A 
ATOM     18  C   UNL d   1     -48.932  11.358  23.492  0.00  0.00     0.002 C 
ATOM     19  C   UNL d   1     -51.064  11.820  23.665  0.00  0.00     0.000 A 
ATOM     20  C   UNL d   1     -51.038  12.649  23.667  0.00  0.00     0.002 A 
ATOM     21  C   UNL d   1     -50.306  13.055  23.611  0.00  0.00     0.018 A 
ATOM     22  C   UNL d   1     -50.301  13.873  23.615  0.00  0.00     0.002 C 
ENDBRANCH   1  15
TORSDOF 6
ENDMDL
MODEL 5
REMARK VINA RESULT:      -5.4      8.469     10.532
REMARK  6 active torsions:
REMARK  status: ('A' for Active; 'I' for Inactive)
REMARK       I    between atoms: C_3  and  N_1 
REMARK    1  A    between atoms: C_4  and  N_1 
REMARK    2  A    between atoms: S_2  and  C_12 
REMARK    3  A    between atoms: C_6  and  C_3 
REMARK    4  A    between atoms: N_5  and  C_6 
REMARK       I    between atoms: C_7  and  N_5 
REMARK    5  A    between atoms: C_8  and  C_6 
REMARK    6  A    between atoms: C_12  and  C_8 
ROOT
ATOM      1  N   UNL d   1     -39.398  14.104  18.335  0.00  0.00    -0.207 NA
ATOM      2  C   UNL d   1     -38.975  14.462  18.945  0.00  0.00     0.297 C 
ATOM      3  O   UNL d   1     -38.289  14.895  18.771  0.00  0.00    -0.264 OA
ENDROOT
BRANCH   2   4
ATOM      4  C   UNL d   1     -39.235  14.390  19.731  0.00  0.00     0.143 C 
BRANCH   4   5
ATOM      5  N   UNL d   1     -38.913  13.807  20.219  0.00  0.00    -0.203 NA
ATOM      6  C   UNL d   1     -38.265  13.980  20.698  0.00  0.00     0.280 C 
ATOM      7  O   UNL d   1     -37.940  14.738  20.690  0.00  0.00    -0.265 OA
ATOM      8  C   UNL d   1     -37.943  13.397  21.185  0.00  0.00     0.068 C 
ENDBRANCH   4   5
BRANCH   4   9
ATOM      9  C   UNL d   1     -39.813  14.900  20.024  0.00  0.00     0.036 C 
BRANCH   9  10
ATOM     10  C   UNL d   1     -40.536  14.597  20.279  0.00  0.00     0.096 C 
BRANCH  10  11
ATOM     11  S   UNL d   1     -41.075  15.089  20.662  0.00  0.00     0.192 S 
ATOM     12  O   UNL d   1     -41.424  14.335  20.691  0.00  0.00    -0.222 OA
ATOM     13  O   UNL d   1     -41.733  15.400  21.070  0.00  0.00    -0.222 OA
ATOM     14  C   UNL d   1     -40.912  15.893  20.741  0.00  0.00     0.145 C 
ENDBRANCH  10  11
ENDBRANCH   9  10
ENDBRANCH   4   9
ENDBRANCH   2   4
BRANCH   1  15
ATOM     15  C   UNL d   1     -39.129  14.180  17.537  0.00  0.00     0.085 A 
ATOM     16  C   UNL d   1     -39.315  14.851  17.117  0.00  0.00     0.018 A 
ATOM     17  C   UNL d   1     -39.045  14.916  16.331  0.00  0.00     0.002 A 
ATOM     18  C   UNL d   1     -39.757  15.458  17.443  0.00  0.00     0.002 C 
ATOM     19  C   UNL d   1     -38.597  14.316  15.981  0.00  0.00     0.000 A 
ATOM     20  C   UNL d   1     -38.418  13.639  16.426  0.00  0.00     0.002 A 
ATOM     21  C   UNL d   1     -38.686  13.564  17.218  0.00  0.00     0.018 A 
ATOM     22  C   UNL d   1     -38.499  12.889  17.641  0.00  0.00     0.002 C 
ENDBRANCH   1  15
TORSDOF 6
ENDMDL
MODEL 6
REMARK VINA RESULT:      -5.4      8.727     10.205
REMARK  6 active torsions:
REMARK  status: ('A' for Active; 'I' for Inactive)
REMARK       I    between atoms: C_3  and  N_1 
REMARK    1  A    between atoms: C_4  and  N_1 
REMARK    2  A    between atoms: S_2  and  C_12 
REMARK    3  A    between atoms: C_6  and  C_3 
REMARK    4  A    between atoms: N_5  and  C_6 
REMARK       I    between atoms: C_7  and  N_5 
REMARK    5  A    between atoms: C_8  and  C_6 
REMARK    6  A    between atoms: C_12  and  C_8 
ROOT
ATOM      1  N   UNL d   1     -39.622  14.566  19.398  0.00  0.00    -0.207 NA
ATOM      2  C   UNL d   1     -39.740  15.109  18.789  0.00  0.00     0.297 C 
ATOM      3  O   UNL d   1     -39.824  15.915  18.968  0.00  0.00    -0.264 OA
ENDROOT
BRANCH   2   4
ATOM      4  C   UNL d   1     -39.775  14.851  18.000  0.00  0.00     0.143 C 
BRANCH   4   5
ATOM      5  N   UNL d   1     -40.158  15.314  17.433  0.00  0.00    -0.203 NA
ATOM      6  C   UNL d   1     -40.924  15.126  17.195  0.00  0.00     0.280 C 
ATOM      7  O   UNL d   1     -41.308  14.474  17.523  0.00  0.00    -0.265 OA
ATOM      8  C   UNL d   1     -41.306  15.589  16.628  0.00  0.00     0.068 C 
ENDBRANCH   4   5
BRANCH   4   9
ATOM      9  C   UNL d   1     -39.429  14.135  17.784  0.00  0.00     0.036 C 
BRANCH   9  10
ATOM     10  C   UNL d   1     -38.771  14.131  17.286  0.00  0.00     0.096 C 
BRANCH  10  11
ATOM     11  S   UNL d   1     -38.433  13.415  17.059  0.00  0.00     0.192 S 
ATOM     12  O   UNL d   1     -38.055  13.984  16.584  0.00  0.00    -0.222 OA
ATOM     13  O   UNL d   1     -37.977  12.819  16.693  0.00  0.00    -0.222 OA
ATOM     14  C   UNL d   1     -38.676  12.715  17.419  0.00  0.00     0.145 C 
ENDBRANCH  10  11
ENDBRANCH   9  10
ENDBRANCH   4   9
ENDBRANCH   2   4
BRANCH   1  15
ATOM     15  C   UNL d   1     -39.587  14.833  20.198  0.00  0.00     0.085 A 
ATOM     16  C   UNL d   1     -38.899  15.169  20.477  0.00  0.00     0.018 A 
ATOM     17  C   UNL d   1     -38.876  15.429  21.268  0.00  0.00     0.002 A 
ATOM     18  C   UNL d   1     -38.238  15.254  20.004  0.00  0.00     0.002 C 
ATOM     19  C   UNL d   1     -39.533  15.353  21.765  0.00  0.00     0.000 A 
ATOM     20  C   UNL d   1     -40.225  15.008  21.462  0.00  0.00     0.002 A 
ATOM     21  C   UNL d   1     -40.258  14.743  20.666  0.00  0.00     0.018 A 
ATOM     22  C   UNL d   1     -40.949  14.406  20.387  0.00  0.00     0.002 C 
ENDBRANCH   1  15
TORSDOF 6
ENDMDL
MODEL 7
REMARK VINA RESULT:      -5.2      7.479      9.880
REMARK  6 active torsions:
REMARK  status: ('A' for Active; 'I' for Inactive)
REMARK       I    between atoms: C_3  and  N_1 
REMARK    1  A    between atoms: C_4  and  N_1 
REMARK    2  A    between atoms: S_2  and  C_12 
REMARK    3  A    between atoms: C_6  and  C_3 
REMARK    4  A    between atoms: N_5  and  C_6 
REMARK       I    between atoms: C_7  and  N_5 
REMARK    5  A    between atoms: C_8  and  C_6 
REMARK    6  A    between atoms: C_12  and  C_8 
ROOT
ATOM      1  N   UNL d   1     -39.984  14.081  18.860  0.00  0.00    -0.207 NA
ATOM      2  C   UNL d   1     -39.770  14.602  19.463  0.00  0.00     0.297 C 
ATOM      3  O   UNL d   1     -39.321  15.276  19.284  0.00  0.00    -0.264 OA
ENDROOT
BRANCH   2   4
ATOM      4  C   UNL d   1     -40.004  14.452  20.246  0.00  0.00     0.143 C 
BRANCH   4   5
ATOM      5  N   UNL d   1     -40.756  14.147  20.399  0.00  0.00    -0.203 NA
ATOM      6  C   UNL d   1     -41.329  14.620  20.755  0.00  0.00     0.280 C 
ATOM      7  O   UNL d   1     -41.150  15.399  20.958  0.00  0.00    -0.265 OA
ATOM      8  C   UNL d   1     -42.081  14.315  20.908  0.00  0.00     0.068 C 
ENDBRANCH   4   5
BRANCH   4   9
ATOM      9  C   UNL d   1     -39.487  14.608  20.869  0.00  0.00     0.036 C 
BRANCH   9  10
ATOM     10  C   UNL d   1     -39.094  13.986  21.242  0.00  0.00     0.096 C 
BRANCH  10  11
ATOM     11  S   UNL d   1     -38.530  14.145  21.822  0.00  0.00     0.192 S 
ATOM     12  O   UNL d   1     -38.552  13.315  21.774  0.00  0.00    -0.222 OA
ATOM     13  O   UNL d   1     -37.947  14.087  22.415  0.00  0.00    -0.222 OA
ATOM     14  C   UNL d   1     -38.357  14.925  22.022  0.00  0.00     0.145 C 
ENDBRANCH  10  11
ENDBRANCH   9  10
ENDBRANCH   4   9
ENDBRANCH   2   4
BRANCH   1  15
ATOM     15  C   UNL d   1     -39.744  14.238  18.066  0.00  0.00     0.085 A 
ATOM     16  C   UNL d   1     -40.182  14.752  17.612  0.00  0.00     0.018 A 
ATOM     17  C   UNL d   1     -39.936  14.900  16.829  0.00  0.00     0.002 A 
ATOM     18  C   UNL d   1     -40.851  15.123  17.902  0.00  0.00     0.002 C 
ATOM     19  C   UNL d   1     -39.263  14.536  16.515  0.00  0.00     0.000 A 
ATOM     20  C   UNL d   1     -38.830  14.015  16.994  0.00  0.00     0.002 A 
ATOM     21  C   UNL d   1     -39.070  13.860  17.784  0.00  0.00     0.018 A 
ATOM     22  C   UNL d   1     -38.629  13.343  18.240  0.00  0.00     0.002 C 
ENDBRANCH   1  15
TORSDOF 6
ENDMDL
