MODEL 1
REMARK VINA RESULT:      -6.8      0.000      0.000
REMARK  2 active torsions:
REMARK  status: ('A' for Active; 'I' for Inactive)
REMARK    1  A    between atoms: C_6  and  C_3 
REMARK    2  A    between atoms: O_13  and  C_10 
ROOT
ATOM      1  C   UNL d   1     -47.546  13.974  22.899  0.00  0.00     0.018 A 
ATOM      2  C   UNL d   1     -47.819  13.247  23.142  0.00  0.00     0.004 A 
ATOM      3  C   UNL d   1     -46.741  14.108  22.842  0.00  0.00     0.004 A 
ATOM      4  C   UNL d   1     -46.473  12.786  23.272  0.00  0.00     0.094 A 
ATOM      5  C   UNL d   1     -46.201  13.513  23.029  0.00  0.00     0.024 A 
ATOM      6  C   UNL d   1     -47.292  12.639  23.333  0.00  0.00     0.024 A 
ENDROOT
BRANCH   1   7
ATOM      7  C   UNL d   1     -48.329  14.242  22.824  0.00  0.00     0.090 A 
ATOM      8  N   UNL d   1     -49.129  14.035  22.908  0.00  0.00    -0.219 NA
ATOM      9  C   UNL d   1     -49.568  14.698  22.694  0.00  0.00     0.215 A 
ATOM     10  S   UNL d   1     -49.058  15.277  22.490  0.00  0.00    -0.045 SA
ATOM     11  N   UNL d   1     -50.402  14.781  22.681  0.00  0.00    -0.120 N 
ATOM     12  C   UNL d   1     -48.295  15.016  22.563  0.00  0.00     0.058 A 
ENDBRANCH   1   7
BRANCH   4  13
ATOM     13  O   UNL d   1     -45.932  12.173  23.465  0.00  0.00    -0.328 OA
ATOM     14  C   UNL d   1     -46.210  11.416  23.664  0.00  0.00     0.181 C 
ENDBRANCH   4  13
TORSDOF 2
ENDMDL
MODEL 2
REMARK VINA RESULT:      -6.7      1.685      2.156
REMARK  2 active torsions:
REMARK  status: ('A' for Active; 'I' for Inactive)
REMARK    1  A    between atoms: C_6  and  C_3 
REMARK    2  A    between atoms: O_13  and  C_10 
ROOT
ATOM      1  C   UNL d   1     -48.000  12.351  23.357  0.00  0.00     0.018 A 
ATOM      2  C   UNL d   1     -47.972  13.075  22.989  0.00  0.00     0.004 A 
ATOM      3  C   UNL d   1     -47.305  11.987  23.593  0.00  0.00     0.004 A 
ATOM      4  C   UNL d   1     -46.548  13.074  23.093  0.00  0.00     0.094 A 
ATOM      5  C   UNL d   1     -46.575  12.349  23.461  0.00  0.00     0.024 A 
ATOM      6  C   UNL d   1     -47.249  13.452  22.849  0.00  0.00     0.024 A 
ENDROOT
BRANCH   1   7
ATOM      7  C   UNL d   1     -48.828  12.352  23.296  0.00  0.00     0.090 A 
ATOM      8  N   UNL d   1     -49.486  12.756  22.991  0.00  0.00    -0.219 NA
ATOM      9  C   UNL d   1     -50.152  12.327  23.216  0.00  0.00     0.215 A 
ATOM     10  S   UNL d   1     -49.908  11.694  23.636  0.00  0.00    -0.045 SA
ATOM     11  N   UNL d   1     -50.956  12.498  23.049  0.00  0.00    -0.120 N 
ATOM     12  C   UNL d   1     -49.100  11.693  23.696  0.00  0.00     0.058 A 
ENDBRANCH   1   7
BRANCH   4  13
ATOM     13  O   UNL d   1     -45.810  13.451  22.954  0.00  0.00    -0.328 OA
ATOM     14  C   UNL d   1     -45.412  13.340  22.233  0.00  0.00     0.181 C 
ENDBRANCH   4  13
TORSDOF 2
ENDMDL
MODEL 3
REMARK VINA RESULT:      -6.5      2.105      3.427
REMARK  2 active torsions:
REMARK  status: ('A' for Active; 'I' for Inactive)
REMARK    1  A    between atoms: C_6  and  C_3 
REMARK    2  A    between atoms: O_13  and  C_10 
ROOT
ATOM      1  C   UNL d   1     -48.100  14.437  22.774  0.00  0.00     0.018 A 
ATOM      2  C   UNL d   1     -48.719  14.071  23.154  0.00  0.00     0.004 A 
ATOM      3  C   UNL d   1     -48.207  15.176  22.439  0.00  0.00     0.004 A 
ATOM      4  C   UNL d   1     -49.559  15.188  22.860  0.00  0.00     0.094 A 
ATOM      5  C   UNL d   1     -48.939  15.554  22.481  0.00  0.00     0.024 A 
ATOM      6  C   UNL d   1     -49.459  14.436  23.205  0.00  0.00     0.024 A 
ENDROOT
BRANCH   1   7
ATOM      7  C   UNL d   1     -47.611  13.787  22.946  0.00  0.00     0.090 A 
ATOM      8  N   UNL d   1     -47.593  13.007  23.231  0.00  0.00    -0.219 NA
ATOM      9  C   UNL d   1     -46.806  12.766  23.209  0.00  0.00     0.215 A 
ATOM     10  S   UNL d   1     -46.370  13.371  22.924  0.00  0.00    -0.045 SA
ATOM     11  N   UNL d   1     -46.488  12.025  23.438  0.00  0.00    -0.120 N 
ATOM     12  C   UNL d   1     -46.846  14.005  22.758  0.00  0.00     0.058 A 
ENDBRANCH   1   7
BRANCH   4  13
ATOM     13  O   UNL d   1     -50.308  15.565  22.908  0.00  0.00    -0.328 OA
ATOM     14  C   UNL d   1     -50.568  15.891  23.627  0.00  0.00     0.181 C 
ENDBRANCH   4  13
TORSDOF 2
ENDMDL
MODEL 4
REMARK VINA RESULT:      -6.3      2.296      3.206
REMARK  2 active torsions:
REMARK  status: ('A' for Active; 'I' for Inactive)
REMARK    1  A    between atoms: C_6  and  C_3 
REMARK    2  A    between atoms: O_13  and  C_10 
ROOT
ATOM      1  C   UNL d   1     -48.093  12.367  23.354  0.00  0.00     0.018 A 
ATOM      2  C   UNL d   1     -48.650  12.839  22.997  0.00  0.00     0.004 A 
ATOM      3  C   UNL d   1     -48.319  11.659  23.698  0.00  0.00     0.004 A 
ATOM      4  C   UNL d   1     -49.666  11.892  23.329  0.00  0.00     0.094 A 
ATOM      5  C   UNL d   1     -49.109  11.419  23.686  0.00  0.00     0.024 A 
ATOM      6  C   UNL d   1     -49.446  12.614  22.976  0.00  0.00     0.024 A 
ENDROOT
BRANCH   1   7
ATOM      7  C   UNL d   1     -47.502  12.919  23.161  0.00  0.00     0.090 A 
ATOM      8  N   UNL d   1     -47.351  13.712  22.969  0.00  0.00    -0.219 NA
ATOM      9  C   UNL d   1     -46.538  13.776  22.856  0.00  0.00     0.215 A 
ATOM     10  S   UNL d   1     -46.213  13.056  22.975  0.00  0.00    -0.045 SA
ATOM     11  N   UNL d   1     -46.098  14.461  22.652  0.00  0.00    -0.120 N 
ATOM     12  C   UNL d   1     -46.789  12.518  23.163  0.00  0.00     0.058 A 
ENDBRANCH   1   7
BRANCH   4  13
ATOM     13  O   UNL d   1     -50.472  11.657  23.311  0.00  0.00    -0.328 OA
ATOM     14  C   UNL d   1     -51.064  12.169  23.589  0.00  0.00     0.181 C 
ENDBRANCH   4  13
TORSDOF 2
ENDMDL
