MODEL 1
REMARK VINA RESULT:      -9.9      0.000      0.000
REMARK  2 active torsions:
REMARK  status: ('A' for Active; 'I' for Inactive)
REMARK    1  A    between atoms: C_3  and  C_1 
REMARK       I    between atoms: N_7  and  C_3 
REMARK    2  A    between atoms: C_11  and  N_7 
ROOT
ATOM      1  C   UNL d   1      52.349  33.309  53.421  0.00  0.00     0.121 A 
ATOM      2  C   UNL d   1      52.780  32.673  53.120  0.00  0.00     0.305 A 
ATOM      3  C   UNL d   1      52.673  33.789  54.022  0.00  0.00     0.012 A 
ATOM      4  O   UNL d   1      53.530  32.527  53.423  0.00  0.00    -0.273 OA
ATOM      5  C   UNL d   1      53.421  33.617  54.302  0.00  0.00     0.023 A 
ATOM      6  C   UNL d   1      53.852  32.982  54.001  0.00  0.00     0.103 A 
ATOM      7  O   UNL d   1      52.476  32.199  52.535  0.00  0.00    -0.259 OA
ATOM      8  C   UNL d   1      53.748  34.098  54.905  0.00  0.00     0.002 A 
ATOM      9  C   UNL d   1      54.604  32.836  54.306  0.00  0.00     0.025 A 
ATOM     10  C   UNL d   1      54.487  33.925  55.180  0.00  0.00     0.000 A 
ATOM     11  C   UNL d   1      54.919  33.289  54.878  0.00  0.00     0.002 A 
ENDROOT
BRANCH   1  12
ATOM     12  C   UNL d   1      51.591  33.477  53.132  0.00  0.00     0.284 C 
ATOM     13  N   UNL d   1      51.438  34.177  52.719  0.00  0.00    -0.208 NA
ATOM     14  O   UNL d   1      50.952  32.966  53.235  0.00  0.00    -0.265 OA
BRANCH  13  15
ATOM     15  C   UNL d   1      50.689  34.336  52.437  0.00  0.00     0.085 A 
ATOM     16  C   UNL d   1      50.113  34.647  52.929  0.00  0.00     0.019 A 
ATOM     17  C   UNL d   1      49.354  34.809  52.648  0.00  0.00     0.002 A 
ATOM     18  C   UNL d   1      49.180  34.651  51.853  0.00  0.00     0.000 A 
ATOM     19  C   UNL d   1      49.744  34.338  51.336  0.00  0.00     0.002 A 
ATOM     20  C   UNL d   1      48.445  34.805  51.568  0.00  0.00     0.000 C 
ATOM     21  C   UNL d   1      50.502  34.180  51.632  0.00  0.00     0.019 A 
ENDBRANCH  13  15
ENDBRANCH   1  12
TORSDOF 2
ENDMDL
MODEL 2
REMARK VINA RESULT:      -9.6      1.160      1.581
REMARK  2 active torsions:
REMARK  status: ('A' for Active; 'I' for Inactive)
REMARK    1  A    between atoms: C_3  and  C_1 
REMARK       I    between atoms: N_7  and  C_3 
REMARK    2  A    between atoms: C_11  and  N_7 
ROOT
ATOM      1  C   UNL d   1      52.524  34.323  53.670  0.00  0.00     0.121 A 
ATOM      2  C   UNL d   1      52.851  34.945  54.101  0.00  0.00     0.305 A 
ATOM      3  C   UNL d   1      52.813  33.546  53.768  0.00  0.00     0.012 A 
ATOM      4  O   UNL d   1      53.463  34.783  54.625  0.00  0.00    -0.273 OA
ATOM      5  C   UNL d   1      53.422  33.417  54.296  0.00  0.00     0.023 A 
ATOM      6  C   UNL d   1      53.750  34.039  54.727  0.00  0.00     0.103 A 
ATOM      7  O   UNL d   1      52.579  35.705  54.015  0.00  0.00    -0.259 OA
ATOM      8  C   UNL d   1      53.714  32.638  54.395  0.00  0.00     0.002 A 
ATOM      9  C   UNL d   1      54.364  33.874  55.252  0.00  0.00     0.025 A 
ATOM     10  C   UNL d   1      54.317  32.515  54.919  0.00  0.00     0.000 A 
ATOM     11  C   UNL d   1      54.644  33.137  55.350  0.00  0.00     0.002 A 
ENDROOT
BRANCH   1  12
ATOM     12  C   UNL d   1      51.905  34.462  53.136  0.00  0.00     0.284 C 
ATOM     13  N   UNL d   1      51.152  34.146  53.264  0.00  0.00    -0.208 NA
ATOM     14  O   UNL d   1      52.000  34.916  52.454  0.00  0.00    -0.265 OA
BRANCH  13  15
ATOM     15  C   UNL d   1      50.548  34.287  52.734  0.00  0.00     0.085 A 
ATOM     16  C   UNL d   1      50.588  34.002  51.967  0.00  0.00     0.019 A 
ATOM     17  C   UNL d   1      49.980  34.142  51.428  0.00  0.00     0.002 A 
ATOM     18  C   UNL d   1      49.320  34.579  51.674  0.00  0.00     0.000 A 
ATOM     19  C   UNL d   1      49.255  34.878  52.443  0.00  0.00     0.002 A 
ATOM     20  C   UNL d   1      48.721  34.722  51.158  0.00  0.00     0.000 C 
ATOM     21  C   UNL d   1      49.875  34.729  52.973  0.00  0.00     0.019 A 
ENDBRANCH  13  15
ENDBRANCH   1  12
TORSDOF 2
ENDMDL
MODEL 3
REMARK VINA RESULT:      -9.3      2.210      3.542
REMARK  2 active torsions:
REMARK  status: ('A' for Active; 'I' for Inactive)
REMARK    1  A    between atoms: C_3  and  C_1 
REMARK       I    between atoms: N_7  and  C_3 
REMARK    2  A    between atoms: C_11  and  N_7 
ROOT
ATOM      1  C   UNL d   1      53.162  31.827  53.446  0.00  0.00     0.121 A 
ATOM      2  C   UNL d   1      52.809  31.571  52.746  0.00  0.00     0.305 A 
ATOM      3  C   UNL d   1      53.397  31.274  54.025  0.00  0.00     0.012 A 
ATOM      4  O   UNL d   1      52.695  30.765  52.633  0.00  0.00    -0.273 OA
ATOM      5  C   UNL d   1      53.270  30.479  53.884  0.00  0.00     0.023 A 
ATOM      6  C   UNL d   1      52.917  30.224  53.183  0.00  0.00     0.103 A 
ATOM      7  O   UNL d   1      52.576  32.100  52.175  0.00  0.00    -0.259 OA
ATOM      8  C   UNL d   1      53.505  29.922  54.464  0.00  0.00     0.002 A 
ATOM      9  C   UNL d   1      52.803  29.414  53.072  0.00  0.00     0.025 A 
ATOM     10  C   UNL d   1      53.378  29.138  54.319  0.00  0.00     0.000 A 
ATOM     11  C   UNL d   1      53.024  28.882  53.619  0.00  0.00     0.002 A 
ENDROOT
BRANCH   1  12
ATOM     12  C   UNL d   1      53.287  32.635  53.582  0.00  0.00     0.284 C 
ATOM     13  N   UNL d   1      52.779  33.069  54.068  0.00  0.00    -0.208 NA
ATOM     14  O   UNL d   1      53.916  33.051  53.248  0.00  0.00    -0.265 OA
BRANCH  13  15
ATOM     15  C   UNL d   1      52.908  33.865  54.198  0.00  0.00     0.085 A 
ATOM     16  C   UNL d   1      53.406  34.115  54.798  0.00  0.00     0.019 A 
ATOM     17  C   UNL d   1      53.540  34.918  54.934  0.00  0.00     0.002 A 
ATOM     18  C   UNL d   1      53.161  35.474  54.448  0.00  0.00     0.000 A 
ATOM     19  C   UNL d   1      52.654  35.246  53.836  0.00  0.00     0.002 A 
ATOM     20  C   UNL d   1      53.283  36.258  54.570  0.00  0.00     0.000 C 
ATOM     21  C   UNL d   1      52.529  34.436  53.713  0.00  0.00     0.019 A 
ENDBRANCH  13  15
ENDBRANCH   1  12
TORSDOF 2
ENDMDL
MODEL 4
REMARK VINA RESULT:      -8.6      1.026      4.495
REMARK  2 active torsions:
REMARK  status: ('A' for Active; 'I' for Inactive)
REMARK    1  A    between atoms: C_3  and  C_1 
REMARK       I    between atoms: N_7  and  C_3 
REMARK    2  A    between atoms: C_11  and  N_7 
ROOT
ATOM      1  C   UNL d   1      51.381  34.345  52.771  0.00  0.00     0.121 A 
ATOM      2  C   UNL d   1      51.306  34.069  51.997  0.00  0.00     0.305 A 
ATOM      3  C   UNL d   1      50.729  34.695  53.157  0.00  0.00     0.012 A 
ATOM      4  O   UNL d   1      50.580  34.146  51.619  0.00  0.00    -0.273 OA
ATOM      5  C   UNL d   1      50.021  34.758  52.755  0.00  0.00     0.023 A 
ATOM      6  C   UNL d   1      49.946  34.481  51.981  0.00  0.00     0.103 A 
ATOM      7  O   UNL d   1      51.933  33.726  51.610  0.00  0.00    -0.259 OA
ATOM      8  C   UNL d   1      49.366  35.109  53.141  0.00  0.00     0.002 A 
ATOM      9  C   UNL d   1      49.217  34.560  51.604  0.00  0.00     0.025 A 
ATOM     10  C   UNL d   1      48.667  35.169  52.739  0.00  0.00     0.000 A 
ATOM     11  C   UNL d   1      48.593  34.893  51.966  0.00  0.00     0.002 A 
ENDROOT
BRANCH   1  12
ATOM     12  C   UNL d   1      52.103  34.277  53.172  0.00  0.00     0.284 C 
ATOM     13  N   UNL d   1      52.196  33.741  53.794  0.00  0.00    -0.208 NA
ATOM     14  O   UNL d   1      52.763  34.733  52.980  0.00  0.00    -0.265 OA
BRANCH  13  15
ATOM     15  C   UNL d   1      52.910  33.681  54.186  0.00  0.00     0.085 A 
ATOM     16  C   UNL d   1      53.165  34.276  54.687  0.00  0.00     0.019 A 
ATOM     17  C   UNL d   1      53.886  34.219  55.084  0.00  0.00     0.002 A 
ATOM     18  C   UNL d   1      54.354  33.544  54.968  0.00  0.00     0.000 A 
ATOM     19  C   UNL d   1      54.119  32.929  54.468  0.00  0.00     0.002 A 
ATOM     20  C   UNL d   1      55.058  33.477  55.350  0.00  0.00     0.000 C 
ATOM     21  C   UNL d   1      53.392  33.001  54.076  0.00  0.00     0.019 A 
ENDBRANCH  13  15
ENDBRANCH   1  12
TORSDOF 2
ENDMDL
MODEL 5
REMARK VINA RESULT:      -8.1      1.285      2.025
REMARK  2 active torsions:
REMARK  status: ('A' for Active; 'I' for Inactive)
REMARK    1  A    between atoms: C_3  and  C_1 
REMARK       I    between atoms: N_7  and  C_3 
REMARK    2  A    between atoms: C_11  and  N_7 
ROOT
ATOM      1  C   UNL d   1      52.424  32.853  53.077  0.00  0.00     0.121 A 
ATOM      2  C   UNL d   1      53.166  33.082  53.356  0.00  0.00     0.305 A 
ATOM      3  C   UNL d   1      52.247  32.044  52.971  0.00  0.00     0.012 A 
ATOM      4  O   UNL d   1      53.721  32.500  53.525  0.00  0.00    -0.273 OA
ATOM      5  C   UNL d   1      52.819  31.489  53.148  0.00  0.00     0.023 A 
ATOM      6  C   UNL d   1      53.561  31.719  53.427  0.00  0.00     0.103 A 
ATOM      7  O   UNL d   1      53.350  33.865  53.463  0.00  0.00    -0.259 OA
ATOM      8  C   UNL d   1      52.643  30.677  53.042  0.00  0.00     0.002 A 
ATOM      9  C   UNL d   1      54.117  31.133  53.596  0.00  0.00     0.025 A 
ATOM     10  C   UNL d   1      53.213  30.132  53.218  0.00  0.00     0.000 A 
ATOM     11  C   UNL d   1      53.954  30.361  53.497  0.00  0.00     0.002 A 
ENDROOT
BRANCH   1  12
ATOM     12  C   UNL d   1      51.848  33.422  52.900  0.00  0.00     0.284 C 
ATOM     13  N   UNL d   1      51.062  33.321  53.136  0.00  0.00    -0.208 NA
ATOM     14  O   UNL d   1      52.018  34.112  52.483  0.00  0.00    -0.265 OA
BRANCH  13  15
ATOM     15  C   UNL d   1      50.500  33.885  52.958  0.00  0.00     0.085 A 
ATOM     16  C   UNL d   1      50.224  33.974  52.192  0.00  0.00     0.019 A 
ATOM     17  C   UNL d   1      49.656  34.543  52.007  0.00  0.00     0.002 A 
ATOM     18  C   UNL d   1      49.365  35.029  52.613  0.00  0.00     0.000 A 
ATOM     19  C   UNL d   1      49.628  34.959  53.394  0.00  0.00     0.002 A 
ATOM     20  C   UNL d   1      48.812  35.587  52.445  0.00  0.00     0.000 C 
ATOM     21  C   UNL d   1      50.199  34.383  53.564  0.00  0.00     0.019 A 
ENDBRANCH  13  15
ENDBRANCH   1  12
TORSDOF 2
ENDMDL
MODEL 6
REMARK VINA RESULT:      -8.1      2.446      4.620
REMARK  2 active torsions:
REMARK  status: ('A' for Active; 'I' for Inactive)
REMARK    1  A    between atoms: C_3  and  C_1 
REMARK       I    between atoms: N_7  and  C_3 
REMARK    2  A    between atoms: C_11  and  N_7 
ROOT
ATOM      1  C   UNL d   1      53.312  32.405  53.629  0.00  0.00     0.121 A 
ATOM      2  C   UNL d   1      53.813  33.005  53.894  0.00  0.00     0.305 A 
ATOM      3  C   UNL d   1      52.614  32.594  53.212  0.00  0.00     0.012 A 
ATOM      4  O   UNL d   1      53.609  33.785  53.738  0.00  0.00    -0.273 OA
ATOM      5  C   UNL d   1      52.439  33.379  53.074  0.00  0.00     0.023 A 
ATOM      6  C   UNL d   1      52.940  33.979  53.338  0.00  0.00     0.103 A 
ATOM      7  O   UNL d   1      54.494  32.833  54.300  0.00  0.00    -0.259 OA
ATOM      8  C   UNL d   1      51.739  33.571  52.655  0.00  0.00     0.002 A 
ATOM      9  C   UNL d   1      52.734  34.762  53.182  0.00  0.00     0.025 A 
ATOM     10  C   UNL d   1      51.570  34.350  52.521  0.00  0.00     0.000 A 
ATOM     11  C   UNL d   1      52.071  34.949  52.785  0.00  0.00     0.002 A 
ENDROOT
BRANCH   1  12
ATOM     12  C   UNL d   1      53.496  31.609  53.773  0.00  0.00     0.284 C 
ATOM     13  N   UNL d   1      52.928  31.088  54.072  0.00  0.00    -0.208 NA
ATOM     14  O   UNL d   1      54.244  31.293  53.631  0.00  0.00    -0.265 OA
BRANCH  13  15
ATOM     15  C   UNL d   1      53.116  30.306  54.212  0.00  0.00     0.085 A 
ATOM     16  C   UNL d   1      53.213  29.782  53.591  0.00  0.00     0.019 A 
ATOM     17  C   UNL d   1      53.403  28.990  53.727  0.00  0.00     0.002 A 
ATOM     18  C   UNL d   1      53.496  28.731  54.509  0.00  0.00     0.000 A 
ATOM     19  C   UNL d   1      53.404  29.241  55.153  0.00  0.00     0.002 A 
ATOM     20  C   UNL d   1      53.682  27.963  54.655  0.00  0.00     0.000 C 
ATOM     21  C   UNL d   1      53.213  30.033  55.000  0.00  0.00     0.019 A 
ENDBRANCH  13  15
ENDBRANCH   1  12
TORSDOF 2
ENDMDL
MODEL 7
REMARK VINA RESULT:      -7.9      2.368      4.330
REMARK  2 active torsions:
REMARK  status: ('A' for Active; 'I' for Inactive)
REMARK    1  A    between atoms: C_3  and  C_1 
REMARK       I    between atoms: N_7  and  C_3 
REMARK    2  A    between atoms: C_11  and  N_7 
ROOT
ATOM      1  C   UNL d   1      53.278  32.549  53.698  0.00  0.00     0.121 A 
ATOM      2  C   UNL d   1      52.953  32.821  52.990  0.00  0.00     0.305 A 
ATOM      3  C   UNL d   1      53.431  33.082  54.321  0.00  0.00     0.012 A 
ATOM      4  O   UNL d   1      52.785  33.622  52.914  0.00  0.00    -0.273 OA
ATOM      5  C   UNL d   1      53.254  33.872  54.216  0.00  0.00     0.023 A 
ATOM      6  C   UNL d   1      52.929  34.144  53.508  0.00  0.00     0.103 A 
ATOM      7  O   UNL d   1      52.799  32.312  52.376  0.00  0.00    -0.259 OA
ATOM      8  C   UNL d   1      53.407  34.409  54.841  0.00  0.00     0.002 A 
ATOM      9  C   UNL d   1      52.761  34.949  53.434  0.00  0.00     0.025 A 
ATOM     10  C   UNL d   1      53.230  35.190  54.732  0.00  0.00     0.000 A 
ATOM     11  C   UNL d   1      52.905  35.461  54.024  0.00  0.00     0.002 A 
ENDROOT
BRANCH   1  12
ATOM     12  C   UNL d   1      53.455  31.746  53.797  0.00  0.00     0.284 C 
ATOM     13  N   UNL d   1      52.899  31.223  54.115  0.00  0.00    -0.208 NA
ATOM     14  O   UNL d   1      54.185  31.422  53.590  0.00  0.00    -0.265 OA
BRANCH  13  15
ATOM     15  C   UNL d   1      53.081  30.433  54.210  0.00  0.00     0.085 A 
ATOM     16  C   UNL d   1      53.104  29.928  53.566  0.00  0.00     0.019 A 
ATOM     17  C   UNL d   1      53.287  29.129  53.657  0.00  0.00     0.002 A 
ATOM     18  C   UNL d   1      53.449  28.840  54.417  0.00  0.00     0.000 A 
ATOM     19  C   UNL d   1      53.432  29.329  55.083  0.00  0.00     0.002 A 
ATOM     20  C   UNL d   1      53.629  28.063  54.519  0.00  0.00     0.000 C 
ATOM     21  C   UNL d   1      53.247  30.130  54.976  0.00  0.00     0.019 A 
ENDBRANCH  13  15
ENDBRANCH   1  12
TORSDOF 2
ENDMDL
MODEL 8
REMARK VINA RESULT:      -7.8      1.872      5.156
REMARK  2 active torsions:
REMARK  status: ('A' for Active; 'I' for Inactive)
REMARK    1  A    between atoms: C_3  and  C_1 
REMARK       I    between atoms: N_7  and  C_3 
REMARK    2  A    between atoms: C_11  and  N_7 
ROOT
ATOM      1  C   UNL d   1      49.030  34.997  52.189  0.00  0.00     0.121 A 
ATOM      2  C   UNL d   1      48.573  34.937  51.504  0.00  0.00     0.305 A 
ATOM      3  C   UNL d   1      48.768  35.462  52.830  0.00  0.00     0.012 A 
ATOM      4  O   UNL d   1      47.860  35.344  51.470  0.00  0.00    -0.273 OA
ATOM      5  C   UNL d   1      48.055  35.855  52.765  0.00  0.00     0.023 A 
ATOM      6  C   UNL d   1      47.598  35.796  52.081  0.00  0.00     0.103 A 
ATOM      7  O   UNL d   1      48.817  34.487  50.874  0.00  0.00    -0.259 OA
ATOM      8  C   UNL d   1      47.790  36.323  53.408  0.00  0.00     0.002 A 
ATOM      9  C   UNL d   1      46.882  36.205  52.048  0.00  0.00     0.025 A 
ATOM     10  C   UNL d   1      47.084  36.709  53.339  0.00  0.00     0.000 A 
ATOM     11  C   UNL d   1      46.627  36.650  52.655  0.00  0.00     0.002 A 
ENDROOT
BRANCH   1  12
ATOM     12  C   UNL d   1      49.753  34.595  52.247  0.00  0.00     0.284 C 
ATOM     13  N   UNL d   1      50.148  34.532  52.970  0.00  0.00    -0.208 NA
ATOM     14  O   UNL d   1      50.118  34.240  51.599  0.00  0.00    -0.265 OA
BRANCH  13  15
ATOM     15  C   UNL d   1      50.859  34.135  53.020  0.00  0.00     0.085 A 
ATOM     16  C   UNL d   1      51.568  34.530  52.908  0.00  0.00     0.019 A 
ATOM     17  C   UNL d   1      52.289  34.133  52.957  0.00  0.00     0.002 A 
ATOM     18  C   UNL d   1      52.288  33.321  53.124  0.00  0.00     0.000 A 
ATOM     19  C   UNL d   1      51.587  32.899  53.242  0.00  0.00     0.002 A 
ATOM     20  C   UNL d   1      52.985  32.924  53.175  0.00  0.00     0.000 C 
ATOM     21  C   UNL d   1      50.869  33.312  53.189  0.00  0.00     0.019 A 
ENDBRANCH  13  15
ENDBRANCH   1  12
TORSDOF 2
ENDMDL
