MODEL 1
REMARK VINA RESULT:       6.2      0.000      0.000
REMARK  6 active torsions:
REMARK  status: ('A' for Active; 'I' for Inactive)
REMARK    1  A    between atoms: N_10  and  C_3 
REMARK    2  A    between atoms: C_9  and  C_4 
REMARK    3  A    between atoms: C_20  and  N_13 
REMARK    4  A    between atoms: O_24  and  C_14 
REMARK    5  A    between atoms: O_26  and  C_16 
REMARK    6  A    between atoms: C_25  and  C_20 
ROOT
ATOM      1  N   UNL d   1     -41.491-122.632 -52.374  0.00  0.00    -0.196 N 
ATOM      2  C   UNL d   1     -41.613-122.213 -53.074  0.00  0.00     0.167 A 
ATOM      3  C   UNL d   1     -41.512-122.235 -51.666  0.00  0.00     0.152 A 
ATOM      4  C   UNL d   1     -41.596-122.590 -53.789  0.00  0.00     0.055 A 
ATOM      5  N   UNL d   1     -41.334-123.817 -53.111  0.00  0.00    -0.163 NA
ATOM      6  C   UNL d   1     -41.456-123.398 -53.811  0.00  0.00     0.104 A 
ATOM      7  N   UNL d   1     -41.753-121.405 -53.051  0.00  0.00    -0.227 NA
ATOM      8  C   UNL d   1     -41.650-121.436 -51.629  0.00  0.00     0.057 A 
ATOM      9  C   UNL d   1     -41.772-121.016 -52.329  0.00  0.00     0.086 A 
ATOM     10  C   UNL d   1     -41.436-123.786 -54.517  0.00  0.00     0.023 C 
ATOM     11  C   UNL d   1     -41.917-120.180 -52.304  0.00  0.00     0.021 C 
ENDROOT
BRANCH   3  12
ATOM     12  N   UNL d   1     -41.388-122.665 -50.948  0.00  0.00    -0.286 N 
ATOM     13  C   UNL d   1     -41.489-122.070 -50.356  0.00  0.00     0.101 A 
ATOM     14  C   UNL d   1     -41.408-122.276 -49.541  0.00  0.00     0.100 A 
ATOM     15  N   UNL d   1     -41.228-123.067 -49.312  0.00  0.00    -0.300 N 
ATOM     16  C   UNL d   1     -41.127-123.665 -49.915  0.00  0.00     0.100 A 
ATOM     17  C   UNL d   1     -41.206-123.466 -50.725  0.00  0.00     0.101 A 
BRANCH  15  18
ATOM     18  C   UNL d   1     -41.148-123.265 -48.487  0.00  0.00     0.080 C 
BRANCH  18  19
ATOM     19  C   UNL d   1     -41.830-123.253 -47.988  0.00  0.00     0.018 A 
ATOM     20  C   UNL d   1     -41.896-122.681 -47.380  0.00  0.00     0.002 A 
ATOM     21  C   UNL d   1     -42.581-122.671 -46.880  0.00  0.00     0.000 A 
ATOM     22  C   UNL d   1     -43.189-123.235 -46.998  0.00  0.00     0.000 A 
ATOM     23  C   UNL d   1     -43.118-123.810 -47.613  0.00  0.00     0.000 A 
ATOM     24  C   UNL d   1     -42.438-123.817 -48.106  0.00  0.00     0.002 A 
ENDBRANCH  18  19
ENDBRANCH  15  18
ENDBRANCH   3  12
BRANCH   4  25
ATOM     25  C   UNL d   1     -41.715-122.178 -54.478  0.00  0.00     0.007 A 
ATOM     26  C   UNL d   1     -42.438-122.222 -54.850  0.00  0.00     0.026 A 
ATOM     27  C   UNL d   1     -42.559-121.803 -55.550  0.00  0.00     0.116 A 
ATOM     28  C   UNL d   1     -41.956-121.347 -55.863  0.00  0.00     0.116 A 
ATOM     29  C   UNL d   1     -41.244-121.314 -55.481  0.00  0.00     0.026 A 
ATOM     30  C   UNL d   1     -41.123-121.731 -54.785  0.00  0.00     0.002 A 
BRANCH  27  31
ATOM     31  O   UNL d   1     -43.293-121.839 -55.941  0.00  0.00    -0.326 OA
ATOM     32  C   UNL d   1     -43.682-122.594 -56.047  0.00  0.00     0.181 C 
ENDBRANCH  27  31
BRANCH  28  33
ATOM     33  O   UNL d   1     -42.081-120.915 -56.585  0.00  0.00    -0.326 OA
ATOM     34  C   UNL d   1     -41.431-120.489 -56.935  0.00  0.00     0.181 C 
ENDBRANCH  28  33
ENDBRANCH   4  25
TORSDOF 6
ENDMDL
