MODEL 1
REMARK VINA RESULT:      87.6      0.000      0.000
REMARK  7 active torsions:
REMARK  status: ('A' for Active; 'I' for Inactive)
REMARK    1  A    between atoms: C_6  and  C_1 
REMARK    2  A    between atoms: C_9  and  N_3 
REMARK    3  A    between atoms: C_11  and  C_4 
REMARK       I    between atoms: N_7  and  C_6 
REMARK    4  A    between atoms: C_15  and  N_7 
REMARK    5  A    between atoms: C_8  and  C_10 
REMARK    6  A    between atoms: O_18  and  C_8 
REMARK    7  A    between atoms: C_27  and  O_18 
ROOT
ATOM      1  C   UNL d   1     -55.874-102.329 -40.405  0.00  0.00     0.096 A 
ATOM      2  N   UNL d   1     -56.960-102.574 -41.295  0.00  0.00    -0.165 NA
ATOM      3  N   UNL d   1     -55.673-102.271 -41.816  0.00  0.00    -0.228 N 
ATOM      4  C   UNL d   1     -56.671-102.513 -40.528  0.00  0.00     0.108 A 
ATOM      5  C   UNL d   1     -55.381-102.209 -41.055  0.00  0.00     0.107 A 
ENDROOT
BRANCH   1   6
ATOM      6  C   UNL d   1     -55.581-102.268 -39.642  0.00  0.00     0.282 C 
ATOM      7  N   UNL d   1     -56.096-102.391 -38.971  0.00  0.00    -0.208 NA
ATOM      8  O   UNL d   1     -54.790-102.087 -39.520  0.00  0.00    -0.265 OA
BRANCH   7   9
ATOM      9  C   UNL d   1     -55.791-102.327 -38.186  0.00  0.00     0.085 A 
ATOM     10  C   UNL d   1     -55.209-101.749 -37.997  0.00  0.00     0.019 A 
ATOM     11  C   UNL d   1     -54.905-101.686 -37.211  0.00  0.00     0.007 A 
ATOM     12  C   UNL d   1     -55.189-102.210 -36.606  0.00  0.00     0.064 A 
ATOM     13  C   UNL d   1     -55.771-102.787 -36.799  0.00  0.00     0.007 A 
ATOM     14  C   UNL d   1     -56.072-102.845 -37.587  0.00  0.00     0.019 A 
BRANCH  12  15
ATOM     15  C   UNL d   1     -54.886-102.151 -35.812  0.00  0.00     0.300 C 
ATOM     16  O   UNL d   1     -54.727-102.854 -35.364  0.00  0.00    -0.259 OA
BRANCH  15  17
ATOM     17  O   UNL d   1     -54.743-101.390 -35.466  0.00  0.00    -0.271 OA
BRANCH  17  18
ATOM     18  C   UNL d   1     -55.241-100.736 -35.659  0.00  0.00     0.126 C 
ATOM     19  C   UNL d   1     -54.924 -99.962 -35.683  0.00  0.00     0.029 C 
ENDBRANCH  17  18
ENDBRANCH  15  17
ENDBRANCH  12  15
ENDBRANCH   7   9
ENDBRANCH   1   6
BRANCH   4  20
ATOM     20  C   UNL d   1     -57.163-102.633 -39.897  0.00  0.00     0.023 A 
ATOM     21  C   UNL d   1     -56.854-102.737 -39.143  0.00  0.00     0.022 A 
ATOM     22  C   UNL d   1     -57.347-102.859 -38.501  0.00  0.00     0.099 A 
ATOM     23  N   UNL d   1     -58.166-102.876 -38.614  0.00  0.00    -0.242 NA
ATOM     24  C   UNL d   1     -58.481-102.772 -39.364  0.00  0.00     0.099 A 
ATOM     25  C   UNL d   1     -57.980-102.651 -40.006  0.00  0.00     0.022 A 
ENDBRANCH   4  20
BRANCH   3  26
ATOM     26  C   UNL d   1     -55.355-102.191 -42.568  0.00  0.00     0.083 A 
ATOM     27  C   UNL d   1     -55.184-101.443 -42.856  0.00  0.00     0.019 A 
ATOM     28  C   UNL d   1     -54.867-101.366 -43.609  0.00  0.00     0.002 A 
ATOM     29  C   UNL d   1     -54.720-102.032 -44.072  0.00  0.00     0.000 A 
ATOM     30  C   UNL d   1     -54.893-102.783 -43.777  0.00  0.00     0.002 A 
ATOM     31  C   UNL d   1     -55.211-102.861 -43.026  0.00  0.00     0.019 A 
ENDBRANCH   3  26
TORSDOF 7
ENDMDL
