MODEL 1
REMARK VINA RESULT:      22.1      0.000      0.000
REMARK  2 active torsions:
REMARK  status: ('A' for Active; 'I' for Inactive)
REMARK    1  A    between atoms: C_6  and  C_1 
REMARK    2  A    between atoms: N_8  and  C_6 
ROOT
ATOM      1  C   UNL d   1      58.766  49.705  51.016  0.00  0.00     0.090 C 
ENDROOT
BRANCH   1   2
ATOM      2  C   UNL d   1      59.592  49.702  51.059  0.00  0.00     0.133 A 
ATOM      3  C   UNL d   1      60.032  49.698  50.361  0.00  0.00     0.289 A 
ATOM      4  N   UNL d   1      60.857  49.695  50.395  0.00  0.00    -0.151 NA
ATOM      5  O   UNL d   1      59.656  49.697  49.624  0.00  0.00    -0.265 OA
ATOM      6  C   UNL d   1      61.235  49.697  51.131  0.00  0.00     0.374 A 
ATOM      7  N   UNL d   1      60.795  49.700  51.829  0.00  0.00    -0.151 NA
ATOM      8  O   UNL d   1      62.060  49.694  51.165  0.00  0.00    -0.242 OA
ATOM      9  C   UNL d   1      59.960  49.703  51.787  0.00  0.00     0.289 A 
ATOM     10  O   UNL d   1      59.520  49.707  52.476  0.00  0.00    -0.265 OA
ENDBRANCH   1   2
BRANCH   1  11
ATOM     11  N   UNL d   1      58.391  49.666  50.284  0.00  0.00    -0.304 N 
ATOM     12  C   UNL d   1      57.572  49.667  50.152  0.00  0.00     0.064 A 
ATOM     13  C   UNL d   1      57.450  49.620  49.340  0.00  0.00     0.018 A 
ATOM     14  C   UNL d   1      56.934  49.705  50.668  0.00  0.00     0.018 A 
ATOM     15  C   UNL d   1      56.677  49.611  49.040  0.00  0.00     0.002 A 
ATOM     16  C   UNL d   1      58.178  49.590  48.966  0.00  0.00     0.021 A 
ATOM     17  C   UNL d   1      56.039  49.649  49.559  0.00  0.00     0.000 A 
ATOM     18  C   UNL d   1      56.169  49.696  50.374  0.00  0.00     0.002 A 
ATOM     19  C   UNL d   1      58.767  49.617  49.542  0.00  0.00     0.080 A 
ENDBRANCH   1  11
TORSDOF 2
ENDMDL
