MODEL 1
REMARK VINA RESULT:      13.3      0.000      0.000
REMARK  0 active torsions:
REMARK  status: ('A' for Active; 'I' for Inactive)
ROOT
ATOM      1  N   UNL d   1     -54.771-101.494 -37.460  0.00  0.00    -0.273 N 
ATOM      2  C   UNL d   1     -54.781-102.296 -37.585  0.00  0.00     0.068 A 
ATOM      3  C   UNL d   1     -54.779-101.196 -36.685  0.00  0.00     0.265 A 
ATOM      4  C   UNL d   1     -54.772-102.587 -38.355  0.00  0.00     0.035 A 
ATOM      5  C   UNL d   1     -54.751-100.975 -38.105  0.00  0.00     0.085 A 
ATOM      6  C   UNL d   1     -54.801-102.808 -36.936  0.00  0.00     0.018 A 
ATOM      7  N   UNL d   1     -54.742-102.312 -39.854  0.00  0.00    -0.242 NA
ATOM      8  C   UNL d   1     -54.753-102.076 -39.003  0.00  0.00     0.006 A 
ATOM      9  C   UNL d   1     -54.742-101.274 -38.879  0.00  0.00     0.037 A 
ATOM     10  C   UNL d   1     -54.809-102.517 -36.161  0.00  0.00     0.006 A 
ATOM     11  C   UNL d   1     -54.799-101.715 -36.036  0.00  0.00     0.061 A 
ATOM     12  O   UNL d   1     -54.768-100.390 -36.564  0.00  0.00    -0.267 OA
ATOM     13  C   UNL d   1     -54.763-102.861 -39.132  0.00  0.00     0.100 A 
ATOM     14  C   UNL d   1     -54.733-101.511 -39.665  0.00  0.00     0.100 A 
ENDROOT
TORSDOF 0
ENDMDL
MODEL 2
REMARK VINA RESULT:      15.4      1.180      2.869
REMARK  0 active torsions:
REMARK  status: ('A' for Active; 'I' for Inactive)
ROOT
ATOM      1  N   UNL d   1     -54.724-102.009 -37.928  0.00  0.00    -0.273 N 
ATOM      2  C   UNL d   1     -54.723-101.324 -37.492  0.00  0.00     0.068 A 
ATOM      3  C   UNL d   1     -54.727-101.971 -38.758  0.00  0.00     0.265 A 
ATOM      4  C   UNL d   1     -54.721-101.366 -36.669  0.00  0.00     0.035 A 
ATOM      5  C   UNL d   1     -54.723-102.743 -37.545  0.00  0.00     0.085 A 
ATOM      6  C   UNL d   1     -54.724-100.594 -37.881  0.00  0.00     0.018 A 
ATOM      7  N   UNL d   1     -54.717-102.219 -35.407  0.00  0.00    -0.242 NA
ATOM      8  C   UNL d   1     -54.720-102.095 -36.280  0.00  0.00     0.006 A 
ATOM      9  C   UNL d   1     -54.721-102.780 -36.716  0.00  0.00     0.037 A 
ATOM     10  C   UNL d   1     -54.727-100.550 -38.708  0.00  0.00     0.006 A 
ATOM     11  C   UNL d   1     -54.728-101.235 -39.144  0.00  0.00     0.061 A 
ATOM     12  O   UNL d   1     -54.728-102.661 -39.192  0.00  0.00    -0.267 OA
ATOM     13  C   UNL d   1     -54.718-101.426 -35.848  0.00  0.00     0.100 A 
ATOM     14  C   UNL d   1     -54.718-102.878 -35.901  0.00  0.00     0.100 A 
ENDROOT
TORSDOF 0
ENDMDL
