MODEL 1
REMARK VINA RESULT:      -4.3      0.000      0.000
REMARK  6 active torsions:
REMARK  status: ('A' for Active; 'I' for Inactive)
REMARK    1  A    between atoms: N_6  and  S_1 
REMARK    2  A    between atoms: C_7  and  S_1 
REMARK       I    between atoms: C_2  and  N_4 
REMARK    3  A    between atoms: C_8  and  C_2 
REMARK    4  A    between atoms: C_3  and  C_12 
REMARK       I    between atoms: N_5  and  C_3 
REMARK    5  A    between atoms: C_23  and  N_6 
REMARK    6  A    between atoms: O_29  and  C_26 
ROOT
ATOM      1  C   UNL d   1     -41.346  14.317  20.975  0.00  0.00     0.057 A 
ATOM      2  C   UNL d   1     -42.416  13.072  21.108  0.00  0.00     0.094 A 
ATOM      3  C   UNL d   1     -42.030  14.301  20.509  0.00  0.00     0.006 A 
ATOM      4  C   UNL d   1     -41.199  13.708  21.508  0.00  0.00     0.006 A 
ATOM      5  C   UNL d   1     -42.566  13.671  20.581  0.00  0.00     0.020 A 
ATOM      6  C   UNL d   1     -41.735  13.084  21.575  0.00  0.00     0.020 A 
ENDROOT
BRANCH   1   7
ATOM      7  C   UNL d   1     -40.806  14.948  20.906  0.00  0.00     0.265 C 
ATOM      8  N   UNL d   1     -40.221  14.941  20.317  0.00  0.00    -0.269 N 
ATOM      9  C   UNL d   1     -39.687  15.567  20.249  0.00  0.00     0.102 A 
ATOM     10  C   UNL d   1     -40.174  14.303  19.795  0.00  0.00     0.102 A 
ATOM     11  C   UNL d   1     -39.109  15.553  19.662  0.00  0.00     0.102 A 
ATOM     12  N   UNL d   1     -39.072  14.910  19.147  0.00  0.00    -0.267 N 
ATOM     13  C   UNL d   1     -38.496  14.894  18.560  0.00  0.00     0.288 C 
ATOM     14  C   UNL d   1     -39.599  14.289  19.211  0.00  0.00     0.102 A 
ATOM     15  O   UNL d   1     -37.959  15.523  18.492  0.00  0.00    -0.264 OA
ATOM     16  O   UNL d   1     -40.855  15.589  21.431  0.00  0.00    -0.267 OA
BRANCH  13  17
ATOM     17  C   UNL d   1     -38.450  14.262  18.044  0.00  0.00     0.156 A 
ATOM     18  O   UNL d   1     -38.075  13.535  18.187  0.00  0.00    -0.300 OA
ATOM     19  C   UNL d   1     -38.167  13.068  17.518  0.00  0.00     0.123 A 
ATOM     20  C   UNL d   1     -38.597  13.493  16.955  0.00  0.00     0.029 A 
ATOM     21  C   UNL d   1     -38.771  14.230  17.280  0.00  0.00     0.032 A 
ENDBRANCH  13  17
ENDBRANCH   1   7
BRANCH   2  22
ATOM     22  N   UNL d   1     -42.951  12.446  21.178  0.00  0.00    -0.158 NA
BRANCH  22  23
ATOM     23  S   UNL d   1     -43.656  12.558  21.574  0.00  0.00     0.285 S 
ATOM     24  O   UNL d   1     -43.321  12.249  22.262  0.00  0.00    -0.198 OA
ATOM     25  O   UNL d   1     -43.997  12.868  20.891  0.00  0.00    -0.198 OA
BRANCH  23  26
ATOM     26  C   UNL d   1     -44.369  12.671  21.976  0.00  0.00     0.107 A 
ATOM     27  C   UNL d   1     -44.619  12.118  22.534  0.00  0.00     0.037 A 
ATOM     28  C   UNL d   1     -45.332  12.230  22.936  0.00  0.00     0.095 A 
ATOM     29  C   UNL d   1     -45.791  12.897  22.778  0.00  0.00     0.024 A 
ATOM     30  C   UNL d   1     -45.543  13.446  22.224  0.00  0.00     0.003 A 
ATOM     31  C   UNL d   1     -44.832  13.337  21.821  0.00  0.00     0.013 A 
BRANCH  28  32
ATOM     32  O   UNL d   1     -45.591  11.675  23.502  0.00  0.00    -0.328 OA
ATOM     33  C   UNL d   1     -46.398  11.585  23.660  0.00  0.00     0.181 C 
ENDBRANCH  28  32
ENDBRANCH  23  26
ENDBRANCH  22  23
ENDBRANCH   2  22
TORSDOF 6
ENDMDL
MODEL 2
REMARK VINA RESULT:      -3.9      3.254      5.791
REMARK  6 active torsions:
REMARK  status: ('A' for Active; 'I' for Inactive)
REMARK    1  A    between atoms: N_6  and  S_1 
REMARK    2  A    between atoms: C_7  and  S_1 
REMARK       I    between atoms: C_2  and  N_4 
REMARK    3  A    between atoms: C_8  and  C_2 
REMARK    4  A    between atoms: C_3  and  C_12 
REMARK       I    between atoms: N_5  and  C_3 
REMARK    5  A    between atoms: C_23  and  N_6 
REMARK    6  A    between atoms: O_29  and  C_26 
ROOT
ATOM      1  C   UNL d   1     -46.507  12.995  22.831  0.00  0.00     0.057 A 
ATOM      2  C   UNL d   1     -47.523  14.223  22.415  0.00  0.00     0.094 A 
ATOM      3  C   UNL d   1     -47.025  12.912  22.190  0.00  0.00     0.006 A 
ATOM      4  C   UNL d   1     -46.499  13.694  23.263  0.00  0.00     0.006 A 
ATOM      5  C   UNL d   1     -47.534  13.534  21.985  0.00  0.00     0.020 A 
ATOM      6  C   UNL d   1     -47.008  14.310  23.054  0.00  0.00     0.020 A 
ENDROOT
BRANCH   1   7
ATOM      7  C   UNL d   1     -45.994  12.372  23.039  0.00  0.00     0.265 C 
ATOM      8  N   UNL d   1     -45.221  12.343  22.738  0.00  0.00    -0.269 N 
ATOM      9  C   UNL d   1     -44.714  11.725  22.945  0.00  0.00     0.102 A 
ATOM     10  C   UNL d   1     -44.957  12.937  22.228  0.00  0.00     0.102 A 
ATOM     11  C   UNL d   1     -43.947  11.703  22.644  0.00  0.00     0.102 A 
ATOM     12  N   UNL d   1     -43.695  12.301  22.135  0.00  0.00    -0.267 N 
ATOM     13  C   UNL d   1     -42.931  12.282  21.832  0.00  0.00     0.288 C 
ATOM     14  C   UNL d   1     -44.196  12.915  21.929  0.00  0.00     0.102 A 
ATOM     15  O   UNL d   1     -42.422  11.661  22.041  0.00  0.00    -0.264 OA
ATOM     16  O   UNL d   1     -46.260  11.776  23.551  0.00  0.00    -0.267 OA
BRANCH  13  17
ATOM     17  C   UNL d   1     -42.672  12.870  21.328  0.00  0.00     0.156 A 
ATOM     18  O   UNL d   1     -42.767  12.890  20.503  0.00  0.00    -0.300 OA
ATOM     19  C   UNL d   1     -42.421  13.581  20.227  0.00  0.00     0.123 A 
ATOM     20  C   UNL d   1     -42.110  13.997  20.868  0.00  0.00     0.029 A 
ATOM     21  C   UNL d   1     -42.264  13.558  21.548  0.00  0.00     0.032 A 
ENDBRANCH  13  17
ENDBRANCH   1   7
BRANCH   2  22
ATOM     22  N   UNL d   1     -48.030  14.841  22.209  0.00  0.00    -0.158 NA
BRANCH  22  23
ATOM     23  S   UNL d   1     -48.784  14.867  22.523  0.00  0.00     0.285 S 
ATOM     24  O   UNL d   1     -48.479  15.146  23.238  0.00  0.00    -0.198 OA
ATOM     25  O   UNL d   1     -49.096  14.590  21.814  0.00  0.00    -0.198 OA
BRANCH  23  26
ATOM     26  C   UNL d   1     -49.545  14.894  22.843  0.00  0.00     0.107 A 
ATOM     27  C   UNL d   1     -49.913  14.199  23.091  0.00  0.00     0.037 A 
ATOM     28  C   UNL d   1     -50.674  14.226  23.411  0.00  0.00     0.095 A 
ATOM     29  C   UNL d   1     -51.064  14.950  23.480  0.00  0.00     0.024 A 
ATOM     30  C   UNL d   1     -50.700  15.640  23.234  0.00  0.00     0.003 A 
ATOM     31  C   UNL d   1     -49.940  15.616  22.915  0.00  0.00     0.013 A 
BRANCH  28  32
ATOM     32  O   UNL d   1     -51.052  13.527  23.664  0.00  0.00    -0.328 OA
ATOM     33  C   UNL d   1     -51.032  12.847  23.193  0.00  0.00     0.181 C 
ENDBRANCH  28  32
ENDBRANCH  23  26
ENDBRANCH  22  23
ENDBRANCH   2  22
TORSDOF 6
ENDMDL
MODEL 3
REMARK VINA RESULT:      -2.7      1.468      6.764
REMARK  6 active torsions:
REMARK  status: ('A' for Active; 'I' for Inactive)
REMARK    1  A    between atoms: N_6  and  S_1 
REMARK    2  A    between atoms: C_7  and  S_1 
REMARK       I    between atoms: C_2  and  N_4 
REMARK    3  A    between atoms: C_8  and  C_2 
REMARK    4  A    between atoms: C_3  and  C_12 
REMARK       I    between atoms: N_5  and  C_3 
REMARK    5  A    between atoms: C_23  and  N_6 
REMARK    6  A    between atoms: O_29  and  C_26 
ROOT
ATOM      1  C   UNL d   1     -42.832  12.857  21.496  0.00  0.00     0.057 A 
ATOM      2  C   UNL d   1     -41.972  14.006  20.688  0.00  0.00     0.094 A 
ATOM      3  C   UNL d   1     -42.258  13.306  21.890  0.00  0.00     0.006 A 
ATOM      4  C   UNL d   1     -42.974  12.985  20.697  0.00  0.00     0.006 A 
ATOM      5  C   UNL d   1     -41.829  13.883  21.478  0.00  0.00     0.020 A 
ATOM      6  C   UNL d   1     -42.543  13.561  20.291  0.00  0.00     0.020 A 
ENDROOT
BRANCH   1   7
ATOM      7  C   UNL d   1     -43.265  12.276  21.908  0.00  0.00     0.265 C 
ATOM      8  N   UNL d   1     -44.043  12.427  22.157  0.00  0.00    -0.269 N 
ATOM      9  C   UNL d   1     -44.471  11.850  22.564  0.00  0.00     0.102 A 
ATOM     10  C   UNL d   1     -44.390  13.158  21.996  0.00  0.00     0.102 A 
ATOM     11  C   UNL d   1     -45.242  12.006  22.809  0.00  0.00     0.102 A 
ATOM     12  N   UNL d   1     -45.578  12.741  22.642  0.00  0.00    -0.267 N 
ATOM     13  C   UNL d   1     -46.348  12.900  22.884  0.00  0.00     0.288 C 
ATOM     14  C   UNL d   1     -45.156  13.314  22.238  0.00  0.00     0.102 A 
ATOM     15  O   UNL d   1     -46.778  12.320  23.294  0.00  0.00    -0.264 OA
ATOM     16  O   UNL d   1     -42.915  11.541  22.069  0.00  0.00    -0.267 OA
BRANCH  13  17
ATOM     17  C   UNL d   1     -46.690  13.624  22.724  0.00  0.00     0.156 A 
ATOM     18  O   UNL d   1     -46.477  14.355  23.057  0.00  0.00    -0.300 OA
ATOM     19  C   UNL d   1     -46.967  14.930  22.736  0.00  0.00     0.123 A 
ATOM     20  C   UNL d   1     -47.486  14.570  22.205  0.00  0.00     0.029 A 
ATOM     21  C   UNL d   1     -47.315  13.764  22.198  0.00  0.00     0.032 A 
ENDBRANCH  13  17
ENDBRANCH   1   7
BRANCH   2  22
ATOM     22  N   UNL d   1     -41.543  14.582  20.279  0.00  0.00    -0.158 NA
BRANCH  22  23
ATOM     23  S   UNL d   1     -40.825  14.388  19.942  0.00  0.00     0.285 S 
ATOM     24  O   UNL d   1     -41.217  14.050  19.298  0.00  0.00    -0.198 OA
ATOM     25  O   UNL d   1     -40.428  14.723  20.580  0.00  0.00    -0.198 OA
BRANCH  23  26
ATOM     26  C   UNL d   1     -40.100  14.190  19.599  0.00  0.00     0.107 A 
ATOM     27  C   UNL d   1     -40.055  14.038  18.789  0.00  0.00     0.037 A 
ATOM     28  C   UNL d   1     -39.329  13.841  18.446  0.00  0.00     0.095 A 
ATOM     29  C   UNL d   1     -38.653  13.797  18.915  0.00  0.00     0.024 A 
ATOM     30  C   UNL d   1     -38.697  13.948  19.719  0.00  0.00     0.003 A 
ATOM     31  C   UNL d   1     -39.420  14.145  20.064  0.00  0.00     0.013 A 
BRANCH  28  32
ATOM     32  O   UNL d   1     -39.276  13.686  17.628  0.00  0.00    -0.328 OA
ATOM     33  C   UNL d   1     -38.606  13.315  17.316  0.00  0.00     0.181 C 
ENDBRANCH  28  32
ENDBRANCH  23  26
ENDBRANCH  22  23
ENDBRANCH   2  22
TORSDOF 6
ENDMDL
MODEL 4
REMARK VINA RESULT:      -2.5      3.195      8.076
REMARK  6 active torsions:
REMARK  status: ('A' for Active; 'I' for Inactive)
REMARK    1  A    between atoms: N_6  and  S_1 
REMARK    2  A    between atoms: C_7  and  S_1 
REMARK       I    between atoms: C_2  and  N_4 
REMARK    3  A    between atoms: C_8  and  C_2 
REMARK    4  A    between atoms: C_3  and  C_12 
REMARK       I    between atoms: N_5  and  C_3 
REMARK    5  A    between atoms: C_23  and  N_6 
REMARK    6  A    between atoms: O_29  and  C_26 
ROOT
ATOM      1  C   UNL d   1     -46.536  14.143  22.453  0.00  0.00     0.057 A 
ATOM      2  C   UNL d   1     -45.473  12.922  22.147  0.00  0.00     0.094 A 
ATOM      3  C   UNL d   1     -46.528  13.770  21.714  0.00  0.00     0.006 A 
ATOM      4  C   UNL d   1     -46.011  13.903  23.039  0.00  0.00     0.006 A 
ATOM      5  C   UNL d   1     -45.990  13.156  21.565  0.00  0.00     0.020 A 
ATOM      6  C   UNL d   1     -45.478  13.291  22.885  0.00  0.00     0.020 A 
ENDROOT
BRANCH   1   7
ATOM      7  C   UNL d   1     -47.075  14.761  22.606  0.00  0.00     0.265 C 
ATOM      8  N   UNL d   1     -47.879  14.598  22.729  0.00  0.00    -0.269 N 
ATOM      9  C   UNL d   1     -48.412  15.210  22.880  0.00  0.00     0.102 A 
ATOM     10  C   UNL d   1     -48.149  13.818  22.701  0.00  0.00     0.102 A 
ATOM     11  C   UNL d   1     -49.209  15.042  23.002  0.00  0.00     0.102 A 
ATOM     12  N   UNL d   1     -49.466  14.259  22.971  0.00  0.00    -0.267 N 
ATOM     13  C   UNL d   1     -50.261  14.088  23.092  0.00  0.00     0.288 C 
ATOM     14  C   UNL d   1     -48.941  13.650  22.821  0.00  0.00     0.102 A 
ATOM     15  O   UNL d   1     -50.796  14.704  23.243  0.00  0.00    -0.264 OA
ATOM     16  O   UNL d   1     -46.803  15.544  22.634  0.00  0.00    -0.267 OA
BRANCH  13  17
ATOM     17  C   UNL d   1     -50.526  13.316  23.063  0.00  0.00     0.156 A 
ATOM     18  O   UNL d   1     -50.556  12.780  23.698  0.00  0.00    -0.300 OA
ATOM     19  C   UNL d   1     -50.859  12.072  23.416  0.00  0.00     0.123 A 
ATOM     20  C   UNL d   1     -51.021  12.154  22.611  0.00  0.00     0.029 A 
ATOM     21  C   UNL d   1     -50.816  12.922  22.393  0.00  0.00     0.032 A 
ENDBRANCH  13  17
ENDBRANCH   1   7
BRANCH   2  22
ATOM     22  N   UNL d   1     -44.939  12.311  21.997  0.00  0.00    -0.158 NA
BRANCH  22  23
ATOM     23  S   UNL d   1     -44.160  12.487  21.823  0.00  0.00     0.285 S 
ATOM     24  O   UNL d   1     -44.355  12.567  21.024  0.00  0.00    -0.198 OA
ATOM     25  O   UNL d   1     -43.958  12.409  22.617  0.00  0.00    -0.198 OA
BRANCH  23  26
ATOM     26  C   UNL d   1     -43.374  12.665  21.644  0.00  0.00     0.107 A 
ATOM     27  C   UNL d   1     -43.195  13.331  21.190  0.00  0.00     0.037 A 
ATOM     28  C   UNL d   1     -42.408  13.509  21.012  0.00  0.00     0.095 A 
ATOM     29  C   UNL d   1     -41.804  13.021  21.289  0.00  0.00     0.024 A 
ATOM     30  C   UNL d   1     -41.981  12.361  21.739  0.00  0.00     0.003 A 
ATOM     31  C   UNL d   1     -42.766  12.179  21.919  0.00  0.00     0.013 A 
BRANCH  28  32
ATOM     32  O   UNL d   1     -42.220  14.180  20.553  0.00  0.00    -0.328 OA
ATOM     33  C   UNL d   1     -41.649  14.718  20.816  0.00  0.00     0.181 C 
ENDBRANCH  28  32
ENDBRANCH  23  26
ENDBRANCH  22  23
ENDBRANCH   2  22
TORSDOF 6
ENDMDL
MODEL 5
REMARK VINA RESULT:      -2.5      1.714      6.703
REMARK  6 active torsions:
REMARK  status: ('A' for Active; 'I' for Inactive)
REMARK    1  A    between atoms: N_6  and  S_1 
REMARK    2  A    between atoms: C_7  and  S_1 
REMARK       I    between atoms: C_2  and  N_4 
REMARK    3  A    between atoms: C_8  and  C_2 
REMARK    4  A    between atoms: C_3  and  C_12 
REMARK       I    between atoms: N_5  and  C_3 
REMARK    5  A    between atoms: C_23  and  N_6 
REMARK    6  A    between atoms: O_29  and  C_26 
ROOT
ATOM      1  C   UNL d   1     -43.044  12.783  21.581  0.00  0.00     0.057 A 
ATOM      2  C   UNL d   1     -42.142  13.890  20.759  0.00  0.00     0.094 A 
ATOM      3  C   UNL d   1     -42.564  13.319  21.990  0.00  0.00     0.006 A 
ATOM      4  C   UNL d   1     -43.072  12.803  20.759  0.00  0.00     0.006 A 
ATOM      5  C   UNL d   1     -42.112  13.874  21.571  0.00  0.00     0.020 A 
ATOM      6  C   UNL d   1     -42.621  13.358  20.347  0.00  0.00     0.020 A 
ENDROOT
BRANCH   1   7
ATOM      7  C   UNL d   1     -43.499  12.224  21.999  0.00  0.00     0.265 C 
ATOM      8  N   UNL d   1     -44.275  12.402  22.234  0.00  0.00    -0.269 N 
ATOM      9  C   UNL d   1     -44.725  11.847  22.648  0.00  0.00     0.102 A 
ATOM     10  C   UNL d   1     -44.600  13.140  22.053  0.00  0.00     0.102 A 
ATOM     11  C   UNL d   1     -45.495  12.030  22.879  0.00  0.00     0.102 A 
ATOM     12  N   UNL d   1     -45.807  12.770  22.692  0.00  0.00    -0.267 N 
ATOM     13  C   UNL d   1     -46.575  12.956  22.921  0.00  0.00     0.288 C 
ATOM     14  C   UNL d   1     -45.364  13.322  22.282  0.00  0.00     0.102 A 
ATOM     15  O   UNL d   1     -47.026  12.398  23.337  0.00  0.00    -0.264 OA
ATOM     16  O   UNL d   1     -43.173  11.483  22.181  0.00  0.00    -0.267 OA
BRANCH  13  17
ATOM     17  C   UNL d   1     -46.894  13.686  22.740  0.00  0.00     0.156 A 
ATOM     18  O   UNL d   1     -46.628  14.423  23.017  0.00  0.00    -0.300 OA
ATOM     19  C   UNL d   1     -47.111  15.003  22.694  0.00  0.00     0.123 A 
ATOM     20  C   UNL d   1     -47.679  14.640  22.217  0.00  0.00     0.029 A 
ATOM     21  C   UNL d   1     -47.545  13.827  22.245  0.00  0.00     0.032 A 
ENDBRANCH  13  17
ENDBRANCH   1   7
BRANCH   2  22
ATOM     22  N   UNL d   1     -41.692  14.444  20.344  0.00  0.00    -0.158 NA
BRANCH  22  23
ATOM     23  S   UNL d   1     -40.882  14.352  20.295  0.00  0.00     0.285 S 
ATOM     24  O   UNL d   1     -40.978  13.814  19.676  0.00  0.00    -0.198 OA
ATOM     25  O   UNL d   1     -40.778  14.887  20.912  0.00  0.00    -0.198 OA
BRANCH  23  26
ATOM     26  C   UNL d   1     -40.063  14.257  20.245  0.00  0.00     0.107 A 
ATOM     27  C   UNL d   1     -39.626  14.079  20.922  0.00  0.00     0.037 A 
ATOM     28  C   UNL d   1     -38.807  13.985  20.871  0.00  0.00     0.095 A 
ATOM     29  C   UNL d   1     -38.428  14.069  20.143  0.00  0.00     0.024 A 
ATOM     30  C   UNL d   1     -38.862  14.246  19.472  0.00  0.00     0.003 A 
ATOM     31  C   UNL d   1     -39.680  14.341  19.518  0.00  0.00     0.013 A 
BRANCH  28  32
ATOM     32  O   UNL d   1     -38.359  13.804  21.551  0.00  0.00    -0.328 OA
ATOM     33  C   UNL d   1     -37.940  13.092  21.599  0.00  0.00     0.181 C 
ENDBRANCH  28  32
ENDBRANCH  23  26
ENDBRANCH  22  23
ENDBRANCH   2  22
TORSDOF 6
ENDMDL
MODEL 6
REMARK VINA RESULT:      -2.3      2.357      4.316
REMARK  6 active torsions:
REMARK  status: ('A' for Active; 'I' for Inactive)
REMARK    1  A    between atoms: N_6  and  S_1 
REMARK    2  A    between atoms: C_7  and  S_1 
REMARK       I    between atoms: C_2  and  N_4 
REMARK    3  A    between atoms: C_8  and  C_2 
REMARK    4  A    between atoms: C_3  and  C_12 
REMARK       I    between atoms: N_5  and  C_3 
REMARK    5  A    between atoms: C_23  and  N_6 
REMARK    6  A    between atoms: O_29  and  C_26 
ROOT
ATOM      1  C   UNL d   1     -44.898  12.720  22.146  0.00  0.00     0.057 A 
ATOM      2  C   UNL d   1     -46.333  13.527  22.207  0.00  0.00     0.094 A 
ATOM      3  C   UNL d   1     -45.228  12.934  22.875  0.00  0.00     0.006 A 
ATOM      4  C   UNL d   1     -45.288  12.911  21.448  0.00  0.00     0.006 A 
ATOM      5  C   UNL d   1     -45.951  13.340  22.899  0.00  0.00     0.020 A 
ATOM      6  C   UNL d   1     -46.008  13.316  21.478  0.00  0.00     0.020 A 
ENDROOT
BRANCH   1   7
ATOM      7  C   UNL d   1     -44.172  12.312  22.118  0.00  0.00     0.265 C 
ATOM      8  N   UNL d   1     -43.487  12.687  21.835  0.00  0.00    -0.269 N 
ATOM      9  C   UNL d   1     -42.769  12.281  21.808  0.00  0.00     0.102 A 
ATOM     10  C   UNL d   1     -43.526  13.471  21.579  0.00  0.00     0.102 A 
ATOM     11  C   UNL d   1     -42.093  12.659  21.526  0.00  0.00     0.102 A 
ATOM     12  N   UNL d   1     -42.144  13.443  21.274  0.00  0.00    -0.267 N 
ATOM     13  C   UNL d   1     -41.471  13.823  20.992  0.00  0.00     0.288 C 
ATOM     14  C   UNL d   1     -42.854  13.847  21.300  0.00  0.00     0.102 A 
ATOM     15  O   UNL d   1     -40.749  13.415  20.965  0.00  0.00    -0.264 OA
ATOM     16  O   UNL d   1     -44.135  11.524  22.375  0.00  0.00    -0.267 OA
BRANCH  13  17
ATOM     17  C   UNL d   1     -41.511  14.599  20.740  0.00  0.00     0.156 A 
ATOM     18  O   UNL d   1     -41.724  15.257  21.199  0.00  0.00    -0.300 OA
ATOM     19  C   UNL d   1     -41.688  15.922  20.719  0.00  0.00     0.123 A 
ATOM     20  C   UNL d   1     -41.454  15.690  19.962  0.00  0.00     0.029 A 
ATOM     21  C   UNL d   1     -41.345  14.873  19.975  0.00  0.00     0.032 A 
ENDBRANCH  13  17
ENDBRANCH   1   7
BRANCH   2  22
ATOM     22  N   UNL d   1     -47.053  13.932  22.234  0.00  0.00    -0.158 NA
BRANCH  22  23
ATOM     23  S   UNL d   1     -47.753  13.511  22.244  0.00  0.00     0.285 S 
ATOM     24  O   UNL d   1     -47.642  13.304  21.452  0.00  0.00    -0.198 OA
ATOM     25  O   UNL d   1     -47.871  13.714  23.033  0.00  0.00    -0.198 OA
BRANCH  23  26
ATOM     26  C   UNL d   1     -48.461  13.086  22.252  0.00  0.00     0.107 A 
ATOM     27  C   UNL d   1     -48.618  12.559  22.866  0.00  0.00     0.037 A 
ATOM     28  C   UNL d   1     -49.326  12.133  22.874  0.00  0.00     0.095 A 
ATOM     29  C   UNL d   1     -49.874  12.237  22.267  0.00  0.00     0.024 A 
ATOM     30  C   UNL d   1     -49.718  12.760  21.657  0.00  0.00     0.003 A 
ATOM     31  C   UNL d   1     -49.012  13.187  21.645  0.00  0.00     0.013 A 
BRANCH  28  32
ATOM     32  O   UNL d   1     -49.492  11.599  23.493  0.00  0.00    -0.328 OA
ATOM     33  C   UNL d   1     -50.274  11.418  23.691  0.00  0.00     0.181 C 
ENDBRANCH  28  32
ENDBRANCH  23  26
ENDBRANCH  22  23
ENDBRANCH   2  22
TORSDOF 6
ENDMDL
MODEL 7
REMARK VINA RESULT:      -1.4      5.001      8.087
REMARK  6 active torsions:
REMARK  status: ('A' for Active; 'I' for Inactive)
REMARK    1  A    between atoms: N_6  and  S_1 
REMARK    2  A    between atoms: C_7  and  S_1 
REMARK       I    between atoms: C_2  and  N_4 
REMARK    3  A    between atoms: C_8  and  C_2 
REMARK    4  A    between atoms: C_3  and  C_12 
REMARK       I    between atoms: N_5  and  C_3 
REMARK    5  A    between atoms: C_23  and  N_6 
REMARK    6  A    between atoms: O_29  and  C_26 
ROOT
ATOM      1  C   UNL d   1     -46.863  14.479  22.491  0.00  0.00     0.057 A 
ATOM      2  C   UNL d   1     -45.470  13.627  22.268  0.00  0.00     0.094 A 
ATOM      3  C   UNL d   1     -46.236  14.553  23.027  0.00  0.00     0.006 A 
ATOM      4  C   UNL d   1     -46.791  13.978  21.843  0.00  0.00     0.006 A 
ATOM      5  C   UNL d   1     -45.537  14.121  22.909  0.00  0.00     0.020 A 
ATOM      6  C   UNL d   1     -46.093  13.551  21.731  0.00  0.00     0.020 A 
ENDROOT
BRANCH   1   7
ATOM      7  C   UNL d   1     -47.566  14.912  22.606  0.00  0.00     0.265 C 
ATOM      8  N   UNL d   1     -48.272  14.523  22.805  0.00  0.00    -0.269 N 
ATOM      9  C   UNL d   1     -48.968  14.953  22.919  0.00  0.00     0.102 A 
ATOM     10  C   UNL d   1     -48.279  13.702  22.888  0.00  0.00     0.102 A 
ATOM     11  C   UNL d   1     -49.666  14.561  23.115  0.00  0.00     0.102 A 
ATOM     12  N   UNL d   1     -49.660  13.741  23.196  0.00  0.00    -0.267 N 
ATOM     13  C   UNL d   1     -50.355  13.347  23.392  0.00  0.00     0.288 C 
ATOM     14  C   UNL d   1     -48.972  13.313  23.084  0.00  0.00     0.102 A 
ATOM     15  O   UNL d   1     -51.054  13.779  23.507  0.00  0.00    -0.264 OA
ATOM     16  O   UNL d   1     -47.558  15.737  22.522  0.00  0.00    -0.267 OA
BRANCH  13  17
ATOM     17  C   UNL d   1     -50.360  12.534  23.475  0.00  0.00     0.156 A 
ATOM     18  O   UNL d   1     -49.712  12.024  23.374  0.00  0.00    -0.300 OA
ATOM     19  C   UNL d   1     -49.971  11.258  23.511  0.00  0.00     0.123 A 
ATOM     20  C   UNL d   1     -50.775  11.279  23.698  0.00  0.00     0.029 A 
ATOM     21  C   UNL d   1     -51.015  12.067  23.675  0.00  0.00     0.032 A 
ENDBRANCH  13  17
ENDBRANCH   1   7
BRANCH   2  22
ATOM     22  N   UNL d   1     -44.774  13.199  22.152  0.00  0.00    -0.158 NA
BRANCH  22  23
ATOM     23  S   UNL d   1     -44.690  12.463  22.498  0.00  0.00     0.285 S 
ATOM     24  O   UNL d   1     -44.569  12.125  21.754  0.00  0.00    -0.198 OA
ATOM     25  O   UNL d   1     -44.809  12.793  23.243  0.00  0.00    -0.198 OA
BRANCH  23  26
ATOM     26  C   UNL d   1     -44.604  11.719  22.845  0.00  0.00     0.107 A 
ATOM     27  C   UNL d   1     -45.270  11.301  23.095  0.00  0.00     0.037 A 
ATOM     28  C   UNL d   1     -45.184  10.557  23.442  0.00  0.00     0.095 A 
ATOM     29  C   UNL d   1     -44.431  10.234  23.539  0.00  0.00     0.024 A 
ATOM     30  C   UNL d   1     -43.770  10.648  23.291  0.00  0.00     0.003 A 
ATOM     31  C   UNL d   1     -43.852  11.392  22.944  0.00  0.00     0.013 A 
BRANCH  28  32
ATOM     32  O   UNL d   1     -45.853  10.128  23.697  0.00  0.00    -0.328 OA
ATOM     33  C   UNL d   1     -46.446   9.921  23.158  0.00  0.00     0.181 C 
ENDBRANCH  28  32
ENDBRANCH  23  26
ENDBRANCH  22  23
ENDBRANCH   2  22
TORSDOF 6
ENDMDL
