MODEL 1
REMARK VINA RESULT:      -7.6      0.000      0.000
REMARK  5 active torsions:
REMARK  status: ('A' for Active; 'I' for Inactive)
REMARK    1  A    between atoms: N_10  and  C_3 
REMARK    2  A    between atoms: C_11  and  C_5 
REMARK    3  A    between atoms: C_16  and  C_7 
REMARK    4  A    between atoms: C_15  and  N_10 
REMARK       I    between atoms: C_12  and  N_13 
REMARK    5  A    between atoms: N_13  and  C_17 
ROOT
ATOM      1  N   UNL d   1      52.292  34.047  53.541  0.00  0.00    -0.184 N 
ATOM      2  C   UNL d   1      52.997  33.824  53.908  0.00  0.00     0.168 A 
ATOM      3  C   UNL d   1      51.876  33.511  53.119  0.00  0.00     0.217 A 
ATOM      4  N   UNL d   1      52.445  35.332  54.031  0.00  0.00    -0.162 NA
ATOM      5  C   UNL d   1      53.408  34.354  54.325  0.00  0.00     0.055 A 
ATOM      6  N   UNL d   1      53.256  33.073  53.837  0.00  0.00    -0.227 NA
ATOM      7  C   UNL d   1      52.139  32.755  53.049  0.00  0.00     0.066 A 
ATOM      8  C   UNL d   1      53.138  35.112  54.392  0.00  0.00     0.104 A 
ATOM      9  C   UNL d   1      52.844  32.531  53.416  0.00  0.00     0.087 A 
ATOM     10  C   UNL d   1      53.561  35.643  54.816  0.00  0.00     0.023 C 
ATOM     11  C   UNL d   1      53.121  31.742  53.344  0.00  0.00     0.021 C 
ENDROOT
BRANCH   3  12
ATOM     12  N   UNL d   1      51.169  33.742  52.753  0.00  0.00    -0.383 NA
BRANCH  12  13
ATOM     13  C   UNL d   1      50.473  34.056  52.433  0.00  0.00     0.134 A 
ATOM     14  C   UNL d   1      50.424  34.208  51.623  0.00  0.00     0.034 A 
ATOM     15  C   UNL d   1      49.722  34.523  51.311  0.00  0.00     0.022 A 
ATOM     16  C   UNL d   1      49.080  34.682  51.804  0.00  0.00     0.085 A 
ATOM     17  C   UNL d   1      49.124  34.531  52.617  0.00  0.00     0.022 A 
ATOM     18  C   UNL d   1      49.827  34.214  52.939  0.00  0.00     0.034 A 
BRANCH  16  19
ATOM     19  N   UNL d   1      48.384  34.997  51.474  0.00  0.00    -0.208 NA
ATOM     20  C   UNL d   1      48.005  35.629  51.862  0.00  0.00     0.279 C 
ATOM     21  O   UNL d   1      47.320  35.947  51.548  0.00  0.00    -0.265 OA
ATOM     22  C   UNL d   1      48.313  35.940  52.563  0.00  0.00     0.068 C 
ENDBRANCH  16  19
ENDBRANCH  12  13
ENDBRANCH   3  12
BRANCH   7  23
ATOM     23  C   UNL d   1      51.719  32.186  52.614  0.00  0.00     0.006 C 
ATOM     24  C   UNL d   1      51.746  31.376  52.825  0.00  0.00     0.000 C 
ENDBRANCH   7  23
BRANCH   5  25
ATOM     25  C   UNL d   1      54.091  34.138  54.681  0.00  0.00     0.004 A 
ATOM     26  C   UNL d   1      54.788  34.215  54.302  0.00  0.00     0.000 A 
ATOM     27  C   UNL d   1      55.482  33.996  54.663  0.00  0.00     0.000 A 
ATOM     28  C   UNL d   1      55.468  33.701  55.397  0.00  0.00     0.000 A 
ATOM     29  C   UNL d   1      54.764  33.620  55.786  0.00  0.00     0.000 A 
ATOM     30  C   UNL d   1      54.081  33.837  55.430  0.00  0.00     0.000 A 
ENDBRANCH   5  25
TORSDOF 5
ENDMDL
MODEL 2
REMARK VINA RESULT:      -6.5      1.991      5.735
REMARK  5 active torsions:
REMARK  status: ('A' for Active; 'I' for Inactive)
REMARK    1  A    between atoms: N_10  and  C_3 
REMARK    2  A    between atoms: C_11  and  C_5 
REMARK    3  A    between atoms: C_16  and  C_7 
REMARK    4  A    between atoms: C_15  and  N_10 
REMARK       I    between atoms: C_12  and  N_13 
REMARK    5  A    between atoms: N_13  and  C_17 
ROOT
ATOM      1  N   UNL d   1      49.335  35.150  52.976  0.00  0.00    -0.184 N 
ATOM      2  C   UNL d   1      48.591  35.320  52.661  0.00  0.00     0.168 A 
ATOM      3  C   UNL d   1      49.862  34.729  52.545  0.00  0.00     0.217 A 
ATOM      4  N   UNL d   1      49.000  35.825  54.135  0.00  0.00    -0.162 NA
ATOM      5  C   UNL d   1      48.071  35.736  53.086  0.00  0.00     0.055 A 
ATOM      6  N   UNL d   1      48.405  35.063  51.930  0.00  0.00    -0.227 NA
ATOM      7  C   UNL d   1      49.672  34.471  51.808  0.00  0.00     0.066 A 
ATOM      8  C   UNL d   1      48.268  35.993  53.826  0.00  0.00     0.104 A 
ATOM      9  C   UNL d   1      48.928  34.641  51.494  0.00  0.00     0.087 A 
ATOM     10  C   UNL d   1      47.735  36.413  54.250  0.00  0.00     0.023 C 
ATOM     11  C   UNL d   1      48.727  34.372  50.724  0.00  0.00     0.021 C 
ENDROOT
BRANCH   3  12
ATOM     12  N   UNL d   1      50.607  34.562  52.867  0.00  0.00    -0.383 NA
BRANCH  12  13
ATOM     13  C   UNL d   1      51.305  34.362  53.265  0.00  0.00     0.134 A 
ATOM     14  C   UNL d   1      51.915  34.915  53.329  0.00  0.00     0.034 A 
ATOM     15  C   UNL d   1      52.612  34.707  53.729  0.00  0.00     0.022 A 
ATOM     16  C   UNL d   1      52.695  33.955  54.060  0.00  0.00     0.085 A 
ATOM     17  C   UNL d   1      52.086  33.397  53.998  0.00  0.00     0.022 A 
ATOM     18  C   UNL d   1      51.382  33.600  53.597  0.00  0.00     0.034 A 
BRANCH  16  19
ATOM     19  N   UNL d   1      53.400  33.762  54.458  0.00  0.00    -0.208 NA
ATOM     20  C   UNL d   1      53.894  33.173  54.138  0.00  0.00     0.279 C 
ATOM     21  O   UNL d   1      54.589  32.975  54.521  0.00  0.00    -0.265 OA
ATOM     22  C   UNL d   1      53.691  32.785  53.438  0.00  0.00     0.068 C 
ENDBRANCH  16  19
ENDBRANCH  12  13
ENDBRANCH   3  12
BRANCH   7  23
ATOM     23  C   UNL d   1      50.207  34.033  51.349  0.00  0.00     0.006 C 
ATOM     24  C   UNL d   1      50.570  34.369  50.673  0.00  0.00     0.000 C 
ENDBRANCH   7  23
BRANCH   5  25
ATOM     25  C   UNL d   1      47.350  35.901  52.782  0.00  0.00     0.004 A 
ATOM     26  C   UNL d   1      47.250  36.518  52.287  0.00  0.00     0.000 A 
ATOM     27  C   UNL d   1      46.518  36.686  51.978  0.00  0.00     0.000 A 
ATOM     28  C   UNL d   1      45.897  36.234  52.168  0.00  0.00     0.000 A 
ATOM     29  C   UNL d   1      45.992  35.608  52.669  0.00  0.00     0.000 A 
ATOM     30  C   UNL d   1      46.713  35.443  52.973  0.00  0.00     0.000 A 
ENDBRANCH   5  25
TORSDOF 5
ENDMDL
MODEL 3
REMARK VINA RESULT:      -5.9      1.580      3.204
REMARK  5 active torsions:
REMARK  status: ('A' for Active; 'I' for Inactive)
REMARK    1  A    between atoms: N_10  and  C_3 
REMARK    2  A    between atoms: C_11  and  C_5 
REMARK    3  A    between atoms: C_16  and  C_7 
REMARK    4  A    between atoms: C_15  and  N_10 
REMARK       I    between atoms: C_12  and  N_13 
REMARK    5  A    between atoms: N_13  and  C_17 
ROOT
ATOM      1  N   UNL d   1      52.346  31.847  53.348  0.00  0.00    -0.184 N 
ATOM      2  C   UNL d   1      52.893  31.297  53.629  0.00  0.00     0.168 A 
ATOM      3  C   UNL d   1      52.480  32.629  53.447  0.00  0.00     0.217 A 
ATOM      4  N   UNL d   1      51.551  30.816  52.880  0.00  0.00    -0.162 NA
ATOM      5  C   UNL d   1      52.761  30.525  53.531  0.00  0.00     0.055 A 
ATOM      6  N   UNL d   1      53.552  31.553  53.998  0.00  0.00    -0.227 NA
ATOM      7  C   UNL d   1      53.145  32.884  53.819  0.00  0.00     0.066 A 
ATOM      8  C   UNL d   1      52.090  30.275  53.156  0.00  0.00     0.104 A 
ATOM      9  C   UNL d   1      53.692  32.335  54.100  0.00  0.00     0.087 A 
ATOM     10  C   UNL d   1      51.964  29.490  53.061  0.00  0.00     0.023 C 
ATOM     11  C   UNL d   1      54.389  32.598  54.489  0.00  0.00     0.021 C 
ENDROOT
BRANCH   3  12
ATOM     12  N   UNL d   1      51.925  33.175  53.162  0.00  0.00    -0.383 NA
BRANCH  12  13
ATOM     13  C   UNL d   1      51.308  33.651  52.886  0.00  0.00     0.134 A 
ATOM     14  C   UNL d   1      50.630  33.757  53.346  0.00  0.00     0.034 A 
ATOM     15  C   UNL d   1      50.016  34.236  53.061  0.00  0.00     0.022 A 
ATOM     16  C   UNL d   1      50.080  34.604  52.325  0.00  0.00     0.085 A 
ATOM     17  C   UNL d   1      50.757  34.501  51.859  0.00  0.00     0.022 A 
ATOM     18  C   UNL d   1      51.380  34.020  52.140  0.00  0.00     0.034 A 
BRANCH  16  19
ATOM     19  N   UNL d   1      49.454  35.081  52.054  0.00  0.00    -0.208 NA
ATOM     20  C   UNL d   1      48.961  34.793  51.447  0.00  0.00     0.279 C 
ATOM     21  O   UNL d   1      48.344  35.253  51.173  0.00  0.00    -0.265 OA
ATOM     22  C   UNL d   1      49.089  34.046  51.118  0.00  0.00     0.068 C 
ENDBRANCH  16  19
ENDBRANCH  12  13
ENDBRANCH   3  12
BRANCH   7  23
ATOM     23  C   UNL d   1      53.299  33.692  53.930  0.00  0.00     0.006 C 
ATOM     24  C   UNL d   1      53.717  33.963  54.603  0.00  0.00     0.000 C 
ENDBRANCH   7  23
BRANCH   5  25
ATOM     25  C   UNL d   1      53.292  29.992  53.804  0.00  0.00     0.004 A 
ATOM     26  C   UNL d   1      53.951  29.826  53.387  0.00  0.00     0.000 A 
ATOM     27  C   UNL d   1      54.489  29.285  53.664  0.00  0.00     0.000 A 
ATOM     28  C   UNL d   1      54.361  28.919  54.353  0.00  0.00     0.000 A 
ATOM     29  C   UNL d   1      53.695  29.083  54.779  0.00  0.00     0.000 A 
ATOM     30  C   UNL d   1      53.165  29.615  54.507  0.00  0.00     0.000 A 
ENDBRANCH   5  25
TORSDOF 5
ENDMDL
MODEL 4
REMARK VINA RESULT:      -5.4      1.255      2.718
REMARK  5 active torsions:
REMARK  status: ('A' for Active; 'I' for Inactive)
REMARK    1  A    between atoms: N_10  and  C_3 
REMARK    2  A    between atoms: C_11  and  C_5 
REMARK    3  A    between atoms: C_16  and  C_7 
REMARK    4  A    between atoms: C_15  and  N_10 
REMARK       I    between atoms: C_12  and  N_13 
REMARK    5  A    between atoms: N_13  and  C_17 
ROOT
ATOM      1  N   UNL d   1      51.621  32.779  53.126  0.00  0.00    -0.184 N 
ATOM      2  C   UNL d   1      52.290  32.315  53.257  0.00  0.00     0.168 A 
ATOM      3  C   UNL d   1      51.694  33.574  53.067  0.00  0.00     0.217 A 
ATOM      4  N   UNL d   1      50.834  31.643  53.118  0.00  0.00    -0.162 NA
ATOM      5  C   UNL d   1      52.219  31.531  53.316  0.00  0.00     0.055 A 
ATOM      6  N   UNL d   1      53.004  32.664  53.324  0.00  0.00    -0.227 NA
ATOM      7  C   UNL d   1      52.414  33.924  53.134  0.00  0.00     0.066 A 
ATOM      8  C   UNL d   1      51.492  31.186  53.247  0.00  0.00     0.104 A 
ATOM      9  C   UNL d   1      53.083  33.459  53.266  0.00  0.00     0.087 A 
ATOM     10  C   UNL d   1      51.428  30.390  53.308  0.00  0.00     0.023 C 
ATOM     11  C   UNL d   1      53.837  33.822  53.337  0.00  0.00     0.021 C 
ENDROOT
BRANCH   3  12
ATOM     12  N   UNL d   1      51.017  34.034  52.935  0.00  0.00    -0.383 NA
BRANCH  12  13
ATOM     13  C   UNL d   1      50.299  34.414  52.775  0.00  0.00     0.134 A 
ATOM     14  C   UNL d   1      50.003  34.430  52.004  0.00  0.00     0.034 A 
ATOM     15  C   UNL d   1      49.282  34.813  51.854  0.00  0.00     0.022 A 
ATOM     16  C   UNL d   1      48.865  35.174  52.467  0.00  0.00     0.085 A 
ATOM     17  C   UNL d   1      49.157  35.160  53.242  0.00  0.00     0.022 A 
ATOM     18  C   UNL d   1      49.882  34.777  53.401  0.00  0.00     0.034 A 
BRANCH  16  19
ATOM     19  N   UNL d   1      48.143  35.554  52.299  0.00  0.00    -0.208 NA
ATOM     20  C   UNL d   1      47.852  36.120  52.835  0.00  0.00     0.279 C 
ATOM     21  O   UNL d   1      47.144  36.499  52.680  0.00  0.00    -0.265 OA
ATOM     22  C   UNL d   1      48.269  36.304  53.524  0.00  0.00     0.068 C 
ENDBRANCH  16  19
ENDBRANCH  12  13
ENDBRANCH   3  12
BRANCH   7  23
ATOM     23  C   UNL d   1      52.506  34.746  53.075  0.00  0.00     0.006 C 
ATOM     24  C   UNL d   1      52.955  35.172  53.640  0.00  0.00     0.000 C 
ENDBRANCH   7  23
BRANCH   5  25
ATOM     25  C   UNL d   1      52.868  31.080  53.444  0.00  0.00     0.004 A 
ATOM     26  C   UNL d   1      53.135  30.954  54.184  0.00  0.00     0.000 A 
ATOM     27  C   UNL d   1      53.794  30.497  54.313  0.00  0.00     0.000 A 
ATOM     28  C   UNL d   1      54.175  30.173  53.700  0.00  0.00     0.000 A 
ATOM     29  C   UNL d   1      53.908  30.297  52.948  0.00  0.00     0.000 A 
ATOM     30  C   UNL d   1      53.260  30.748  52.821  0.00  0.00     0.000 A 
ENDBRANCH   5  25
TORSDOF 5
ENDMDL
