MODEL 1
REMARK VINA RESULT:      16.2      0.000      0.000
REMARK  4 active torsions:
REMARK  status: ('A' for Active; 'I' for Inactive)
REMARK    1  A    between atoms: C_6  and  C_1 
REMARK    2  A    between atoms: C_7  and  C_4 
REMARK    3  A    between atoms: O_10  and  C_6 
REMARK    4  A    between atoms: O_12  and  C_11 
ROOT
ATOM      1  C   UNL d   1      59.892  49.605  50.784  0.00  0.00     0.173 A 
ATOM      2  N   UNL d   1      60.065  49.649  49.976  0.00  0.00    -0.121 NA
ATOM      3  C   UNL d   1      59.071  49.608  50.868  0.00  0.00     0.054 A 
ATOM      4  C   UNL d   1      58.734  49.654  50.112  0.00  0.00     0.127 A 
ATOM      5  O   UNL d   1      59.353  49.679  49.564  0.00  0.00    -0.211 OA
ENDROOT
BRANCH   4   6
ATOM      6  C   UNL d   1      57.926  49.671  49.943  0.00  0.00     0.027 A 
ATOM      7  C   UNL d   1      57.388  49.679  50.567  0.00  0.00     0.026 A 
ATOM      8  C   UNL d   1      56.584  49.696  50.406  0.00  0.00     0.094 A 
ATOM      9  C   UNL d   1      56.313  49.705  49.623  0.00  0.00     0.024 A 
ATOM     10  C   UNL d   1      56.857  49.698  49.006  0.00  0.00     0.002 A 
ATOM     11  C   UNL d   1      57.662  49.681  49.163  0.00  0.00     0.002 A 
BRANCH   8  12
ATOM     12  O   UNL d   1      56.036  49.703  51.031  0.00  0.00    -0.328 OA
ATOM     13  C   UNL d   1      56.245  49.390  51.769  0.00  0.00     0.181 C 
ENDBRANCH   8  12
ENDBRANCH   4   6
BRANCH   1  14
ATOM     14  C   UNL d   1      60.437  49.565  51.406  0.00  0.00     0.316 C 
ATOM     15  O   UNL d   1      61.230  49.407  51.254  0.00  0.00    -0.257 OA
BRANCH  14  16
ATOM     16  O   UNL d   1      60.175  49.686  52.184  0.00  0.00    -0.294 OA
ATOM     17  C   UNL d   1      60.706  49.609  52.814  0.00  0.00     0.185 C 
ENDBRANCH  14  16
ENDBRANCH   1  14
TORSDOF 4
ENDMDL
MODEL 2
REMARK VINA RESULT:      17.7      1.159      3.850
REMARK  4 active torsions:
REMARK  status: ('A' for Active; 'I' for Inactive)
REMARK    1  A    between atoms: C_6  and  C_1 
REMARK    2  A    between atoms: C_7  and  C_4 
REMARK    3  A    between atoms: O_10  and  C_6 
REMARK    4  A    between atoms: O_12  and  C_11 
ROOT
ATOM      1  C   UNL d   1      57.500  49.592  50.766  0.00  0.00     0.173 A 
ATOM      2  N   UNL d   1      57.640  49.678  51.578  0.00  0.00    -0.121 NA
ATOM      3  C   UNL d   1      58.232  49.569  50.384  0.00  0.00     0.054 A 
ATOM      4  C   UNL d   1      58.825  49.641  50.958  0.00  0.00     0.127 A 
ATOM      5  O   UNL d   1      58.455  49.708  51.694  0.00  0.00    -0.211 OA
ENDROOT
BRANCH   4   6
ATOM      6  C   UNL d   1      59.638  49.644  50.813  0.00  0.00     0.027 A 
ATOM      7  C   UNL d   1      60.158  49.657  51.453  0.00  0.00     0.026 A 
ATOM      8  C   UNL d   1      60.966  49.660  51.316  0.00  0.00     0.094 A 
ATOM      9  C   UNL d   1      61.260  49.651  50.540  0.00  0.00     0.024 A 
ATOM     10  C   UNL d   1      60.735  49.637  49.908  0.00  0.00     0.002 A 
ATOM     11  C   UNL d   1      59.925  49.634  50.041  0.00  0.00     0.002 A 
BRANCH   8  12
ATOM     12  O   UNL d   1      61.495  49.674  51.956  0.00  0.00    -0.328 OA
ATOM     13  C   UNL d   1      61.224  49.510  52.721  0.00  0.00     0.181 C 
ENDBRANCH   8  12
ENDBRANCH   4   6
BRANCH   1  14
ATOM     14  C   UNL d   1      56.763  49.537  50.394  0.00  0.00     0.316 C 
ATOM     15  O   UNL d   1      56.082  49.400  50.836  0.00  0.00    -0.257 OA
BRANCH  14  16
ATOM     16  O   UNL d   1      56.717  49.622  49.570  0.00  0.00    -0.294 OA
ATOM     17  C   UNL d   1      56.042  49.364  49.166  0.00  0.00     0.185 C 
ENDBRANCH  14  16
ENDBRANCH   1  14
TORSDOF 4
ENDMDL
