MODEL 1
REMARK VINA RESULT:      -9.7      0.000      0.000
REMARK  3 active torsions:
REMARK  status: ('A' for Active; 'I' for Inactive)
REMARK    1  A    between atoms: N_2  and  C_1 
REMARK    2  A    between atoms: C_4  and  C_1 
REMARK       I    between atoms: C_3  and  N_2 
REMARK       I    between atoms: N_5  and  C_3 
REMARK       I    between atoms: C_6  and  N_5 
REMARK    3  A    between atoms: C_11  and  C_6 
ROOT
ATOM      1  N   UNL d   1      53.128  33.805  53.990  0.00  0.00    -0.159 NA
ATOM      2  C   UNL d   1      53.219  34.431  54.535  0.00  0.00     0.371 C 
ATOM      3  N   UNL d   1      53.839  34.418  55.083  0.00  0.00    -0.152 NA
ATOM      4  C   UNL d   1      54.374  33.777  55.093  0.00  0.00     0.283 C 
ATOM      5  O   UNL d   1      52.697  35.034  54.510  0.00  0.00    -0.243 OA
ATOM      6  O   UNL d   1      54.983  33.763  55.630  0.00  0.00    -0.265 OA
ENDROOT
BRANCH   1   7
ATOM      7  C   UNL d   1      52.510  33.816  53.441  0.00  0.00     0.386 A 
ATOM      8  O   UNL d   1      53.159  34.337  53.455  0.00  0.00    -0.281 OA
ATOM      9  C   UNL d   1      53.077  34.860  52.829  0.00  0.00     0.147 A 
ATOM     10  C   UNL d   1      52.394  34.674  52.431  0.00  0.00     0.147 A 
ATOM     11  O   UNL d   1      52.054  34.019  52.830  0.00  0.00    -0.281 OA
BRANCH   7  12
ATOM     12  C   UNL d   1      51.988  33.203  53.637  0.00  0.00     0.470 C 
ATOM     13  F   UNL d   1      51.800  33.592  54.346  0.00  0.00    -0.164 F 
ATOM     14  F   UNL d   1      52.188  32.824  52.921  0.00  0.00    -0.164 F 
ATOM     15  F   UNL d   1      51.462  32.577  53.826  0.00  0.00    -0.164 F 
ENDBRANCH   7  12
ENDBRANCH   1   7
BRANCH   4  16
ATOM     16  C   UNL d   1      54.295  33.158  54.563  0.00  0.00     0.058 A 
ATOM     17  C   UNL d   1      53.848  32.494  54.763  0.00  0.00     0.005 A 
ATOM     18  C   UNL d   1      53.761  31.867  54.238  0.00  0.00     0.000 A 
ATOM     19  C   UNL d   1      54.134  31.913  53.498  0.00  0.00     0.000 A 
ATOM     20  C   UNL d   1      54.581  32.575  53.294  0.00  0.00     0.000 A 
ATOM     21  C   UNL d   1      54.659  33.189  53.821  0.00  0.00     0.005 A 
ENDBRANCH   4  16
TORSDOF 3
ENDMDL
MODEL 2
REMARK VINA RESULT:      -9.6      1.401      2.258
REMARK  3 active torsions:
REMARK  status: ('A' for Active; 'I' for Inactive)
REMARK    1  A    between atoms: N_2  and  C_1 
REMARK    2  A    between atoms: C_4  and  C_1 
REMARK       I    between atoms: C_3  and  N_2 
REMARK       I    between atoms: N_5  and  C_3 
REMARK       I    between atoms: C_6  and  N_5 
REMARK    3  A    between atoms: C_11  and  C_6 
ROOT
ATOM      1  N   UNL d   1      52.879  33.212  53.372  0.00  0.00    -0.159 NA
ATOM      2  C   UNL d   1      52.702  32.619  52.812  0.00  0.00     0.371 C 
ATOM      3  N   UNL d   1      53.138  31.916  52.798  0.00  0.00    -0.152 NA
ATOM      4  C   UNL d   1      53.756  31.797  53.346  0.00  0.00     0.283 C 
ATOM      5  O   UNL d   1      52.107  32.752  52.296  0.00  0.00    -0.243 OA
ATOM      6  O   UNL d   1      54.184  31.108  53.334  0.00  0.00    -0.265 OA
ENDROOT
BRANCH   1   7
ATOM      7  C   UNL d   1      52.446  33.915  53.388  0.00  0.00     0.386 A 
ATOM      8  O   UNL d   1      52.148  33.156  53.551  0.00  0.00    -0.281 OA
ATOM      9  C   UNL d   1      51.351  33.229  53.729  0.00  0.00     0.147 A 
ATOM     10  C   UNL d   1      51.152  34.015  53.679  0.00  0.00     0.147 A 
ATOM     11  O   UNL d   1      51.850  34.427  53.465  0.00  0.00    -0.281 OA
BRANCH   7  12
ATOM     12  C   UNL d   1      52.962  34.533  53.191  0.00  0.00     0.470 C 
ATOM     13  F   UNL d   1      53.039  34.223  52.424  0.00  0.00    -0.164 F 
ATOM     14  F   UNL d   1      52.875  34.834  53.965  0.00  0.00    -0.164 F 
ATOM     15  F   UNL d   1      53.483  35.163  53.001  0.00  0.00    -0.164 F 
ENDBRANCH   7  12
ENDBRANCH   1   7
BRANCH   4  16
ATOM     16  C   UNL d   1      53.939  32.372  53.901  0.00  0.00     0.058 A 
ATOM     17  C   UNL d   1      54.507  32.945  53.733  0.00  0.00     0.005 A 
ATOM     18  C   UNL d   1      54.698  33.527  54.283  0.00  0.00     0.000 A 
ATOM     19  C   UNL d   1      54.306  33.525  55.015  0.00  0.00     0.000 A 
ATOM     20  C   UNL d   1      53.738  32.953  55.186  0.00  0.00     0.000 A 
ATOM     21  C   UNL d   1      53.558  32.385  54.635  0.00  0.00     0.005 A 
ENDBRANCH   4  16
TORSDOF 3
ENDMDL
MODEL 3
REMARK VINA RESULT:      -9.2      1.259      2.649
REMARK  3 active torsions:
REMARK  status: ('A' for Active; 'I' for Inactive)
REMARK    1  A    between atoms: N_2  and  C_1 
REMARK    2  A    between atoms: C_4  and  C_1 
REMARK       I    between atoms: C_3  and  N_2 
REMARK       I    between atoms: N_5  and  C_3 
REMARK       I    between atoms: C_6  and  N_5 
REMARK    3  A    between atoms: C_11  and  C_6 
ROOT
ATOM      1  N   UNL d   1      53.740  33.715  54.245  0.00  0.00    -0.159 NA
ATOM      2  C   UNL d   1      54.090  34.225  54.805  0.00  0.00     0.371 C 
ATOM      3  N   UNL d   1      53.778  34.981  54.931  0.00  0.00    -0.152 NA
ATOM      4  C   UNL d   1      53.113  35.236  54.496  0.00  0.00     0.283 C 
ATOM      5  O   UNL d   1      54.725  33.962  55.210  0.00  0.00    -0.243 OA
ATOM      6  O   UNL d   1      52.806  35.978  54.618  0.00  0.00    -0.265 OA
ENDROOT
BRANCH   1   7
ATOM      7  C   UNL d   1      54.049  32.959  54.118  0.00  0.00     0.386 A 
ATOM      8  O   UNL d   1      53.635  33.209  54.795  0.00  0.00    -0.281 OA
ATOM      9  C   UNL d   1      53.589  32.574  55.312  0.00  0.00     0.147 A 
ATOM     10  C   UNL d   1      53.964  31.941  54.969  0.00  0.00     0.147 A 
ATOM     11  O   UNL d   1      54.244  32.202  54.222  0.00  0.00    -0.281 OA
BRANCH   7  12
ATOM     12  C   UNL d   1      54.413  32.958  53.373  0.00  0.00     0.470 C 
ATOM     13  F   UNL d   1      54.999  33.472  53.661  0.00  0.00    -0.164 F 
ATOM     14  F   UNL d   1      53.818  32.441  53.098  0.00  0.00    -0.164 F 
ATOM     15  F   UNL d   1      54.775  32.950  52.616  0.00  0.00    -0.164 F 
ENDBRANCH   7  12
ENDBRANCH   1   7
BRANCH   4  16
ATOM     16  C   UNL d   1      52.761  34.744  53.944  0.00  0.00     0.058 A 
ATOM     17  C   UNL d   1      52.986  34.782  53.151  0.00  0.00     0.005 A 
ATOM     18  C   UNL d   1      52.639  34.292  52.588  0.00  0.00     0.000 A 
ATOM     19  C   UNL d   1      52.054  33.756  52.833  0.00  0.00     0.000 A 
ATOM     20  C   UNL d   1      51.827  33.717  53.625  0.00  0.00     0.000 A 
ATOM     21  C   UNL d   1      52.177  34.205  54.171  0.00  0.00     0.005 A 
ENDBRANCH   4  16
TORSDOF 3
ENDMDL
MODEL 4
REMARK VINA RESULT:      -9.0      1.488      2.306
REMARK  3 active torsions:
REMARK  status: ('A' for Active; 'I' for Inactive)
REMARK    1  A    between atoms: N_2  and  C_1 
REMARK    2  A    between atoms: C_4  and  C_1 
REMARK       I    between atoms: C_3  and  N_2 
REMARK       I    between atoms: N_5  and  C_3 
REMARK       I    between atoms: C_6  and  N_5 
REMARK    3  A    between atoms: C_11  and  C_6 
ROOT
ATOM      1  N   UNL d   1      53.447  33.402  53.654  0.00  0.00    -0.159 NA
ATOM      2  C   UNL d   1      52.962  33.981  53.299  0.00  0.00     0.371 C 
ATOM      3  N   UNL d   1      52.839  34.708  53.675  0.00  0.00    -0.152 NA
ATOM      4  C   UNL d   1      53.201  34.864  54.411  0.00  0.00     0.283 C 
ATOM      5  O   UNL d   1      52.625  33.813  52.595  0.00  0.00    -0.243 OA
ATOM      6  O   UNL d   1      53.082  35.577  54.781  0.00  0.00    -0.265 OA
ENDROOT
BRANCH   1   7
ATOM      7  C   UNL d   1      53.571  32.675  53.280  0.00  0.00     0.386 A 
ATOM      8  O   UNL d   1      52.842  32.961  53.561  0.00  0.00    -0.281 OA
ATOM      9  C   UNL d   1      52.270  32.395  53.403  0.00  0.00     0.147 A 
ATOM     10  C   UNL d   1      52.630  31.769  53.031  0.00  0.00     0.147 A 
ATOM     11  O   UNL d   1      53.443  31.964  52.964  0.00  0.00    -0.281 OA
BRANCH   7  12
ATOM     12  C   UNL d   1      54.377  32.621  53.095  0.00  0.00     0.470 C 
ATOM     13  F   UNL d   1      54.300  33.267  52.579  0.00  0.00    -0.164 F 
ATOM     14  F   UNL d   1      54.439  31.973  53.618  0.00  0.00    -0.164 F 
ATOM     15  F   UNL d   1      55.194  32.558  52.915  0.00  0.00    -0.164 F 
ENDBRANCH   7  12
ENDBRANCH   1   7
BRANCH   4  16
ATOM     16  C   UNL d   1      53.679  34.303  54.768  0.00  0.00     0.058 A 
ATOM     17  C   UNL d   1      54.495  34.316  54.649  0.00  0.00     0.005 A 
ATOM     18  C   UNL d   1      54.984  33.757  55.004  0.00  0.00     0.000 A 
ATOM     19  C   UNL d   1      54.640  33.176  55.487  0.00  0.00     0.000 A 
ATOM     20  C   UNL d   1      53.824  33.161  55.608  0.00  0.00     0.000 A 
ATOM     21  C   UNL d   1      53.352  33.717  55.252  0.00  0.00     0.005 A 
ENDBRANCH   4  16
TORSDOF 3
ENDMDL
MODEL 5
REMARK VINA RESULT:      -8.7      1.445      2.971
REMARK  3 active torsions:
REMARK  status: ('A' for Active; 'I' for Inactive)
REMARK    1  A    between atoms: N_2  and  C_1 
REMARK    2  A    between atoms: C_4  and  C_1 
REMARK       I    between atoms: C_3  and  N_2 
REMARK       I    between atoms: N_5  and  C_3 
REMARK       I    between atoms: C_6  and  N_5 
REMARK    3  A    between atoms: C_11  and  C_6 
ROOT
ATOM      1  N   UNL d   1      53.401  33.134  53.879  0.00  0.00    -0.159 NA
ATOM      2  C   UNL d   1      52.970  32.484  53.582  0.00  0.00     0.371 C 
ATOM      3  N   UNL d   1      52.201  32.590  53.296  0.00  0.00    -0.152 NA
ATOM      4  C   UNL d   1      51.854  33.349  53.304  0.00  0.00     0.283 C 
ATOM      5  O   UNL d   1      53.320  31.766  53.583  0.00  0.00    -0.243 OA
ATOM      6  O   UNL d   1      51.099  33.454  53.023  0.00  0.00    -0.265 OA
ENDROOT
BRANCH   1   7
ATOM      7  C   UNL d   1      54.169  33.031  54.165  0.00  0.00     0.386 A 
ATOM      8  O   UNL d   1      53.939  33.005  53.366  0.00  0.00    -0.281 OA
ATOM      9  C   UNL d   1      54.608  32.860  52.915  0.00  0.00     0.147 A 
ATOM     10  C   UNL d   1      55.243  32.796  53.417  0.00  0.00     0.147 A 
ATOM     11  O   UNL d   1      54.948  32.905  54.195  0.00  0.00    -0.281 OA
BRANCH   7  12
ATOM     12  C   UNL d   1      54.142  33.100  54.991  0.00  0.00     0.470 C 
ATOM     13  F   UNL d   1      53.680  32.412  55.032  0.00  0.00    -0.164 F 
ATOM     14  F   UNL d   1      54.606  33.791  54.934  0.00  0.00    -0.164 F 
ATOM     15  F   UNL d   1      54.120  33.180  55.826  0.00  0.00    -0.164 F 
ENDBRANCH   7  12
ENDBRANCH   1   7
BRANCH   4  16
ATOM     16  C   UNL d   1      52.266  33.994  53.593  0.00  0.00     0.058 A 
ATOM     17  C   UNL d   1      52.731  34.451  53.087  0.00  0.00     0.005 A 
ATOM     18  C   UNL d   1      53.150  35.102  53.368  0.00  0.00     0.000 A 
ATOM     19  C   UNL d   1      53.096  35.292  54.174  0.00  0.00     0.000 A 
ATOM     20  C   UNL d   1      52.633  34.837  54.682  0.00  0.00     0.000 A 
ATOM     21  C   UNL d   1      52.224  34.197  54.394  0.00  0.00     0.005 A 
ENDBRANCH   4  16
TORSDOF 3
ENDMDL
MODEL 6
REMARK VINA RESULT:      -8.6      1.478      2.890
REMARK  3 active torsions:
REMARK  status: ('A' for Active; 'I' for Inactive)
REMARK    1  A    between atoms: N_2  and  C_1 
REMARK    2  A    between atoms: C_4  and  C_1 
REMARK       I    between atoms: C_3  and  N_2 
REMARK       I    between atoms: N_5  and  C_3 
REMARK       I    between atoms: C_6  and  N_5 
REMARK    3  A    between atoms: C_11  and  C_6 
ROOT
ATOM      1  N   UNL d   1      53.008  33.712  53.630  0.00  0.00    -0.159 NA
ATOM      2  C   UNL d   1      53.590  33.118  53.563  0.00  0.00     0.371 C 
ATOM      3  N   UNL d   1      53.424  32.417  53.156  0.00  0.00    -0.152 NA
ATOM      4  C   UNL d   1      52.673  32.302  52.810  0.00  0.00     0.283 C 
ATOM      5  O   UNL d   1      54.302  33.246  53.900  0.00  0.00    -0.243 OA
ATOM      6  O   UNL d   1      52.509  31.615  52.411  0.00  0.00    -0.265 OA
ENDROOT
BRANCH   1   7
ATOM      7  C   UNL d   1      53.171  34.413  54.036  0.00  0.00     0.386 A 
ATOM      8  O   UNL d   1      53.124  33.654  54.373  0.00  0.00    -0.281 OA
ATOM      9  C   UNL d   1      53.268  33.725  55.177  0.00  0.00     0.147 A 
ATOM     10  C   UNL d   1      53.402  34.509  55.342  0.00  0.00     0.147 A 
ATOM     11  O   UNL d   1      53.338  34.923  54.615  0.00  0.00    -0.281 OA
BRANCH   7  12
ATOM     12  C   UNL d   1      53.164  35.031  53.484  0.00  0.00     0.470 C 
ATOM     13  F   UNL d   1      53.814  34.691  53.095  0.00  0.00    -0.164 F 
ATOM     14  F   UNL d   1      52.511  35.362  53.885  0.00  0.00    -0.164 F 
ATOM     15  F   UNL d   1      53.148  35.662  52.930  0.00  0.00    -0.164 F 
ENDBRANCH   7  12
ENDBRANCH   1   7
BRANCH   4  16
ATOM     16  C   UNL d   1      52.094  32.879  52.870  0.00  0.00     0.058 A 
ATOM     17  C   UNL d   1      52.035  33.468  52.296  0.00  0.00     0.005 A 
ATOM     18  C   UNL d   1      51.456  34.052  52.346  0.00  0.00     0.000 A 
ATOM     19  C   UNL d   1      50.930  34.036  52.988  0.00  0.00     0.000 A 
ATOM     20  C   UNL d   1      50.987  33.448  53.563  0.00  0.00     0.000 A 
ATOM     21  C   UNL d   1      51.562  32.878  53.503  0.00  0.00     0.005 A 
ENDBRANCH   4  16
TORSDOF 3
ENDMDL
