MODEL 1
REMARK VINA RESULT:      -6.0      0.000      0.000
REMARK  4 active torsions:
REMARK  status: ('A' for Active; 'I' for Inactive)
REMARK    1  A    between atoms: C_2  and  S_1 
REMARK    2  A    between atoms: N_4  and  S_1 
REMARK    3  A    between atoms: C_16  and  N_4 
REMARK    4  A    between atoms: C_17  and  C_16 
ROOT
ATOM      1  S   UNL d   1     -41.939-122.842 -51.009  0.00  0.00     0.287 S 
ATOM      2  O   UNL d   1     -41.593-123.590 -51.033  0.00  0.00    -0.198 OA
ATOM      3  O   UNL d   1     -42.286-122.092 -50.992  0.00  0.00    -0.198 OA
ENDROOT
BRANCH   1   4
ATOM      4  C   UNL d   1     -41.857-122.830 -50.188  0.00  0.00     0.123 A 
ATOM      5  C   UNL d   1     -42.443-123.157 -49.701  0.00  0.00     0.094 A 
ATOM      6  N   UNL d   1     -43.113-123.497 -50.043  0.00  0.00    -0.243 NA
ATOM      7  C   UNL d   1     -42.368-123.149 -48.893  0.00  0.00     0.018 A 
ATOM      8  C   UNL d   1     -43.688-123.817 -49.576  0.00  0.00     0.099 A 
ATOM      9  C   UNL d   1     -43.607-123.806 -48.756  0.00  0.00     0.021 A 
ATOM     10  C   UNL d   1     -42.952-123.476 -48.400  0.00  0.00     0.003 A 
ATOM     11  C   UNL d   1     -41.696-122.809 -48.545  0.00  0.00     0.002 A 
ATOM     12  C   UNL d   1     -41.123-122.489 -49.018  0.00  0.00     0.001 A 
ATOM     13  C   UNL d   1     -41.205-122.500 -49.840  0.00  0.00     0.015 A 
ENDBRANCH   1   4
BRANCH   1  14
ATOM     14  N   UNL d   1     -42.019-122.860 -51.832  0.00  0.00    -0.157 NA
BRANCH  14  15
ATOM     15  C   UNL d   1     -41.432-122.519 -52.310  0.00  0.00     0.112 C 
BRANCH  15  16
ATOM     16  C   UNL d   1     -41.497-122.536 -53.120  0.00  0.00     0.022 A 
ATOM     17  C   UNL d   1     -41.920-121.948 -53.534  0.00  0.00     0.028 A 
ATOM     18  C   UNL d   1     -41.975-121.980 -54.340  0.00  0.00     0.119 A 
ATOM     19  O   UNL d   1     -42.341-121.498 -54.876  0.00  0.00    -0.300 OA
ATOM     20  C   UNL d   1     -41.609-122.605 -54.763  0.00  0.00     0.119 A 
ATOM     21  C   UNL d   1     -42.210-121.809 -55.638  0.00  0.00     0.304 A 
ATOM     22  O   UNL d   1     -41.761-122.486 -55.550  0.00  0.00    -0.300 OA
ATOM     23  C   UNL d   1     -41.205-123.167 -54.363  0.00  0.00     0.026 A 
ATOM     24  C   UNL d   1     -41.145-123.138 -53.527  0.00  0.00     0.004 A 
ENDBRANCH  15  16
ENDBRANCH  14  15
ENDBRANCH   1  14
TORSDOF 4
ENDMDL
MODEL 2
REMARK VINA RESULT:      -5.0      1.340      5.023
REMARK  4 active torsions:
REMARK  status: ('A' for Active; 'I' for Inactive)
REMARK    1  A    between atoms: C_2  and  S_1 
REMARK    2  A    between atoms: N_4  and  S_1 
REMARK    3  A    between atoms: C_16  and  N_4 
REMARK    4  A    between atoms: C_17  and  C_16 
ROOT
ATOM      1  S   UNL d   1     -41.763-122.691 -52.682  0.00  0.00     0.287 S 
ATOM      2  O   UNL d   1     -42.403-123.208 -52.627  0.00  0.00    -0.198 OA
ATOM      3  O   UNL d   1     -41.123-122.170 -52.730  0.00  0.00    -0.198 OA
ENDROOT
BRANCH   1   4
ATOM      4  C   UNL d   1     -41.649-122.915 -53.468  0.00  0.00     0.123 A 
ATOM      5  C   UNL d   1     -41.958-122.456 -54.086  0.00  0.00     0.094 A 
ATOM      6  N   UNL d   1     -42.382-121.770 -53.911  0.00  0.00    -0.243 NA
ATOM      7  C   UNL d   1     -41.850-122.671 -54.861  0.00  0.00     0.018 A 
ATOM      8  C   UNL d   1     -42.685-121.317 -54.507  0.00  0.00     0.099 A 
ATOM      9  C   UNL d   1     -42.572-121.541 -55.292  0.00  0.00     0.021 A 
ATOM     10  C   UNL d   1     -42.157-122.215 -55.485  0.00  0.00     0.003 A 
ATOM     11  C   UNL d   1     -41.425-123.360 -55.042  0.00  0.00     0.002 A 
ATOM     12  C   UNL d   1     -41.123-123.809 -54.441  0.00  0.00     0.001 A 
ATOM     13  C   UNL d   1     -41.236-123.585 -53.654  0.00  0.00     0.015 A 
ENDBRANCH   1   4
BRANCH   1  14
ATOM     14  N   UNL d   1     -41.883-122.470 -51.894  0.00  0.00    -0.157 NA
BRANCH  14  15
ATOM     15  C   UNL d   1     -41.490-122.880 -51.288  0.00  0.00     0.112 C 
BRANCH  15  16
ATOM     16  C   UNL d   1     -41.768-122.853 -50.525  0.00  0.00     0.022 A 
ATOM     17  C   UNL d   1     -41.308-123.127 -49.885  0.00  0.00     0.028 A 
ATOM     18  C   UNL d   1     -41.598-123.093 -49.132  0.00  0.00     0.119 A 
ATOM     19  O   UNL d   1     -41.283-123.314 -48.421  0.00  0.00    -0.300 OA
ATOM     20  C   UNL d   1     -42.364-122.782 -48.989  0.00  0.00     0.119 A 
ATOM     21  C   UNL d   1     -41.842-123.146 -47.825  0.00  0.00     0.304 A 
ATOM     22  O   UNL d   1     -42.497-122.821 -48.191  0.00  0.00    -0.300 OA
ATOM     23  C   UNL d   1     -42.803-122.520 -49.604  0.00  0.00     0.026 A 
ATOM     24  C   UNL d   1     -42.505-122.554 -50.388  0.00  0.00     0.004 A 
ENDBRANCH  15  16
ENDBRANCH  14  15
ENDBRANCH   1  14
TORSDOF 4
ENDMDL
