MODEL 1
REMARK VINA RESULT:      31.4      0.000      0.000
REMARK  5 active torsions:
REMARK  status: ('A' for Active; 'I' for Inactive)
REMARK    1  A    between atoms: S_10  and  C_6 
REMARK    2  A    between atoms: C_15  and  S_10 
REMARK    3  A    between atoms: C_12  and  C_15 
REMARK       I    between atoms: N_16  and  C_12 
REMARK    4  A    between atoms: C_14  and  C_20 
REMARK    5  A    between atoms: C_20  and  N_16 
ROOT
ATOM      1  C   UNL d   1      57.986  49.702  49.835  0.00  0.00     0.117 A 
ATOM      2  C   UNL d   1      57.497  49.703  50.487  0.00  0.00     0.082 A 
ATOM      3  N   UNL d   1      58.817  49.703  49.942  0.00  0.00    -0.214 NA
ATOM      4  C   UNL d   1      57.804  49.705  51.244  0.00  0.00     0.283 A 
ATOM      5  N   UNL d   1      58.635  49.707  51.352  0.00  0.00    -0.183 NA
ATOM      6  C   UNL d   1      59.126  49.706  50.697  0.00  0.00     0.198 A 
ATOM      7  S   UNL d   1      57.514  49.699  49.158  0.00  0.00    -0.068 SA
ATOM      8  C   UNL d   1      56.725  49.701  50.210  0.00  0.00     0.013 A 
ATOM      9  C   UNL d   1      56.720  49.698  49.378  0.00  0.00     0.031 A 
ATOM     10  O   UNL d   1      57.289  49.706  51.916  0.00  0.00    -0.265 OA
ATOM     11  C   UNL d   1      56.034  49.701  50.680  0.00  0.00     0.001 C 
ATOM     12  C   UNL d   1      56.043  49.696  48.875  0.00  0.00     0.007 C 
ENDROOT
BRANCH   6  13
ATOM     13  S   UNL d   1      59.952  49.707  50.804  0.00  0.00    -0.043 SA
BRANCH  13  14
ATOM     14  C   UNL d   1      60.359  49.000  50.812  0.00  0.00     0.101 C 
BRANCH  14  15
ATOM     15  C   UNL d   1      61.139  48.965  51.163  0.00  0.00     0.286 C 
ATOM     16  O   UNL d   1      61.370  49.551  51.702  0.00  0.00    -0.265 OA
ATOM     17  N   UNL d   1      61.647  48.356  50.965  0.00  0.00    -0.206 NA
BRANCH  17  18
ATOM     18  C   UNL d   1      61.414  47.778  50.432  0.00  0.00     0.102 C 
BRANCH  18  19
ATOM     19  C   UNL d   1      61.743  47.031  50.463  0.00  0.00     0.021 C 
ATOM     20  C   UNL d   1      61.299  46.368  50.253  0.00  0.00     0.002 C 
ENDBRANCH  18  19
ENDBRANCH  17  18
ENDBRANCH  14  15
ENDBRANCH  13  14
ENDBRANCH   6  13
TORSDOF 5
ENDMDL
