MODEL 1
REMARK VINA RESULT:      15.6      0.000      0.000
REMARK  3 active torsions:
REMARK  status: ('A' for Active; 'I' for Inactive)
REMARK    1  A    between atoms: C_2  and  N_1 
REMARK    2  A    between atoms: C_4  and  N_1 
REMARK    3  A    between atoms: C_5  and  C_2 
ROOT
ATOM      1  N   UNL d   1     -55.497-102.741 -38.286  0.00  0.00    -0.184 N 
ATOM      2  O   UNL d   1     -56.218-102.822 -38.672  0.00  0.00    -0.080 OA
ENDROOT
BRANCH   1   3
ATOM      3  C   UNL d   1     -54.801-102.719 -38.715  0.00  0.00     0.108 C 
BRANCH   3   4
ATOM      4  C   UNL d   1     -54.790-102.383 -39.472  0.00  0.00     0.020 A 
ATOM      5  C   UNL d   1     -54.836-102.876 -40.138  0.00  0.00     0.004 A 
ATOM      6  C   UNL d   1     -54.825-102.541 -40.892  0.00  0.00     0.030 A 
ATOM      7  C   UNL d   1     -54.769-101.730 -40.984  0.00  0.00     0.140 A 
ATOM      8  C   UNL d   1     -54.724-101.253 -40.318  0.00  0.00     0.030 A 
ATOM      9  F   UNL d   1     -54.758-101.397 -41.735  0.00  0.00    -0.204 F 
ATOM     10  C   UNL d   1     -54.734-101.577 -39.559  0.00  0.00     0.004 A 
ENDBRANCH   3   4
ENDBRANCH   1   3
BRANCH   1  11
ATOM     11  C   UNL d   1     -55.480-102.683 -37.455  0.00  0.00     0.090 A 
ATOM     12  C   UNL d   1     -56.162-102.791 -37.025  0.00  0.00     0.020 A 
ATOM     13  C   UNL d   1     -56.138-102.731 -36.208  0.00  0.00     0.002 A 
ATOM     14  C   UNL d   1     -55.424-102.563 -35.825  0.00  0.00     0.000 A 
ATOM     15  C   UNL d   1     -54.736-102.454 -36.273  0.00  0.00     0.002 A 
ATOM     16  C   UNL d   1     -54.759-102.513 -37.085  0.00  0.00     0.020 A 
ENDBRANCH   1  11
TORSDOF 3
ENDMDL
