MODEL 1
REMARK VINA RESULT:      -8.8      0.000      0.000
REMARK  7 active torsions:
REMARK  status: ('A' for Active; 'I' for Inactive)
REMARK       I    between atoms: C_3  and  N_1 
REMARK    1  A    between atoms: C_4  and  N_1 
REMARK    2  A    between atoms: C_5  and  N_1 
REMARK    3  A    between atoms: N_2  and  C_7 
REMARK    4  A    between atoms: C_8  and  C_3 
REMARK    5  A    between atoms: C_6  and  C_5 
REMARK    6  A    between atoms: C_9  and  C_6 
REMARK    7  A    between atoms: O_19  and  C_9 
ROOT
ATOM      1  N   UNL d   1      52.977  33.404  53.694  0.00  0.00    -0.258 N 
ATOM      2  C   UNL d   1      52.552  34.118  53.687  0.00  0.00     0.266 C 
ATOM      3  O   UNL d   1      52.769  34.760  54.132  0.00  0.00    -0.267 OA
ENDROOT
BRANCH   1   4
ATOM      4  C   UNL d   1      53.651  33.354  54.181  0.00  0.00     0.150 A 
ATOM      5  N   UNL d   1      53.567  33.145  54.964  0.00  0.00    -0.227 NA
ATOM      6  C   UNL d   1      54.230  33.100  55.426  0.00  0.00     0.101 A 
ATOM      7  C   UNL d   1      55.006  33.269  55.100  0.00  0.00     0.021 A 
ATOM      8  C   UNL d   1      55.088  33.477  54.324  0.00  0.00     0.005 A 
ATOM      9  C   UNL d   1      54.427  33.523  53.855  0.00  0.00     0.037 A 
ENDBRANCH   1   4
BRANCH   1  10
ATOM     10  C   UNL d   1      52.726  32.771  53.228  0.00  0.00     0.090 C 
BRANCH  10  11
ATOM     11  C   UNL d   1      53.049  32.000  53.390  0.00  0.00     0.087 C 
BRANCH  11  12
ATOM     12  C   UNL d   1      52.800  31.339  52.952  0.00  0.00     0.297 C 
ATOM     13  O   UNL d   1      52.903  31.317  52.160  0.00  0.00    -0.259 OA
BRANCH  12  14
ATOM     14  O   UNL d   1      52.449  30.710  53.348  0.00  0.00    -0.296 OA
ATOM     15  C   UNL d   1      52.710  29.937  53.228  0.00  0.00     0.185 C 
ENDBRANCH  12  14
ENDBRANCH  11  12
ENDBRANCH  10  11
ENDBRANCH   1  10
BRANCH   2  16
ATOM     16  C   UNL d   1      51.874  34.165  53.197  0.00  0.00     0.057 A 
ATOM     17  C   UNL d   1      51.934  34.373  52.431  0.00  0.00     0.006 A 
ATOM     18  C   UNL d   1      51.261  34.422  51.939  0.00  0.00     0.024 A 
ATOM     19  C   UNL d   1      50.537  34.256  52.244  0.00  0.00     0.127 A 
ATOM     20  C   UNL d   1      50.471  34.037  53.048  0.00  0.00     0.024 A 
ATOM     21  C   UNL d   1      51.131  33.995  53.511  0.00  0.00     0.006 A 
BRANCH  19  22
ATOM     22  N   UNL d   1      49.884  34.308  51.749  0.00  0.00    -0.114 N 
ATOM     23  O   UNL d   1      49.881  34.123  50.933  0.00  0.00    -0.532 OA
ATOM     24  O   UNL d   1      49.138  34.553  52.001  0.00  0.00    -0.532 OA
ENDBRANCH  19  22
ENDBRANCH   2  16
TORSDOF 7
ENDMDL
MODEL 2
REMARK VINA RESULT:      -7.1      1.642      4.415
REMARK  7 active torsions:
REMARK  status: ('A' for Active; 'I' for Inactive)
REMARK       I    between atoms: C_3  and  N_1 
REMARK    1  A    between atoms: C_4  and  N_1 
REMARK    2  A    between atoms: C_5  and  N_1 
REMARK    3  A    between atoms: N_2  and  C_7 
REMARK    4  A    between atoms: C_8  and  C_3 
REMARK    5  A    between atoms: C_6  and  C_5 
REMARK    6  A    between atoms: C_9  and  C_6 
REMARK    7  A    between atoms: O_19  and  C_9 
ROOT
ATOM      1  N   UNL d   1      52.728  32.394  53.411  0.00  0.00    -0.258 N 
ATOM      2  C   UNL d   1      52.520  31.683  53.036  0.00  0.00     0.266 C 
ATOM      3  O   UNL d   1      52.057  31.657  52.372  0.00  0.00    -0.267 OA
ENDROOT
BRANCH   1   4
ATOM      4  C   UNL d   1      52.445  33.106  53.083  0.00  0.00     0.150 A 
ATOM      5  N   UNL d   1      52.863  33.467  52.484  0.00  0.00    -0.227 NA
ATOM      6  C   UNL d   1      52.577  34.158  52.175  0.00  0.00     0.101 A 
ATOM      7  C   UNL d   1      51.850  34.504  52.471  0.00  0.00     0.021 A 
ATOM      8  C   UNL d   1      51.437  34.146  53.064  0.00  0.00     0.005 A 
ATOM      9  C   UNL d   1      51.718  33.453  53.379  0.00  0.00     0.037 A 
ENDBRANCH   1   4
BRANCH   1  10
ATOM     10  C   UNL d   1      53.202  32.381  54.087  0.00  0.00     0.090 C 
BRANCH  10  11
ATOM     11  C   UNL d   1      53.648  33.080  54.278  0.00  0.00     0.087 C 
BRANCH  11  12
ATOM     12  C   UNL d   1      54.201  33.071  54.898  0.00  0.00     0.297 C 
ATOM     13  O   UNL d   1      53.984  32.834  55.629  0.00  0.00    -0.259 OA
BRANCH  12  14
ATOM     14  O   UNL d   1      54.972  33.309  54.745  0.00  0.00    -0.296 OA
ATOM     15  C   UNL d   1      55.350  33.859  55.231  0.00  0.00     0.185 C 
ENDBRANCH  12  14
ENDBRANCH  11  12
ENDBRANCH  10  11
ENDBRANCH   1  10
BRANCH   2  16
ATOM     16  C   UNL d   1      52.806  30.968  53.367  0.00  0.00     0.057 A 
ATOM     17  C   UNL d   1      52.387  30.571  53.916  0.00  0.00     0.006 A 
ATOM     18  C   UNL d   1      52.669  29.858  54.248  0.00  0.00     0.024 A 
ATOM     19  C   UNL d   1      53.378  29.566  54.010  0.00  0.00     0.127 A 
ATOM     20  C   UNL d   1      53.820  29.980  53.435  0.00  0.00     0.024 A 
ATOM     21  C   UNL d   1      53.535  30.667  53.123  0.00  0.00     0.006 A 
BRANCH  19  22
ATOM     22  N   UNL d   1      53.641  28.864  54.346  0.00  0.00    -0.114 N 
ATOM     23  O   UNL d   1      53.220  28.409  54.907  0.00  0.00    -0.532 OA
ATOM     24  O   UNL d   1      54.368  28.517  54.167  0.00  0.00    -0.532 OA
ENDBRANCH  19  22
ENDBRANCH   2  16
TORSDOF 7
ENDMDL
MODEL 3
REMARK VINA RESULT:      -7.1      1.321      3.780
REMARK  7 active torsions:
REMARK  status: ('A' for Active; 'I' for Inactive)
REMARK       I    between atoms: C_3  and  N_1 
REMARK    1  A    between atoms: C_4  and  N_1 
REMARK    2  A    between atoms: C_5  and  N_1 
REMARK    3  A    between atoms: N_2  and  C_7 
REMARK    4  A    between atoms: C_8  and  C_3 
REMARK    5  A    between atoms: C_6  and  C_5 
REMARK    6  A    between atoms: C_9  and  C_6 
REMARK    7  A    between atoms: O_19  and  C_9 
ROOT
ATOM      1  N   UNL d   1      52.065  33.841  53.145  0.00  0.00    -0.258 N 
ATOM      2  C   UNL d   1      52.363  34.433  53.645  0.00  0.00     0.266 C 
ATOM      3  O   UNL d   1      51.988  35.143  53.755  0.00  0.00    -0.267 OA
ENDROOT
BRANCH   1   4
ATOM      4  C   UNL d   1      51.351  33.992  52.743  0.00  0.00     0.150 A 
ATOM      5  N   UNL d   1      50.644  33.929  53.143  0.00  0.00    -0.227 NA
ATOM      6  C   UNL d   1      49.957  34.078  52.741  0.00  0.00     0.101 A 
ATOM      7  C   UNL d   1      49.972  34.297  51.911  0.00  0.00     0.021 A 
ATOM      8  C   UNL d   1      50.673  34.358  51.516  0.00  0.00     0.005 A 
ATOM      9  C   UNL d   1      51.365  34.210  51.913  0.00  0.00     0.037 A 
ENDBRANCH   1   4
BRANCH   1  10
ATOM     10  C   UNL d   1      52.475  33.130  53.058  0.00  0.00     0.090 C 
BRANCH  10  11
ATOM     11  C   UNL d   1      52.023  32.418  52.944  0.00  0.00     0.087 C 
BRANCH  11  12
ATOM     12  C   UNL d   1      52.407  31.690  52.827  0.00  0.00     0.297 C 
ATOM     13  O   UNL d   1      52.937  31.602  52.237  0.00  0.00    -0.259 OA
BRANCH  12  14
ATOM     14  O   UNL d   1      52.230  31.064  53.330  0.00  0.00    -0.296 OA
ATOM     15  C   UNL d   1      52.593  30.329  53.234  0.00  0.00     0.185 C 
ENDBRANCH  12  14
ENDBRANCH  11  12
ENDBRANCH  10  11
ENDBRANCH   1  10
BRANCH   2  16
ATOM     16  C   UNL d   1      53.081  34.280  54.049  0.00  0.00     0.057 A 
ATOM     17  C   UNL d   1      53.784  34.375  53.688  0.00  0.00     0.006 A 
ATOM     18  C   UNL d   1      54.503  34.223  54.087  0.00  0.00     0.024 A 
ATOM     19  C   UNL d   1      54.485  33.975  54.850  0.00  0.00     0.127 A 
ATOM     20  C   UNL d   1      53.748  33.874  55.231  0.00  0.00     0.024 A 
ATOM     21  C   UNL d   1      53.063  34.025  54.833  0.00  0.00     0.006 A 
BRANCH  19  22
ATOM     22  N   UNL d   1      55.199  33.830  55.229  0.00  0.00    -0.114 N 
ATOM     23  O   UNL d   1      55.939  33.746  54.848  0.00  0.00    -0.532 OA
ATOM     24  O   UNL d   1      55.274  33.747  56.046  0.00  0.00    -0.532 OA
ENDBRANCH  19  22
ENDBRANCH   2  16
TORSDOF 7
ENDMDL
MODEL 4
REMARK VINA RESULT:      -7.1      1.229      2.680
REMARK  7 active torsions:
REMARK  status: ('A' for Active; 'I' for Inactive)
REMARK       I    between atoms: C_3  and  N_1 
REMARK    1  A    between atoms: C_4  and  N_1 
REMARK    2  A    between atoms: C_5  and  N_1 
REMARK    3  A    between atoms: N_2  and  C_7 
REMARK    4  A    between atoms: C_8  and  C_3 
REMARK    5  A    between atoms: C_6  and  C_5 
REMARK    6  A    between atoms: C_9  and  C_6 
REMARK    7  A    between atoms: O_19  and  C_9 
ROOT
ATOM      1  N   UNL d   1      52.704  33.405  53.511  0.00  0.00    -0.258 N 
ATOM      2  C   UNL d   1      52.161  33.121  52.951  0.00  0.00     0.266 C 
ATOM      3  O   UNL d   1      52.287  32.443  52.525  0.00  0.00    -0.267 OA
ENDROOT
BRANCH   1   4
ATOM      4  C   UNL d   1      53.404  32.970  53.634  0.00  0.00     0.150 A 
ATOM      5  N   UNL d   1      54.057  33.121  53.172  0.00  0.00    -0.227 NA
ATOM      6  C   UNL d   1      54.731  32.691  53.302  0.00  0.00     0.101 A 
ATOM      7  C   UNL d   1      54.757  32.089  53.912  0.00  0.00     0.021 A 
ATOM      8  C   UNL d   1      54.109  31.939  54.369  0.00  0.00     0.005 A 
ATOM      9  C   UNL d   1      53.430  32.367  54.244  0.00  0.00     0.037 A 
ENDBRANCH   1   4
BRANCH   1  10
ATOM     10  C   UNL d   1      52.542  34.100  53.927  0.00  0.00     0.090 C 
BRANCH  10  11
ATOM     11  C   UNL d   1      53.199  34.564  54.204  0.00  0.00     0.087 C 
BRANCH  11  12
ATOM     12  C   UNL d   1      53.071  35.226  54.690  0.00  0.00     0.297 C 
ATOM     13  O   UNL d   1      52.957  35.136  55.475  0.00  0.00    -0.259 OA
BRANCH  12  14
ATOM     14  O   UNL d   1      53.065  35.973  54.347  0.00  0.00    -0.296 OA
ATOM     15  C   UNL d   1      53.397  36.620  54.737  0.00  0.00     0.185 C 
ENDBRANCH  12  14
ENDBRANCH  11  12
ENDBRANCH  10  11
ENDBRANCH   1  10
BRANCH   2  16
ATOM     16  C   UNL d   1      51.458  33.560  52.829  0.00  0.00     0.057 A 
ATOM     17  C   UNL d   1      50.838  33.491  53.324  0.00  0.00     0.006 A 
ATOM     18  C   UNL d   1      50.136  33.928  53.206  0.00  0.00     0.024 A 
ATOM     19  C   UNL d   1      50.083  34.428  52.580  0.00  0.00     0.127 A 
ATOM     20  C   UNL d   1      50.732  34.503  52.059  0.00  0.00     0.024 A 
ATOM     21  C   UNL d   1      51.404  34.074  52.186  0.00  0.00     0.006 A 
BRANCH  19  22
ATOM     22  N   UNL d   1      49.386  34.850  52.477  0.00  0.00    -0.114 N 
ATOM     23  O   UNL d   1      48.902  34.825  51.796  0.00  0.00    -0.532 OA
ATOM     24  O   UNL d   1      49.073  35.361  53.045  0.00  0.00    -0.532 OA
ENDBRANCH  19  22
ENDBRANCH   2  16
TORSDOF 7
ENDMDL
MODEL 5
REMARK VINA RESULT:      -6.9      1.555      3.637
REMARK  7 active torsions:
REMARK  status: ('A' for Active; 'I' for Inactive)
REMARK       I    between atoms: C_3  and  N_1 
REMARK    1  A    between atoms: C_4  and  N_1 
REMARK    2  A    between atoms: C_5  and  N_1 
REMARK    3  A    between atoms: N_2  and  C_7 
REMARK    4  A    between atoms: C_8  and  C_3 
REMARK    5  A    between atoms: C_6  and  C_5 
REMARK    6  A    between atoms: C_9  and  C_6 
REMARK    7  A    between atoms: O_19  and  C_9 
ROOT
ATOM      1  N   UNL d   1      53.031  33.427  53.976  0.00  0.00    -0.258 N 
ATOM      2  C   UNL d   1      53.654  32.895  54.110  0.00  0.00     0.266 C 
ATOM      3  O   UNL d   1      54.379  33.130  54.385  0.00  0.00    -0.267 OA
ENDROOT
BRANCH   1   4
ATOM      4  C   UNL d   1      53.166  34.235  54.132  0.00  0.00     0.150 A 
ATOM      5  N   UNL d   1      53.024  34.528  54.878  0.00  0.00    -0.227 NA
ATOM      6  C   UNL d   1      53.159  35.314  55.017  0.00  0.00     0.101 A 
ATOM      7  C   UNL d   1      53.446  35.828  54.393  0.00  0.00     0.021 A 
ATOM      8  C   UNL d   1      53.586  35.536  53.653  0.00  0.00     0.005 A 
ATOM      9  C   UNL d   1      53.453  34.749  53.507  0.00  0.00     0.037 A 
ENDBRANCH   1   4
BRANCH   1  10
ATOM     10  C   UNL d   1      52.306  33.151  53.695  0.00  0.00     0.090 C 
BRANCH  10  11
ATOM     11  C   UNL d   1      51.696  33.721  53.530  0.00  0.00     0.087 C 
BRANCH  11  12
ATOM     12  C   UNL d   1      50.977  33.482  53.188  0.00  0.00     0.297 C 
ATOM     13  O   UNL d   1      50.519  32.937  53.549  0.00  0.00    -0.259 OA
BRANCH  12  14
ATOM     14  O   UNL d   1      50.749  33.816  52.473  0.00  0.00    -0.296 OA
ATOM     15  C   UNL d   1      50.031  34.217  52.404  0.00  0.00     0.185 C 
ENDBRANCH  12  14
ENDBRANCH  11  12
ENDBRANCH  10  11
ENDBRANCH   1  10
BRANCH   2  16
ATOM     16  C   UNL d   1      53.516  32.083  53.952  0.00  0.00     0.057 A 
ATOM     17  C   UNL d   1      53.318  31.579  54.535  0.00  0.00     0.006 A 
ATOM     18  C   UNL d   1      53.179  30.769  54.382  0.00  0.00     0.024 A 
ATOM     19  C   UNL d   1      53.248  30.493  53.631  0.00  0.00     0.127 A 
ATOM     20  C   UNL d   1      53.456  31.020  53.017  0.00  0.00     0.024 A 
ATOM     21  C   UNL d   1      53.587  31.800  53.181  0.00  0.00     0.006 A 
BRANCH  19  22
ATOM     22  N   UNL d   1      53.109  29.695  53.496  0.00  0.00    -0.114 N 
ATOM     23  O   UNL d   1      52.666  29.383  52.859  0.00  0.00    -0.532 OA
ATOM     24  O   UNL d   1      53.395  29.093  53.982  0.00  0.00    -0.532 OA
ENDBRANCH  19  22
ENDBRANCH   2  16
TORSDOF 7
ENDMDL
MODEL 6
REMARK VINA RESULT:      -6.5      1.444      2.924
REMARK  7 active torsions:
REMARK  status: ('A' for Active; 'I' for Inactive)
REMARK       I    between atoms: C_3  and  N_1 
REMARK    1  A    between atoms: C_4  and  N_1 
REMARK    2  A    between atoms: C_5  and  N_1 
REMARK    3  A    between atoms: N_2  and  C_7 
REMARK    4  A    between atoms: C_8  and  C_3 
REMARK    5  A    between atoms: C_6  and  C_5 
REMARK    6  A    between atoms: C_9  and  C_6 
REMARK    7  A    between atoms: O_19  and  C_9 
ROOT
ATOM      1  N   UNL d   1      53.006  31.569  53.577  0.00  0.00    -0.258 N 
ATOM      2  C   UNL d   1      52.418  31.699  53.006  0.00  0.00     0.266 C 
ATOM      3  O   UNL d   1      52.189  31.129  52.477  0.00  0.00    -0.267 OA
ENDROOT
BRANCH   1   4
ATOM      4  C   UNL d   1      53.372  30.820  53.600  0.00  0.00     0.150 A 
ATOM      5  N   UNL d   1      54.050  30.691  53.169  0.00  0.00    -0.227 NA
ATOM      6  C   UNL d   1      54.395  29.960  53.200  0.00  0.00     0.101 A 
ATOM      7  C   UNL d   1      54.054  29.333  53.676  0.00  0.00     0.021 A 
ATOM      8  C   UNL d   1      53.382  29.462  54.103  0.00  0.00     0.005 A 
ATOM      9  C   UNL d   1      53.031  30.194  54.076  0.00  0.00     0.037 A 
ENDBRANCH   1   4
BRANCH   1  10
ATOM     10  C   UNL d   1      53.214  32.174  54.100  0.00  0.00     0.090 C 
BRANCH  10  11
ATOM     11  C   UNL d   1      54.020  32.212  54.369  0.00  0.00     0.087 C 
BRANCH  11  12
ATOM     12  C   UNL d   1      54.261  32.811  54.893  0.00  0.00     0.297 C 
ATOM     13  O   UNL d   1      53.960  32.847  55.632  0.00  0.00    -0.259 OA
BRANCH  12  14
ATOM     14  O   UNL d   1      54.812  33.363  54.636  0.00  0.00    -0.296 OA
ATOM     15  C   UNL d   1      55.189  33.865  55.172  0.00  0.00     0.185 C 
ENDBRANCH  12  14
ENDBRANCH  11  12
ENDBRANCH  10  11
ENDBRANCH   1  10
BRANCH   2  16
ATOM     16  C   UNL d   1      52.052  32.452  52.984  0.00  0.00     0.057 A 
ATOM     17  C   UNL d   1      51.382  32.597  53.389  0.00  0.00     0.006 A 
ATOM     18  C   UNL d   1      51.015  33.347  53.371  0.00  0.00     0.024 A 
ATOM     19  C   UNL d   1      51.343  33.936  52.935  0.00  0.00     0.127 A 
ATOM     20  C   UNL d   1      52.046  33.787  52.509  0.00  0.00     0.024 A 
ATOM     21  C   UNL d   1      52.390  33.058  52.537  0.00  0.00     0.006 A 
BRANCH  19  22
ATOM     22  N   UNL d   1      50.971  34.667  52.926  0.00  0.00    -0.114 N 
ATOM     23  O   UNL d   1      50.243  34.835  52.549  0.00  0.00    -0.532 OA
ATOM     24  O   UNL d   1      51.275  35.339  53.296  0.00  0.00    -0.532 OA
ENDBRANCH  19  22
ENDBRANCH   2  16
TORSDOF 7
ENDMDL
MODEL 7
REMARK VINA RESULT:      -6.4      1.613      3.356
REMARK  7 active torsions:
REMARK  status: ('A' for Active; 'I' for Inactive)
REMARK       I    between atoms: C_3  and  N_1 
REMARK    1  A    between atoms: C_4  and  N_1 
REMARK    2  A    between atoms: C_5  and  N_1 
REMARK    3  A    between atoms: N_2  and  C_7 
REMARK    4  A    between atoms: C_8  and  C_3 
REMARK    5  A    between atoms: C_6  and  C_5 
REMARK    6  A    between atoms: C_9  and  C_6 
REMARK    7  A    between atoms: O_19  and  C_9 
ROOT
ATOM      1  N   UNL d   1      52.889  32.516  53.569  0.00  0.00    -0.258 N 
ATOM      2  C   UNL d   1      53.577  32.951  53.734  0.00  0.00     0.266 C 
ATOM      3  O   UNL d   1      54.319  32.630  53.686  0.00  0.00    -0.267 OA
ENDROOT
BRANCH   1   4
ATOM      4  C   UNL d   1      52.975  31.717  53.346  0.00  0.00     0.150 A 
ATOM      5  N   UNL d   1      52.958  31.517  52.557  0.00  0.00    -0.227 NA
ATOM      6  C   UNL d   1      53.043  30.738  52.354  0.00  0.00     0.101 A 
ATOM      7  C   UNL d   1      53.148  30.135  52.956  0.00  0.00     0.021 A 
ATOM      8  C   UNL d   1      53.164  30.335  53.738  0.00  0.00     0.005 A 
ATOM      9  C   UNL d   1      53.080  31.115  53.948  0.00  0.00     0.037 A 
ENDBRANCH   1   4
BRANCH   1  10
ATOM     10  C   UNL d   1      52.149  32.877  53.628  0.00  0.00     0.090 C 
BRANCH  10  11
ATOM     11  C   UNL d   1      51.589  32.750  52.999  0.00  0.00     0.087 C 
BRANCH  11  12
ATOM     12  C   UNL d   1      50.850  33.129  53.011  0.00  0.00     0.297 C 
ATOM     13  O   UNL d   1      50.346  33.014  53.619  0.00  0.00    -0.259 OA
BRANCH  12  14
ATOM     14  O   UNL d   1      50.648  33.623  52.385  0.00  0.00    -0.296 OA
ATOM     15  C   UNL d   1      50.019  34.153  52.451  0.00  0.00     0.185 C 
ENDBRANCH  12  14
ENDBRANCH  11  12
ENDBRANCH  10  11
ENDBRANCH   1  10
BRANCH   2  16
ATOM     16  C   UNL d   1      53.488  33.754  53.957  0.00  0.00     0.057 A 
ATOM     17  C   UNL d   1      53.475  34.334  53.412  0.00  0.00     0.006 A 
ATOM     18  C   UNL d   1      53.387  35.135  53.631  0.00  0.00     0.024 A 
ATOM     19  C   UNL d   1      53.312  35.326  54.408  0.00  0.00     0.127 A 
ATOM     20  C   UNL d   1      53.325  34.719  54.982  0.00  0.00     0.024 A 
ATOM     21  C   UNL d   1      53.411  33.950  54.755  0.00  0.00     0.006 A 
BRANCH  19  22
ATOM     22  N   UNL d   1      53.226  36.118  54.607  0.00  0.00    -0.114 N 
ATOM     23  O   UNL d   1      52.607  36.434  55.073  0.00  0.00    -0.532 OA
ATOM     24  O   UNL d   1      53.750  36.709  54.368  0.00  0.00    -0.532 OA
ENDBRANCH  19  22
ENDBRANCH   2  16
TORSDOF 7
ENDMDL
