MODEL 1
REMARK VINA RESULT:       9.4      0.000      0.000
REMARK  4 active torsions:
REMARK  status: ('A' for Active; 'I' for Inactive)
REMARK    1  A    between atoms: C_2  and  C_1 
REMARK    2  A    between atoms: C_3  and  C_1 
REMARK    3  A    between atoms: C_4  and  C_2 
REMARK    4  A    between atoms: C_9  and  C_3 
ROOT
ATOM      1  C   UNL d   1      46.184 -17.844  44.194  0.00  0.00     0.196 C 
ATOM      2  O   UNL d   1      46.218 -18.187  44.943  0.00  0.00    -0.287 OA
ENDROOT
BRANCH   1   3
ATOM      3  C   UNL d   1      46.040 -17.029  44.120  0.00  0.00     0.042 C 
BRANCH   3   4
ATOM      4  C   UNL d   1      46.036 -16.549  44.790  0.00  0.00     0.005 C 
BRANCH   4   5
ATOM      5  C   UNL d   1      45.732 -15.786  44.743  0.00  0.00     0.019 A 
ATOM      6  C   UNL d   1      44.945 -15.641  44.952  0.00  0.00     0.099 A 
ATOM      7  N   UNL d   1      44.641 -14.878  44.904  0.00  0.00    -0.242 NA
ATOM      8  C   UNL d   1      45.122 -14.254  44.647  0.00  0.00     0.099 A 
ATOM      9  C   UNL d   1      45.905 -14.397  44.439  0.00  0.00     0.021 A 
ATOM     10  C   UNL d   1      46.214 -15.162  44.486  0.00  0.00     0.003 A 
ENDBRANCH   4   5
ENDBRANCH   3   4
ENDBRANCH   1   3
BRANCH   1  11
ATOM     11  C   UNL d   1      46.292 -18.308  43.523  0.00  0.00     0.039 A 
ATOM     12  C   UNL d   1      46.530 -19.089  43.607  0.00  0.00     0.006 A 
ATOM     13  C   UNL d   1      46.640 -19.556  42.936  0.00  0.00     0.042 A 
ATOM     14  C   UNL d   1      46.510 -19.236  42.178  0.00  0.00     0.196 A 
ATOM     15  C   UNL d   1      46.271 -18.450  42.102  0.00  0.00     0.042 A 
ATOM     16  O   UNL d   1      46.621 -19.707  41.508  0.00  0.00    -0.287 OA
ATOM     17  C   UNL d   1      46.162 -17.986  42.773  0.00  0.00     0.006 A 
ENDBRANCH   1  11
TORSDOF 4
ENDMDL
MODEL 2
REMARK VINA RESULT:      10.0      1.964      4.395
REMARK  4 active torsions:
REMARK  status: ('A' for Active; 'I' for Inactive)
REMARK    1  A    between atoms: C_2  and  C_1 
REMARK    2  A    between atoms: C_3  and  C_1 
REMARK    3  A    between atoms: C_4  and  C_2 
REMARK    4  A    between atoms: C_9  and  C_3 
ROOT
ATOM      1  C   UNL d   1      45.284 -15.632  44.645  0.00  0.00     0.196 C 
ATOM      2  O   UNL d   1      44.553 -15.860  44.955  0.00  0.00    -0.287 OA
ENDROOT
BRANCH   1   3
ATOM      3  C   UNL d   1      45.827 -16.211  44.403  0.00  0.00     0.042 C 
BRANCH   3   4
ATOM      4  C   UNL d   1      45.771 -16.979  44.700  0.00  0.00     0.005 C 
BRANCH   4   5
ATOM      5  C   UNL d   1      46.061 -17.609  44.257  0.00  0.00     0.019 A 
ATOM      6  C   UNL d   1      46.099 -17.553  43.433  0.00  0.00     0.099 A 
ATOM      7  N   UNL d   1      46.389 -18.183  42.990  0.00  0.00    -0.242 NA
ATOM      8  C   UNL d   1      46.644 -18.874  43.370  0.00  0.00     0.099 A 
ATOM      9  C   UNL d   1      46.607 -18.932  44.190  0.00  0.00     0.021 A 
ATOM     10  C   UNL d   1      46.316 -18.300  44.637  0.00  0.00     0.003 A 
ENDBRANCH   4   5
ENDBRANCH   3   4
ENDBRANCH   1   3
BRANCH   1  11
ATOM     11  C   UNL d   1      45.472 -14.834  44.578  0.00  0.00     0.039 A 
ATOM     12  C   UNL d   1      44.952 -14.328  44.193  0.00  0.00     0.006 A 
ATOM     13  C   UNL d   1      45.138 -13.527  44.124  0.00  0.00     0.042 A 
ATOM     14  C   UNL d   1      45.850 -13.235  44.443  0.00  0.00     0.196 A 
ATOM     15  C   UNL d   1      46.367 -13.750  44.828  0.00  0.00     0.042 A 
ATOM     16  O   UNL d   1      46.033 -12.432  44.372  0.00  0.00    -0.287 OA
ATOM     17  C   UNL d   1      46.179 -14.548  44.895  0.00  0.00     0.006 A 
ENDBRANCH   1  11
TORSDOF 4
ENDMDL
