MODEL 1
REMARK VINA RESULT:       0.9      0.000      0.000
REMARK  4 active torsions:
REMARK  status: ('A' for Active; 'I' for Inactive)
REMARK    1  A    between atoms: C_8  and  C_1 
REMARK    2  A    between atoms: C_6  and  C_2 
REMARK    3  A    between atoms: O_17  and  C_8 
REMARK    4  A    between atoms: C_20  and  O_17 
ROOT
ATOM      1  C   UNL d   1      31.836  17.421 -24.477  0.00  0.00     0.099 A 
ATOM      2  C   UNL d   1      31.077  17.657 -24.639  0.00  0.00     0.093 A 
ATOM      3  C   UNL d   1      32.453  17.968 -24.495  0.00  0.00     0.093 A 
ATOM      4  C   UNL d   1      31.518  18.983 -24.840  0.00  0.00     0.369 A 
ATOM      5  N   UNL d   1      32.292  18.746 -24.676  0.00  0.00    -0.191 NA
ATOM      6  N   UNL d   1      30.921  18.440 -24.820  0.00  0.00    -0.191 NA
ATOM      7  O   UNL d   1      31.340  19.778 -25.027  0.00  0.00    -0.242 OA
ATOM      8  C   UNL d   1      33.241  17.731 -24.328  0.00  0.00     0.021 C 
ENDROOT
BRANCH   2   9
ATOM      9  C   UNL d   1      30.277  17.003 -24.628  0.00  0.00     0.029 A 
ATOM     10  C   UNL d   1      29.673  17.219 -24.128  0.00  0.00     0.060 A 
ATOM     11  C   UNL d   1      29.014  16.675 -24.122  0.00  0.00     0.023 A 
ATOM     12 CL   UNL d   1      29.653  17.856 -23.676  0.00  0.00    -0.082 Cl
ATOM     13  C   UNL d   1      29.045  15.994 -24.611  0.00  0.00     0.059 A 
ATOM     14  C   UNL d   1      29.683  15.849 -25.082  0.00  0.00     0.011 A 
ATOM     15 CL   UNL d   1      28.408  15.455 -24.615  0.00  0.00    -0.082 Cl
ATOM     16  C   UNL d   1      30.331  16.370 -25.097  0.00  0.00     0.003 A 
ENDBRANCH   2   9
BRANCH   1  17
ATOM     17  C   UNL d   1      31.975  16.628 -24.297  0.00  0.00     0.303 C 
ATOM     18  O   UNL d   1      32.195  16.087 -24.867  0.00  0.00    -0.259 OA
BRANCH  17  19
ATOM     19  O   UNL d   1      31.890  16.351 -23.495  0.00  0.00    -0.271 OA
BRANCH  19  20
ATOM     20  C   UNL d   1      32.365  15.696 -23.242  0.00  0.00     0.126 C 
ATOM     21  C   UNL d   1      32.477  15.554 -22.438  0.00  0.00     0.029 C 
ENDBRANCH  19  20
ENDBRANCH  17  19
ENDBRANCH   1  17
TORSDOF 4
ENDMDL
MODEL 2
REMARK VINA RESULT:       1.0      1.816      2.952
REMARK  4 active torsions:
REMARK  status: ('A' for Active; 'I' for Inactive)
REMARK    1  A    between atoms: C_8  and  C_1 
REMARK    2  A    between atoms: C_6  and  C_2 
REMARK    3  A    between atoms: O_17  and  C_8 
REMARK    4  A    between atoms: C_20  and  O_17 
ROOT
ATOM      1  C   UNL d   1      29.414  16.787 -23.967  0.00  0.00     0.099 A 
ATOM      2  C   UNL d   1      29.872  17.321 -24.372  0.00  0.00     0.093 A 
ATOM      3  C   UNL d   1      28.619  16.949 -23.822  0.00  0.00     0.093 A 
ATOM      4  C   UNL d   1      28.768  18.190 -24.500  0.00  0.00     0.369 A 
ATOM      5  N   UNL d   1      28.299  17.650 -24.089  0.00  0.00    -0.191 NA
ATOM      6  N   UNL d   1      29.546  18.022 -24.637  0.00  0.00    -0.191 NA
ATOM      7  O   UNL d   1      28.452  18.913 -24.780  0.00  0.00    -0.242 OA
ATOM      8  C   UNL d   1      28.139  16.402 -23.404  0.00  0.00     0.021 C 
ENDROOT
BRANCH   2   9
ATOM      9  C   UNL d   1      30.872  17.155 -24.574  0.00  0.00     0.029 A 
ATOM     10  C   UNL d   1      31.368  17.751 -24.329  0.00  0.00     0.060 A 
ATOM     11  C   UNL d   1      32.193  17.609 -24.498  0.00  0.00     0.023 A 
ATOM     12 CL   UNL d   1      31.154  18.411 -23.969  0.00  0.00    -0.082 Cl
ATOM     13  C   UNL d   1      32.413  16.898 -24.885  0.00  0.00     0.059 A 
ATOM     14  C   UNL d   1      31.859  16.352 -25.097  0.00  0.00     0.011 A 
ATOM     15 CL   UNL d   1      33.216  16.747 -25.056  0.00  0.00    -0.082 Cl
ATOM     16  C   UNL d   1      31.052  16.478 -24.938  0.00  0.00     0.003 A 
ENDBRANCH   2   9
BRANCH   1  17
ATOM     17  C   UNL d   1      29.760  16.084 -23.707  0.00  0.00     0.303 C 
ATOM     18  O   UNL d   1      29.886  15.453 -24.207  0.00  0.00    -0.259 OA
BRANCH  17  19
ATOM     19  O   UNL d   1      29.998  16.002 -22.892  0.00  0.00    -0.271 OA
BRANCH  19  20
ATOM     20  C   UNL d   1      29.550  15.486 -22.392  0.00  0.00     0.126 C 
ATOM     21  C   UNL d   1      29.710  15.453 -21.584  0.00  0.00     0.029 C 
ENDBRANCH  19  20
ENDBRANCH  17  19
ENDBRANCH   1  17
TORSDOF 4
ENDMDL
MODEL 3
REMARK VINA RESULT:       1.8      4.325      5.604
REMARK  4 active torsions:
REMARK  status: ('A' for Active; 'I' for Inactive)
REMARK    1  A    between atoms: C_8  and  C_1 
REMARK    2  A    between atoms: C_6  and  C_2 
REMARK    3  A    between atoms: O_17  and  C_8 
REMARK    4  A    between atoms: C_20  and  O_17 
ROOT
ATOM      1  C   UNL d   1      32.682  22.178 -21.993  0.00  0.00     0.099 A 
ATOM      2  C   UNL d   1      32.901  21.687 -22.601  0.00  0.00     0.093 A 
ATOM      3  C   UNL d   1      32.611  22.990 -22.121  0.00  0.00     0.093 A 
ATOM      4  C   UNL d   1      32.985  22.789 -23.479  0.00  0.00     0.369 A 
ATOM      5  N   UNL d   1      32.763  23.292 -22.864  0.00  0.00    -0.191 NA
ATOM      6  N   UNL d   1      33.052  21.996 -23.343  0.00  0.00    -0.191 NA
ATOM      7  O   UNL d   1      33.143  23.087 -24.245  0.00  0.00    -0.242 OA
ATOM      8  C   UNL d   1      32.385  23.504 -21.498  0.00  0.00     0.021 C 
ENDROOT
BRANCH   2   9
ATOM      9  C   UNL d   1      33.001  20.666 -22.481  0.00  0.00     0.029 A 
ATOM     10  C   UNL d   1      32.903  20.235 -23.164  0.00  0.00     0.060 A 
ATOM     11  C   UNL d   1      32.986  19.392 -23.059  0.00  0.00     0.023 A 
ATOM     12 CL   UNL d   1      32.744  20.524 -23.873  0.00  0.00    -0.082 Cl
ATOM     13  C   UNL d   1      33.156  19.092 -22.295  0.00  0.00     0.059 A 
ATOM     14  C   UNL d   1      33.240  19.585 -21.663  0.00  0.00     0.011 A 
ATOM     15 CL   UNL d   1      33.241  18.269 -22.179  0.00  0.00    -0.082 Cl
ATOM     16  C   UNL d   1      33.161  20.409 -21.752  0.00  0.00     0.003 A 
ENDBRANCH   2   9
BRANCH   1  17
ATOM     17  C   UNL d   1      32.534  21.850 -21.251  0.00  0.00     0.303 C 
ATOM     18  O   UNL d   1      31.837  21.460 -21.082  0.00  0.00    -0.259 OA
BRANCH  17  19
ATOM     19  O   UNL d   1      33.117  21.912 -20.632  0.00  0.00    -0.271 OA
BRANCH  19  20
ATOM     20  C   UNL d   1      32.862  21.821 -19.829  0.00  0.00     0.126 C 
ATOM     21  C   UNL d   1      33.158  22.321 -19.244  0.00  0.00     0.029 C 
ENDBRANCH  19  20
ENDBRANCH  17  19
ENDBRANCH   1  17
TORSDOF 4
ENDMDL
MODEL 4
REMARK VINA RESULT:       2.4      4.967      6.326
REMARK  4 active torsions:
REMARK  status: ('A' for Active; 'I' for Inactive)
REMARK    1  A    between atoms: C_8  and  C_1 
REMARK    2  A    between atoms: C_6  and  C_2 
REMARK    3  A    between atoms: O_17  and  C_8 
REMARK    4  A    between atoms: C_20  and  O_17 
ROOT
ATOM      1  C   UNL d   1      33.003  21.583 -21.241  0.00  0.00     0.099 A 
ATOM      2  C   UNL d   1      32.938  22.381 -21.373  0.00  0.00     0.093 A 
ATOM      3  C   UNL d   1      33.142  21.299 -20.480  0.00  0.00     0.093 A 
ATOM      4  C   UNL d   1      33.147  22.638 -20.001  0.00  0.00     0.369 A 
ATOM      5  N   UNL d   1      33.214  21.828 -19.863  0.00  0.00    -0.191 NA
ATOM      6  N   UNL d   1      33.010  22.907 -20.750  0.00  0.00    -0.191 NA
ATOM      7  O   UNL d   1      33.218  23.190 -19.377  0.00  0.00    -0.242 OA
ATOM      8  C   UNL d   1      33.211  20.475 -20.336  0.00  0.00     0.021 C 
ENDROOT
BRANCH   2   9
ATOM      9  C   UNL d   1      32.763  22.777 -22.312  0.00  0.00     0.029 A 
ATOM     10  C   UNL d   1      32.148  23.308 -22.344  0.00  0.00     0.060 A 
ATOM     11  C   UNL d   1      32.008  23.632 -23.122  0.00  0.00     0.023 A 
ATOM     12 CL   UNL d   1      31.699  23.531 -21.744  0.00  0.00    -0.082 Cl
ATOM     13  C   UNL d   1      32.495  23.386 -23.759  0.00  0.00     0.059 A 
ATOM     14  C   UNL d   1      33.089  22.853 -23.646  0.00  0.00     0.011 A 
ATOM     15 CL   UNL d   1      32.369  23.695 -24.523  0.00  0.00    -0.082 Cl
ATOM     16  C   UNL d   1      33.236  22.529 -22.894  0.00  0.00     0.003 A 
ENDBRANCH   2   9
BRANCH   1  17
ATOM     17  C   UNL d   1      32.927  21.068 -21.881  0.00  0.00     0.303 C 
ATOM     18  O   UNL d   1      33.241  21.240 -22.614  0.00  0.00    -0.259 OA
BRANCH  17  19
ATOM     19  O   UNL d   1      32.511  20.330 -21.788  0.00  0.00    -0.271 OA
BRANCH  19  20
ATOM     20  C   UNL d   1      32.853  19.630 -22.121  0.00  0.00     0.126 C 
ATOM     21  C   UNL d   1      32.394  19.129 -22.588  0.00  0.00     0.029 C 
ENDBRANCH  19  20
ENDBRANCH  17  19
ENDBRANCH   1  17
TORSDOF 4
ENDMDL
MODEL 5
REMARK VINA RESULT:       3.5      1.785      2.367
REMARK  4 active torsions:
REMARK  status: ('A' for Active; 'I' for Inactive)
REMARK    1  A    between atoms: C_8  and  C_1 
REMARK    2  A    between atoms: C_6  and  C_2 
REMARK    3  A    between atoms: O_17  and  C_8 
REMARK    4  A    between atoms: C_20  and  O_17 
ROOT
ATOM      1  C   UNL d   1      29.557  16.989 -24.328  0.00  0.00     0.099 A 
ATOM      2  C   UNL d   1      28.808  17.286 -24.228  0.00  0.00     0.093 A 
ATOM      3  C   UNL d   1      30.139  17.448 -24.688  0.00  0.00     0.093 A 
ATOM      4  C   UNL d   1      29.192  18.498 -24.840  0.00  0.00     0.369 A 
ATOM      5  N   UNL d   1      29.955  18.200 -24.943  0.00  0.00    -0.191 NA
ATOM      6  N   UNL d   1      28.629  18.041 -24.485  0.00  0.00    -0.191 NA
ATOM      7  O   UNL d   1      28.990  19.268 -25.096  0.00  0.00    -0.242 OA
ATOM      8  C   UNL d   1      30.916  17.148 -24.795  0.00  0.00     0.021 C 
ENDROOT
BRANCH   2   9
ATOM      9  C   UNL d   1      28.051  16.743 -23.780  0.00  0.00     0.029 A 
ATOM     10  C   UNL d   1      27.705  17.111 -23.143  0.00  0.00     0.060 A 
ATOM     11  C   UNL d   1      27.080  16.658 -22.777  0.00  0.00     0.023 A 
ATOM     12 CL   UNL d   1      27.894  17.813 -22.856  0.00  0.00    -0.082 Cl
ATOM     13  C   UNL d   1      26.884  15.906 -23.092  0.00  0.00     0.059 A 
ATOM     14  C   UNL d   1      27.276  15.608 -23.730  0.00  0.00     0.011 A 
ATOM     15 CL   UNL d   1      26.275  15.454 -22.743  0.00  0.00    -0.082 Cl
ATOM     16  C   UNL d   1      27.886  16.038 -24.096  0.00  0.00     0.003 A 
ENDBRANCH   2   9
BRANCH   1  17
ATOM     17  C   UNL d   1      29.720  16.225 -24.062  0.00  0.00     0.303 C 
ATOM     18  O   UNL d   1      29.729  15.585 -24.567  0.00  0.00    -0.259 OA
BRANCH  17  19
ATOM     19  O   UNL d   1      29.886  16.086 -23.237  0.00  0.00    -0.271 OA
BRANCH  19  20
ATOM     20  C   UNL d   1      30.413  15.454 -23.034  0.00  0.00     0.126 C 
ATOM     21  C   UNL d   1      30.794  15.454 -22.303  0.00  0.00     0.029 C 
ENDBRANCH  19  20
ENDBRANCH  17  19
ENDBRANCH   1  17
TORSDOF 4
ENDMDL
