MODEL 1
REMARK VINA RESULT:      -8.0      0.000      0.000
REMARK  4 active torsions:
REMARK  status: ('A' for Active; 'I' for Inactive)
REMARK    1  A    between atoms: C_6  and  C_1 
REMARK       I    between atoms: N_9  and  C_6 
REMARK    2  A    between atoms: C_13  and  N_9 
REMARK    3  A    between atoms: O_12  and  C_14 
REMARK    4  A    between atoms: C_14  and  C_13 
ROOT
ATOM      1  C   UNL d   1      53.706  33.073  54.040  0.00  0.00     0.084 A 
ATOM      2  C   UNL d   1      54.013  33.425  54.724  0.00  0.00     0.137 A 
ATOM      3  S   UNL d   1      53.662  34.169  54.805  0.00  0.00    -0.066 SA
ATOM      4  C   UNL d   1      53.170  33.597  53.705  0.00  0.00     0.013 A 
ATOM      5  C   UNL d   1      53.141  34.271  54.171  0.00  0.00     0.031 A 
ATOM      6  N   UNL d   1      54.574  33.092  55.238  0.00  0.00    -0.141 N 
ATOM      7  C   UNL d   1      52.700  33.547  53.026  0.00  0.00     0.001 A 
ATOM      8  C   UNL d   1      52.646  34.902  53.972  0.00  0.00     0.006 A 
ATOM      9  C   UNL d   1      52.205  34.178  52.825  0.00  0.00     0.000 A 
ATOM     10  C   UNL d   1      52.180  34.852  53.298  0.00  0.00     0.001 A 
ENDROOT
BRANCH   1  11
ATOM     11  C   UNL d   1      53.910  32.323  53.754  0.00  0.00     0.281 C 
ATOM     12  O   UNL d   1      54.560  32.238  53.255  0.00  0.00    -0.265 OA
ATOM     13  N   UNL d   1      53.468  31.661  53.965  0.00  0.00    -0.204 NA
BRANCH  13  14
ATOM     14  C   UNL d   1      53.672  30.912  53.679  0.00  0.00     0.128 C 
BRANCH  14  15
ATOM     15  C   UNL d   1      53.213  30.254  53.867  0.00  0.00     0.137 C 
BRANCH  15  16
ATOM     16  O   UNL d   1      53.555  29.506  53.904  0.00  0.00    -0.325 OA
ATOM     17  C   UNL d   1      53.272  28.945  54.439  0.00  0.00     0.182 C 
ENDBRANCH  15  16
ENDBRANCH  14  15
ENDBRANCH  13  14
ENDBRANCH   1  11
TORSDOF 4
ENDMDL
MODEL 2
REMARK VINA RESULT:      -7.9      1.165      1.770
REMARK  4 active torsions:
REMARK  status: ('A' for Active; 'I' for Inactive)
REMARK    1  A    between atoms: C_6  and  C_1 
REMARK       I    between atoms: N_9  and  C_6 
REMARK    2  A    between atoms: C_13  and  N_9 
REMARK    3  A    between atoms: O_12  and  C_14 
REMARK    4  A    between atoms: C_14  and  C_13 
ROOT
ATOM      1  C   UNL d   1      53.107  32.609  53.619  0.00  0.00     0.084 A 
ATOM      2  C   UNL d   1      52.450  33.099  53.503  0.00  0.00     0.137 A 
ATOM      3  S   UNL d   1      52.579  33.800  53.921  0.00  0.00    -0.066 SA
ATOM      4  C   UNL d   1      53.636  33.008  54.104  0.00  0.00     0.013 A 
ATOM      5  C   UNL d   1      53.316  33.738  54.291  0.00  0.00     0.031 A 
ATOM      6  N   UNL d   1      51.778  32.919  53.048  0.00  0.00    -0.141 N 
ATOM      7  C   UNL d   1      54.378  32.796  54.403  0.00  0.00     0.001 A 
ATOM      8  C   UNL d   1      53.724  34.269  54.776  0.00  0.00     0.006 A 
ATOM      9  C   UNL d   1      54.788  33.325  54.889  0.00  0.00     0.000 A 
ATOM     10  C   UNL d   1      54.460  34.058  55.073  0.00  0.00     0.001 A 
ENDROOT
BRANCH   1  11
ATOM     11  C   UNL d   1      53.204  31.853  53.297  0.00  0.00     0.281 C 
ATOM     12  O   UNL d   1      53.457  31.768  52.518  0.00  0.00    -0.265 OA
ATOM     13  N   UNL d   1      53.050  31.182  53.751  0.00  0.00    -0.204 NA
BRANCH  13  14
ATOM     14  C   UNL d   1      53.148  30.427  53.429  0.00  0.00     0.128 C 
BRANCH  14  15
ATOM     15  C   UNL d   1      52.886  29.762  53.840  0.00  0.00     0.137 C 
BRANCH  15  16
ATOM     16  O   UNL d   1      53.404  29.143  54.001  0.00  0.00    -0.325 OA
ATOM     17  C   UNL d   1      53.327  28.706  54.697  0.00  0.00     0.182 C 
ENDBRANCH  15  16
ENDBRANCH  14  15
ENDBRANCH  13  14
ENDBRANCH   1  11
TORSDOF 4
ENDMDL
MODEL 3
REMARK VINA RESULT:      -7.8      2.017      3.535
REMARK  4 active torsions:
REMARK  status: ('A' for Active; 'I' for Inactive)
REMARK    1  A    between atoms: C_6  and  C_1 
REMARK       I    between atoms: N_9  and  C_6 
REMARK    2  A    between atoms: C_13  and  N_9 
REMARK    3  A    between atoms: O_12  and  C_14 
REMARK    4  A    between atoms: C_14  and  C_13 
ROOT
ATOM      1  C   UNL d   1      52.916  32.864  53.412  0.00  0.00     0.084 A 
ATOM      2  C   UNL d   1      53.025  32.044  53.380  0.00  0.00     0.137 A 
ATOM      3  S   UNL d   1      53.582  31.841  53.955  0.00  0.00    -0.066 SA
ATOM      4  C   UNL d   1      53.403  33.161  54.003  0.00  0.00     0.013 A 
ATOM      5  C   UNL d   1      53.813  32.536  54.339  0.00  0.00     0.031 A 
ATOM      6  N   UNL d   1      52.644  31.519  52.862  0.00  0.00    -0.141 N 
ATOM      7  C   UNL d   1      53.526  33.930  54.282  0.00  0.00     0.001 A 
ATOM      8  C   UNL d   1      54.350  32.662  54.954  0.00  0.00     0.006 A 
ATOM      9  C   UNL d   1      54.063  34.059  54.898  0.00  0.00     0.000 A 
ATOM     10  C   UNL d   1      54.472  33.426  55.230  0.00  0.00     0.001 A 
ENDROOT
BRANCH   1  11
ATOM     11  C   UNL d   1      52.403  33.299  52.928  0.00  0.00     0.281 C 
ATOM     12  O   UNL d   1      52.653  33.545  52.183  0.00  0.00    -0.265 OA
ATOM     13  N   UNL d   1      51.645  33.488  53.187  0.00  0.00    -0.204 NA
BRANCH  13  14
ATOM     14  C   UNL d   1      51.133  33.923  52.704  0.00  0.00     0.128 C 
BRANCH  14  15
ATOM     15  C   UNL d   1      50.406  34.183  52.992  0.00  0.00     0.137 C 
BRANCH  15  16
ATOM     16  O   UNL d   1      49.876  34.569  52.495  0.00  0.00    -0.325 OA
ATOM     17  C   UNL d   1      49.241  34.991  52.810  0.00  0.00     0.182 C 
ENDBRANCH  15  16
ENDBRANCH  14  15
ENDBRANCH  13  14
ENDBRANCH   1  11
TORSDOF 4
ENDMDL
MODEL 4
REMARK VINA RESULT:      -7.6      2.167      3.588
REMARK  4 active torsions:
REMARK  status: ('A' for Active; 'I' for Inactive)
REMARK    1  A    between atoms: C_6  and  C_1 
REMARK       I    between atoms: N_9  and  C_6 
REMARK    2  A    between atoms: C_13  and  N_9 
REMARK    3  A    between atoms: O_12  and  C_14 
REMARK    4  A    between atoms: C_14  and  C_13 
ROOT
ATOM      1  C   UNL d   1      52.852  34.201  53.773  0.00  0.00     0.084 A 
ATOM      2  C   UNL d   1      53.076  34.718  54.379  0.00  0.00     0.137 A 
ATOM      3  S   UNL d   1      53.584  34.309  54.886  0.00  0.00    -0.066 SA
ATOM      4  C   UNL d   1      53.220  33.479  53.908  0.00  0.00     0.013 A 
ATOM      5  C   UNL d   1      53.670  33.542  54.589  0.00  0.00     0.031 A 
ATOM      6  N   UNL d   1      52.834  35.508  54.464  0.00  0.00    -0.141 N 
ATOM      7  C   UNL d   1      53.204  32.765  53.492  0.00  0.00     0.001 A 
ATOM      8  C   UNL d   1      54.109  32.900  54.869  0.00  0.00     0.006 A 
ATOM      9  C   UNL d   1      53.642  32.121  53.769  0.00  0.00     0.000 A 
ATOM     10  C   UNL d   1      54.092  32.190  54.455  0.00  0.00     0.001 A 
ENDROOT
BRANCH   1  11
ATOM     11  C   UNL d   1      52.345  34.388  53.146  0.00  0.00     0.281 C 
ATOM     12  O   UNL d   1      52.647  34.740  52.465  0.00  0.00    -0.265 OA
ATOM     13  N   UNL d   1      51.539  34.224  53.196  0.00  0.00    -0.204 NA
BRANCH  13  14
ATOM     14  C   UNL d   1      51.033  34.411  52.570  0.00  0.00     0.128 C 
BRANCH  14  15
ATOM     15  C   UNL d   1      50.215  34.379  52.670  0.00  0.00     0.137 C 
BRANCH  15  16
ATOM     16  O   UNL d   1      49.717  34.381  52.015  0.00  0.00    -0.325 OA
ATOM     17  C   UNL d   1      48.983  34.755  52.051  0.00  0.00     0.182 C 
ENDBRANCH  15  16
ENDBRANCH  14  15
ENDBRANCH  13  14
ENDBRANCH   1  11
TORSDOF 4
ENDMDL
MODEL 5
REMARK VINA RESULT:      -6.6      1.666      3.810
REMARK  4 active torsions:
REMARK  status: ('A' for Active; 'I' for Inactive)
REMARK    1  A    between atoms: C_6  and  C_1 
REMARK       I    between atoms: N_9  and  C_6 
REMARK    2  A    between atoms: C_13  and  N_9 
REMARK    3  A    between atoms: O_12  and  C_14 
REMARK    4  A    between atoms: C_14  and  C_13 
ROOT
ATOM      1  C   UNL d   1      53.227  32.111  53.353  0.00  0.00     0.084 A 
ATOM      2  C   UNL d   1      52.598  32.207  52.824  0.00  0.00     0.137 A 
ATOM      3  S   UNL d   1      52.293  31.458  52.654  0.00  0.00    -0.066 SA
ATOM      4  C   UNL d   1      53.308  31.308  53.507  0.00  0.00     0.013 A 
ATOM      5  C   UNL d   1      52.736  30.904  53.080  0.00  0.00     0.031 A 
ATOM      6  N   UNL d   1      52.321  32.927  52.517  0.00  0.00    -0.141 N 
ATOM      7  C   UNL d   1      53.834  30.888  53.986  0.00  0.00     0.001 A 
ATOM      8  C   UNL d   1      52.678  30.081  53.121  0.00  0.00     0.006 A 
ATOM      9  C   UNL d   1      53.778  30.064  54.029  0.00  0.00     0.000 A 
ATOM     10  C   UNL d   1      53.202  29.665  53.598  0.00  0.00     0.001 A 
ENDROOT
BRANCH   1  11
ATOM     11  C   UNL d   1      53.688  32.723  53.666  0.00  0.00     0.281 C 
ATOM     12  O   UNL d   1      54.461  32.830  53.403  0.00  0.00    -0.265 OA
ATOM     13  N   UNL d   1      53.380  33.227  54.241  0.00  0.00    -0.204 NA
BRANCH  13  14
ATOM     14  C   UNL d   1      53.841  33.838  54.553  0.00  0.00     0.128 C 
BRANCH  14  15
ATOM     15  C   UNL d   1      53.497  34.422  55.022  0.00  0.00     0.137 C 
BRANCH  15  16
ATOM     16  O   UNL d   1      53.666  35.216  54.887  0.00  0.00    -0.325 OA
ATOM     17  C   UNL d   1      53.057  35.770  54.838  0.00  0.00     0.182 C 
ENDBRANCH  15  16
ENDBRANCH  14  15
ENDBRANCH  13  14
ENDBRANCH   1  11
TORSDOF 4
ENDMDL
MODEL 6
REMARK VINA RESULT:      -5.7      1.858      2.801
REMARK  4 active torsions:
REMARK  status: ('A' for Active; 'I' for Inactive)
REMARK    1  A    between atoms: C_6  and  C_1 
REMARK       I    between atoms: N_9  and  C_6 
REMARK    2  A    between atoms: C_13  and  N_9 
REMARK    3  A    between atoms: O_12  and  C_14 
REMARK    4  A    between atoms: C_14  and  C_13 
ROOT
ATOM      1  C   UNL d   1      52.610  32.844  53.212  0.00  0.00     0.084 A 
ATOM      2  C   UNL d   1      52.227  32.117  53.115  0.00  0.00     0.137 A 
ATOM      3  S   UNL d   1      51.429  32.269  52.966  0.00  0.00    -0.066 SA
ATOM      4  C   UNL d   1      52.050  33.439  53.122  0.00  0.00     0.013 A 
ATOM      5  C   UNL d   1      51.324  33.090  52.971  0.00  0.00     0.031 A 
ATOM      6  N   UNL d   1      52.580  31.367  53.160  0.00  0.00    -0.141 N 
ATOM      7  C   UNL d   1      52.109  34.263  53.160  0.00  0.00     0.001 A 
ATOM      8  C   UNL d   1      50.648  33.550  52.855  0.00  0.00     0.006 A 
ATOM      9  C   UNL d   1      51.434  34.726  53.044  0.00  0.00     0.000 A 
ATOM     10  C   UNL d   1      50.708  34.369  52.892  0.00  0.00     0.001 A 
ENDROOT
BRANCH   1  11
ATOM     11  C   UNL d   1      53.416  32.944  53.371  0.00  0.00     0.281 C 
ATOM     12  O   UNL d   1      53.957  32.967  52.750  0.00  0.00    -0.265 OA
ATOM     13  N   UNL d   1      53.683  33.021  54.147  0.00  0.00    -0.204 NA
BRANCH  13  14
ATOM     14  C   UNL d   1      54.488  33.121  54.305  0.00  0.00     0.128 C 
BRANCH  14  15
ATOM     15  C   UNL d   1      54.747  33.275  55.073  0.00  0.00     0.137 C 
BRANCH  15  16
ATOM     16  O   UNL d   1      55.027  34.023  55.274  0.00  0.00    -0.325 OA
ATOM     17  C   UNL d   1      55.779  34.111  55.601  0.00  0.00     0.182 C 
ENDBRANCH  15  16
ENDBRANCH  14  15
ENDBRANCH  13  14
ENDBRANCH   1  11
TORSDOF 4
ENDMDL
