MODEL 1
REMARK VINA RESULT:      -5.2      0.000      0.000
REMARK  8 active torsions:
REMARK  status: ('A' for Active; 'I' for Inactive)
REMARK    1  A    between atoms: N_6  and  C_1 
REMARK       I    between atoms: C_2  and  N_3 
REMARK    2  A    between atoms: C_7  and  C_2 
REMARK    3  A    between atoms: N_3  and  C_4 
REMARK    4  A    between atoms: C_4  and  N_6 
REMARK    5  A    between atoms: C_10  and  C_8 
REMARK    6  A    between atoms: C_12  and  C_10 
REMARK    7  A    between atoms: O_18  and  C_12 
REMARK    8  A    between atoms: C_21  and  O_18 
ROOT
ATOM      1  C   UNL d   1     -48.675  12.665  22.416  0.00  0.00     0.277 C 
ATOM      2  S   UNL d   1     -49.007  12.277  21.767  0.00  0.00    -0.023 SA
ENDROOT
BRANCH   1   3
ATOM      3  N   UNL d   1     -49.128  13.219  22.829  0.00  0.00    -0.168 NA
ATOM      4  C   UNL d   1     -49.481  13.848  22.431  0.00  0.00     0.282 C 
ATOM      5  O   UNL d   1     -49.386  13.932  21.620  0.00  0.00    -0.265 OA
BRANCH   4   6
ATOM      6  C   UNL d   1     -49.935  14.401  22.853  0.00  0.00     0.064 A 
ATOM      7  C   UNL d   1     -49.711  15.191  22.860  0.00  0.00     0.039 A 
ATOM      8 BR   UNL d   1     -49.043  15.439  22.456  0.00  0.00    -0.049 Br
ATOM      9  C   UNL d   1     -50.167  15.735  23.282  0.00  0.00     0.007 A 
ATOM     10  C   UNL d   1     -50.845  15.490  23.694  0.00  0.00     0.001 A 
ATOM     11  C   UNL d   1     -51.058  14.688  23.676  0.00  0.00     0.000 A 
ATOM     12  C   UNL d   1     -50.605  14.144  23.257  0.00  0.00     0.005 A 
ENDBRANCH   4   6
ENDBRANCH   1   3
BRANCH   1  13
ATOM     13  N   UNL d   1     -47.905  12.502  22.646  0.00  0.00    -0.347 NA
BRANCH  13  14
ATOM     14  C   UNL d   1     -47.127  12.337  22.877  0.00  0.00     0.248 A 
ATOM     15  N   UNL d   1     -46.448  12.749  22.635  0.00  0.00    -0.210 NA
ATOM     16  C   UNL d   1     -45.799  12.396  23.000  0.00  0.00     0.096 A 
ATOM     17  C   UNL d   1     -46.073  11.767  23.468  0.00  0.00     0.059 A 
ATOM     18  S   UNL d   1     -46.890  11.738  23.386  0.00  0.00    -0.033 SA
BRANCH  16  19
ATOM     19  C   UNL d   1     -45.014  12.624  22.918  0.00  0.00     0.088 C 
BRANCH  19  20
ATOM     20  C   UNL d   1     -44.490  12.179  22.462  0.00  0.00     0.302 C 
ATOM     21  O   UNL d   1     -44.259  11.432  22.724  0.00  0.00    -0.259 OA
BRANCH  20  22
ATOM     22  O   UNL d   1     -44.199  12.474  21.753  0.00  0.00    -0.271 OA
BRANCH  22  23
ATOM     23  C   UNL d   1     -43.385  12.600  21.664  0.00  0.00     0.126 C 
ATOM     24  C   UNL d   1     -43.097  12.888  20.950  0.00  0.00     0.029 C 
ENDBRANCH  22  23
ENDBRANCH  20  22
ENDBRANCH  19  20
ENDBRANCH  16  19
ENDBRANCH  13  14
ENDBRANCH   1  13
TORSDOF 8
ENDMDL
MODEL 2
REMARK VINA RESULT:      -4.3      8.451      9.926
REMARK  8 active torsions:
REMARK  status: ('A' for Active; 'I' for Inactive)
REMARK    1  A    between atoms: N_6  and  C_1 
REMARK       I    between atoms: C_2  and  N_3 
REMARK    2  A    between atoms: C_7  and  C_2 
REMARK    3  A    between atoms: N_3  and  C_4 
REMARK    4  A    between atoms: C_4  and  N_6 
REMARK    5  A    between atoms: C_10  and  C_8 
REMARK    6  A    between atoms: C_12  and  C_10 
REMARK    7  A    between atoms: O_18  and  C_12 
REMARK    8  A    between atoms: C_21  and  O_18 
ROOT
ATOM      1  C   UNL d   1     -40.226  14.367  19.682  0.00  0.00     0.277 C 
ATOM      2  S   UNL d   1     -41.038  14.371  19.832  0.00  0.00    -0.023 SA
ENDROOT
BRANCH   1   3
ATOM      3  N   UNL d   1     -39.702  14.214  20.302  0.00  0.00    -0.168 NA
ATOM      4  C   UNL d   1     -39.809  14.574  21.035  0.00  0.00     0.282 C 
ATOM      5  O   UNL d   1     -40.436  15.089  21.158  0.00  0.00    -0.265 OA
BRANCH   4   6
ATOM      6  C   UNL d   1     -39.278  14.416  21.653  0.00  0.00     0.064 A 
ATOM      7  C   UNL d   1     -38.921  15.039  22.053  0.00  0.00     0.039 A 
ATOM      8 BR   UNL d   1     -39.083  15.814  21.846  0.00  0.00    -0.049 Br
ATOM      9  C   UNL d   1     -38.394  14.874  22.667  0.00  0.00     0.007 A 
ATOM     10  C   UNL d   1     -38.225  14.090  22.881  0.00  0.00     0.001 A 
ATOM     11  C   UNL d   1     -38.594  13.472  22.467  0.00  0.00     0.000 A 
ATOM     12  C   UNL d   1     -39.119  13.634  21.855  0.00  0.00     0.005 A 
ENDBRANCH   4   6
ENDBRANCH   1   3
BRANCH   1  13
ATOM     13  N   UNL d   1     -39.946  14.512  18.924  0.00  0.00    -0.347 NA
BRANCH  13  14
ATOM     14  C   UNL d   1     -39.662  14.660  18.161  0.00  0.00     0.248 A 
ATOM     15  N   UNL d   1     -38.918  14.443  17.866  0.00  0.00    -0.210 NA
ATOM     16  C   UNL d   1     -38.875  14.701  17.084  0.00  0.00     0.096 A 
ATOM     17  C   UNL d   1     -39.590  15.078  16.894  0.00  0.00     0.059 A 
ATOM     18  S   UNL d   1     -40.068  15.049  17.561  0.00  0.00    -0.033 SA
BRANCH  16  19
ATOM     19  C   UNL d   1     -38.236  14.605  16.577  0.00  0.00     0.088 C 
BRANCH  19  20
ATOM     20  C   UNL d   1     -38.197  13.959  16.064  0.00  0.00     0.302 C 
ATOM     21  O   UNL d   1     -38.277  13.197  16.368  0.00  0.00    -0.259 OA
BRANCH  20  22
ATOM     22  O   UNL d   1     -38.079  14.071  15.260  0.00  0.00    -0.271 OA
BRANCH  22  23
ATOM     23  C   UNL d   1     -37.985  13.416  14.763  0.00  0.00     0.126 C 
ATOM     24  C   UNL d   1     -37.940  13.528  13.950  0.00  0.00     0.029 C 
ENDBRANCH  22  23
ENDBRANCH  20  22
ENDBRANCH  19  20
ENDBRANCH  16  19
ENDBRANCH  13  14
ENDBRANCH   1  13
TORSDOF 8
ENDMDL
MODEL 3
REMARK VINA RESULT:      -3.8      4.240      7.858
REMARK  8 active torsions:
REMARK  status: ('A' for Active; 'I' for Inactive)
REMARK    1  A    between atoms: N_6  and  C_1 
REMARK       I    between atoms: C_2  and  N_3 
REMARK    2  A    between atoms: C_7  and  C_2 
REMARK    3  A    between atoms: N_3  and  C_4 
REMARK    4  A    between atoms: C_4  and  N_6 
REMARK    5  A    between atoms: C_10  and  C_8 
REMARK    6  A    between atoms: C_12  and  C_10 
REMARK    7  A    between atoms: O_18  and  C_12 
REMARK    8  A    between atoms: C_21  and  O_18 
ROOT
ATOM      1  C   UNL d   1     -41.196  14.229  20.560  0.00  0.00     0.277 C 
ATOM      2  S   UNL d   1     -40.900  14.853  21.013  0.00  0.00    -0.023 SA
ENDROOT
BRANCH   1   3
ATOM      3  N   UNL d   1     -40.843  14.055  19.834  0.00  0.00    -0.168 NA
ATOM      4  C   UNL d   1     -40.547  14.659  19.359  0.00  0.00     0.282 C 
ATOM      5  O   UNL d   1     -40.600  15.442  19.602  0.00  0.00    -0.265 OA
BRANCH   4   6
ATOM      6  C   UNL d   1     -40.193  14.477  18.631  0.00  0.00     0.064 A 
ATOM      7  C   UNL d   1     -40.456  14.846  17.946  0.00  0.00     0.039 A 
ATOM      8 BR   UNL d   1     -41.065  15.393  17.975  0.00  0.00    -0.049 Br
ATOM      9  C   UNL d   1     -40.099  14.659  17.225  0.00  0.00     0.007 A 
ATOM     10  C   UNL d   1     -39.481  14.105  17.189  0.00  0.00     0.001 A 
ATOM     11  C   UNL d   1     -39.227  13.741  17.890  0.00  0.00     0.000 A 
ATOM     12  C   UNL d   1     -39.582  13.925  18.609  0.00  0.00     0.005 A 
ENDBRANCH   4   6
ENDBRANCH   1   3
BRANCH   1  13
ATOM     13  N   UNL d   1     -41.834  13.789  20.829  0.00  0.00    -0.347 NA
BRANCH  13  14
ATOM     14  C   UNL d   1     -42.477  13.347  21.103  0.00  0.00     0.248 A 
ATOM     15  N   UNL d   1     -43.279  13.549  21.026  0.00  0.00    -0.210 NA
ATOM     16  C   UNL d   1     -43.723  12.949  21.378  0.00  0.00     0.096 A 
ATOM     17  C   UNL d   1     -43.199  12.376  21.673  0.00  0.00     0.059 A 
ATOM     18  S   UNL d   1     -42.436  12.628  21.500  0.00  0.00    -0.033 SA
BRANCH  16  19
ATOM     19  C   UNL d   1     -44.542  12.921  21.429  0.00  0.00     0.088 C 
BRANCH  19  20
ATOM     20  C   UNL d   1     -44.923  13.006  22.157  0.00  0.00     0.302 C 
ATOM     21  O   UNL d   1     -44.862  12.405  22.717  0.00  0.00    -0.259 OA
BRANCH  20  22
ATOM     22  O   UNL d   1     -45.359  13.682  22.322  0.00  0.00    -0.271 OA
BRANCH  22  23
ATOM     23  C   UNL d   1     -46.103  13.612  22.680  0.00  0.00     0.126 C 
ATOM     24  C   UNL d   1     -46.551  14.289  22.813  0.00  0.00     0.029 C 
ENDBRANCH  22  23
ENDBRANCH  20  22
ENDBRANCH  19  20
ENDBRANCH  16  19
ENDBRANCH  13  14
ENDBRANCH   1  13
TORSDOF 8
ENDMDL
MODEL 4
REMARK VINA RESULT:      -3.8      1.569      2.114
REMARK  8 active torsions:
REMARK  status: ('A' for Active; 'I' for Inactive)
REMARK    1  A    between atoms: N_6  and  C_1 
REMARK       I    between atoms: C_2  and  N_3 
REMARK    2  A    between atoms: C_7  and  C_2 
REMARK    3  A    between atoms: N_3  and  C_4 
REMARK    4  A    between atoms: C_4  and  N_6 
REMARK    5  A    between atoms: C_10  and  C_8 
REMARK    6  A    between atoms: C_12  and  C_10 
REMARK    7  A    between atoms: O_18  and  C_12 
REMARK    8  A    between atoms: C_21  and  O_18 
ROOT
ATOM      1  C   UNL d   1     -47.707  14.039  22.703  0.00  0.00     0.277 C 
ATOM      2  S   UNL d   1     -47.807  14.824  22.464  0.00  0.00    -0.023 SA
ENDROOT
BRANCH   1   3
ATOM      3  N   UNL d   1     -48.343  13.638  23.046  0.00  0.00    -0.168 NA
ATOM      4  C   UNL d   1     -49.060  13.575  22.646  0.00  0.00     0.282 C 
ATOM      5  O   UNL d   1     -49.152  13.910  21.902  0.00  0.00    -0.265 OA
BRANCH   4   6
ATOM      6  C   UNL d   1     -49.694  13.171  22.997  0.00  0.00     0.064 A 
ATOM      7  C   UNL d   1     -50.438  13.518  23.018  0.00  0.00     0.039 A 
ATOM      8 BR   UNL d   1     -50.560  14.261  22.694  0.00  0.00    -0.049 Br
ATOM      9  C   UNL d   1     -51.064  13.110  23.369  0.00  0.00     0.007 A 
ATOM     10  C   UNL d   1     -50.947  12.357  23.698  0.00  0.00     0.001 A 
ATOM     11  C   UNL d   1     -50.189  12.019  23.670  0.00  0.00     0.000 A 
ATOM     12  C   UNL d   1     -49.564  12.424  23.320  0.00  0.00     0.005 A 
ENDBRANCH   4   6
ENDBRANCH   1   3
BRANCH   1  13
ATOM     13  N   UNL d   1     -46.985  13.665  22.599  0.00  0.00    -0.347 NA
BRANCH  13  14
ATOM     14  C   UNL d   1     -46.256  13.289  22.493  0.00  0.00     0.248 A 
ATOM     15  N   UNL d   1     -45.854  12.832  23.058  0.00  0.00    -0.210 NA
ATOM     16  C   UNL d   1     -45.153  12.567  22.713  0.00  0.00     0.096 A 
ATOM     17  C   UNL d   1     -45.119  12.859  21.936  0.00  0.00     0.059 A 
ATOM     18  S   UNL d   1     -45.800  13.300  21.809  0.00  0.00    -0.033 SA
BRANCH  16  19
ATOM     19  C   UNL d   1     -44.584  12.097  23.074  0.00  0.00     0.088 C 
BRANCH  19  20
ATOM     20  C   UNL d   1     -44.756  11.320  23.293  0.00  0.00     0.302 C 
ATOM     21  O   UNL d   1     -45.537  11.059  23.277  0.00  0.00    -0.259 OA
BRANCH  20  22
ATOM     22  O   UNL d   1     -44.156  10.810  23.527  0.00  0.00    -0.271 OA
BRANCH  22  23
ATOM     23  C   UNL d   1     -44.312  10.001  23.601  0.00  0.00     0.126 C 
ATOM     24  C   UNL d   1     -43.686   9.475  23.692  0.00  0.00     0.029 C 
ENDBRANCH  22  23
ENDBRANCH  20  22
ENDBRANCH  19  20
ENDBRANCH  16  19
ENDBRANCH  13  14
ENDBRANCH   1  13
TORSDOF 8
ENDMDL
MODEL 5
REMARK VINA RESULT:      -3.4      6.084      9.741
REMARK  8 active torsions:
REMARK  status: ('A' for Active; 'I' for Inactive)
REMARK    1  A    between atoms: N_6  and  C_1 
REMARK       I    between atoms: C_2  and  N_3 
REMARK    2  A    between atoms: C_7  and  C_2 
REMARK    3  A    between atoms: N_3  and  C_4 
REMARK    4  A    between atoms: C_4  and  N_6 
REMARK    5  A    between atoms: C_10  and  C_8 
REMARK    6  A    between atoms: C_12  and  C_10 
REMARK    7  A    between atoms: O_18  and  C_12 
REMARK    8  A    between atoms: C_21  and  O_18 
ROOT
ATOM      1  C   UNL d   1     -38.920  15.002  19.357  0.00  0.00     0.277 C 
ATOM      2  S   UNL d   1     -38.346  15.548  19.587  0.00  0.00    -0.023 SA
ENDROOT
BRANCH   1   3
ATOM      3  N   UNL d   1     -38.810  14.569  18.662  0.00  0.00    -0.168 NA
ATOM      4  C   UNL d   1     -38.553  14.943  17.975  0.00  0.00     0.282 C 
ATOM      5  O   UNL d   1     -38.403  15.751  17.973  0.00  0.00    -0.265 OA
BRANCH   4   6
ATOM      6  C   UNL d   1     -38.444  14.502  17.280  0.00  0.00     0.064 A 
ATOM      7  C   UNL d   1     -38.726  14.791  16.566  0.00  0.00     0.039 A 
ATOM      8 BR   UNL d   1     -39.115  15.511  16.532  0.00  0.00    -0.049 Br
ATOM      9  C   UNL d   1     -38.614  14.346  15.879  0.00  0.00     0.007 A 
ATOM     10  C   UNL d   1     -38.221  13.616  15.907  0.00  0.00     0.001 A 
ATOM     11  C   UNL d   1     -37.941  13.338  16.637  0.00  0.00     0.000 A 
ATOM     12  C   UNL d   1     -38.051  13.779  17.322  0.00  0.00     0.005 A 
ENDBRANCH   4   6
ENDBRANCH   1   3
BRANCH   1  13
ATOM     13  N   UNL d   1     -39.592  14.891  19.815  0.00  0.00    -0.347 NA
BRANCH  13  14
ATOM     14  C   UNL d   1     -40.271  14.780  20.275  0.00  0.00     0.248 A 
ATOM     15  N   UNL d   1     -40.556  14.054  20.557  0.00  0.00    -0.210 NA
ATOM     16  C   UNL d   1     -41.243  14.206  20.988  0.00  0.00     0.096 A 
ATOM     17  C   UNL d   1     -41.384  15.024  20.974  0.00  0.00     0.059 A 
ATOM     18  S   UNL d   1     -40.782  15.369  20.534  0.00  0.00    -0.033 SA
BRANCH  16  19
ATOM     19  C   UNL d   1     -41.710  13.646  21.368  0.00  0.00     0.088 C 
BRANCH  19  20
ATOM     20  C   UNL d   1     -42.396  13.356  21.011  0.00  0.00     0.302 C 
ATOM     21  O   UNL d   1     -42.341  12.970  20.285  0.00  0.00    -0.259 OA
BRANCH  20  22
ATOM     22  O   UNL d   1     -43.126  13.449  21.374  0.00  0.00    -0.271 OA
BRANCH  22  23
ATOM     23  C   UNL d   1     -43.628  12.796  21.459  0.00  0.00     0.126 C 
ATOM     24  C   UNL d   1     -44.393  12.909  21.739  0.00  0.00     0.029 C 
ENDBRANCH  22  23
ENDBRANCH  20  22
ENDBRANCH  19  20
ENDBRANCH  16  19
ENDBRANCH  13  14
ENDBRANCH   1  13
TORSDOF 8
ENDMDL
MODEL 6
REMARK VINA RESULT:      -3.1      8.269      9.903
REMARK  8 active torsions:
REMARK  status: ('A' for Active; 'I' for Inactive)
REMARK    1  A    between atoms: N_6  and  C_1 
REMARK       I    between atoms: C_2  and  N_3 
REMARK    2  A    between atoms: C_7  and  C_2 
REMARK    3  A    between atoms: N_3  and  C_4 
REMARK    4  A    between atoms: C_4  and  N_6 
REMARK    5  A    between atoms: C_10  and  C_8 
REMARK    6  A    between atoms: C_12  and  C_10 
REMARK    7  A    between atoms: O_18  and  C_12 
REMARK    8  A    between atoms: C_21  and  O_18 
ROOT
ATOM      1  C   UNL d   1     -40.514  15.652  18.392  0.00  0.00     0.277 C 
ATOM      2  S   UNL d   1     -41.237  15.843  18.041  0.00  0.00    -0.023 SA
ENDROOT
BRANCH   1   3
ATOM      3  N   UNL d   1     -39.870  15.462  17.911  0.00  0.00    -0.168 NA
ATOM      4  C   UNL d   1     -39.899  14.804  17.416  0.00  0.00     0.282 C 
ATOM      5  O   UNL d   1     -40.568  14.329  17.396  0.00  0.00    -0.265 OA
BRANCH   4   6
ATOM      6  C   UNL d   1     -39.248  14.619  16.936  0.00  0.00     0.064 A 
ATOM      7  C   UNL d   1     -38.900  13.877  16.989  0.00  0.00     0.039 A 
ATOM      8 BR   UNL d   1     -39.189  13.318  17.512  0.00  0.00    -0.049 Br
ATOM      9  C   UNL d   1     -38.252  13.701  16.507  0.00  0.00     0.007 A 
ATOM     10  C   UNL d   1     -37.954  14.264  15.975  0.00  0.00     0.001 A 
ATOM     11  C   UNL d   1     -38.317  15.009  15.934  0.00  0.00     0.000 A 
ATOM     12  C   UNL d   1     -38.962  15.187  16.412  0.00  0.00     0.005 A 
ENDBRANCH   4   6
ENDBRANCH   1   3
BRANCH   1  13
ATOM     13  N   UNL d   1     -40.439  15.652  19.209  0.00  0.00    -0.347 NA
BRANCH  13  14
ATOM     14  C   UNL d   1     -40.361  15.652  20.032  0.00  0.00     0.248 A 
ATOM     15  N   UNL d   1     -39.679  15.856  20.459  0.00  0.00    -0.210 NA
ATOM     16  C   UNL d   1     -39.854  15.777  21.262  0.00  0.00     0.096 A 
ATOM     17  C   UNL d   1     -40.642  15.525  21.333  0.00  0.00     0.059 A 
ATOM     18  S   UNL d   1     -40.946  15.451  20.573  0.00  0.00    -0.033 SA
BRANCH  16  19
ATOM     19  C   UNL d   1     -39.340  15.922  21.886  0.00  0.00     0.088 C 
BRANCH  19  20
ATOM     20  C   UNL d   1     -38.838  15.330  22.166  0.00  0.00     0.302 C 
ATOM     21  O   UNL d   1     -38.169  15.127  21.729  0.00  0.00    -0.259 OA
BRANCH  20  22
ATOM     22  O   UNL d   1     -39.001  14.945  22.873  0.00  0.00    -0.271 OA
BRANCH  22  23
ATOM     23  C   UNL d   1     -38.378  14.707  23.363  0.00  0.00     0.126 C 
ATOM     24  C   UNL d   1     -38.389  13.954  23.694  0.00  0.00     0.029 C 
ENDBRANCH  22  23
ENDBRANCH  20  22
ENDBRANCH  19  20
ENDBRANCH  16  19
ENDBRANCH  13  14
ENDBRANCH   1  13
TORSDOF 8
ENDMDL
MODEL 7
REMARK VINA RESULT:      -3.0      1.821      5.677
REMARK  8 active torsions:
REMARK  status: ('A' for Active; 'I' for Inactive)
REMARK    1  A    between atoms: N_6  and  C_1 
REMARK       I    between atoms: C_2  and  N_3 
REMARK    2  A    between atoms: C_7  and  C_2 
REMARK    3  A    between atoms: N_3  and  C_4 
REMARK    4  A    between atoms: C_4  and  N_6 
REMARK    5  A    between atoms: C_10  and  C_8 
REMARK    6  A    between atoms: C_12  and  C_10 
REMARK    7  A    between atoms: O_18  and  C_12 
REMARK    8  A    between atoms: C_21  and  O_18 
ROOT
ATOM      1  C   UNL d   1     -46.492  12.892  23.120  0.00  0.00     0.277 C 
ATOM      2  S   UNL d   1     -46.625  12.248  23.620  0.00  0.00    -0.023 SA
ENDROOT
BRANCH   1   3
ATOM      3  N   UNL d   1     -45.782  12.935  22.699  0.00  0.00    -0.168 NA
ATOM      4  C   UNL d   1     -45.218  12.339  22.772  0.00  0.00     0.282 C 
ATOM      5  O   UNL d   1     -45.355  11.695  23.263  0.00  0.00    -0.265 OA
BRANCH   4   6
ATOM      6  C   UNL d   1     -44.507  12.389  22.346  0.00  0.00     0.064 A 
ATOM      7  C   UNL d   1     -43.914  11.837  22.477  0.00  0.00     0.039 A 
ATOM      8 BR   UNL d   1     -44.017  11.236  23.025  0.00  0.00    -0.049 Br
ATOM      9  C   UNL d   1     -43.209  11.893  22.050  0.00  0.00     0.007 A 
ATOM     10  C   UNL d   1     -43.099  12.499  21.493  0.00  0.00     0.001 A 
ATOM     11  C   UNL d   1     -43.708  13.050  21.372  0.00  0.00     0.000 A 
ATOM     12  C   UNL d   1     -44.411  12.995  21.797  0.00  0.00     0.005 A 
ENDBRANCH   4   6
ENDBRANCH   1   3
BRANCH   1  13
ATOM     13  N   UNL d   1     -47.059  13.480  23.043  0.00  0.00    -0.347 NA
BRANCH  13  14
ATOM     14  C   UNL d   1     -47.629  14.074  22.967  0.00  0.00     0.248 A 
ATOM     15  N   UNL d   1     -48.425  14.020  23.198  0.00  0.00    -0.210 NA
ATOM     16  C   UNL d   1     -48.786  14.740  23.018  0.00  0.00     0.096 A 
ATOM     17  C   UNL d   1     -48.217  15.238  22.677  0.00  0.00     0.059 A 
ATOM     18  S   UNL d   1     -47.510  14.822  22.649  0.00  0.00    -0.033 SA
BRANCH  16  19
ATOM     19  C   UNL d   1     -49.573  14.932  23.153  0.00  0.00     0.088 C 
BRANCH  19  20
ATOM     20  C   UNL d   1     -50.146  14.797  22.574  0.00  0.00     0.302 C 
ATOM     21  O   UNL d   1     -50.434  15.433  22.135  0.00  0.00    -0.259 OA
BRANCH  20  22
ATOM     22  O   UNL d   1     -50.429  14.039  22.436  0.00  0.00    -0.271 OA
BRANCH  22  23
ATOM     23  C   UNL d   1     -51.064  13.927  21.918  0.00  0.00     0.126 C 
ATOM     24  C   UNL d   1     -51.064  13.278  21.413  0.00  0.00     0.029 C 
ENDBRANCH  22  23
ENDBRANCH  20  22
ENDBRANCH  19  20
ENDBRANCH  16  19
ENDBRANCH  13  14
ENDBRANCH   1  13
TORSDOF 8
ENDMDL
MODEL 8
REMARK VINA RESULT:      -2.6      3.952      7.432
REMARK  8 active torsions:
REMARK  status: ('A' for Active; 'I' for Inactive)
REMARK    1  A    between atoms: N_6  and  C_1 
REMARK       I    between atoms: C_2  and  N_3 
REMARK    2  A    between atoms: C_7  and  C_2 
REMARK    3  A    between atoms: N_3  and  C_4 
REMARK    4  A    between atoms: C_4  and  N_6 
REMARK    5  A    between atoms: C_10  and  C_8 
REMARK    6  A    between atoms: C_12  and  C_10 
REMARK    7  A    between atoms: O_18  and  C_12 
REMARK    8  A    between atoms: C_21  and  O_18 
ROOT
ATOM      1  C   UNL d   1     -41.755  13.735  20.822  0.00  0.00     0.277 C 
ATOM      2  S   UNL d   1     -41.712  13.935  20.021  0.00  0.00    -0.023 SA
ENDROOT
BRANCH   1   3
ATOM      3  N   UNL d   1     -41.109  13.891  21.312  0.00  0.00    -0.168 NA
ATOM      4  C   UNL d   1     -40.492  14.369  21.048  0.00  0.00     0.282 C 
ATOM      5  O   UNL d   1     -40.512  14.695  20.294  0.00  0.00    -0.265 OA
BRANCH   4   6
ATOM      6  C   UNL d   1     -39.845  14.521  21.546  0.00  0.00     0.064 A 
ATOM      7  C   UNL d   1     -39.634  15.297  21.713  0.00  0.00     0.039 A 
ATOM      8 BR   UNL d   1     -40.056  15.922  21.394  0.00  0.00    -0.049 Br
ATOM      9  C   UNL d   1     -38.990  15.441  22.210  0.00  0.00     0.007 A 
ATOM     10  C   UNL d   1     -38.559  14.812  22.537  0.00  0.00     0.001 A 
ATOM     11  C   UNL d   1     -38.785  14.033  22.358  0.00  0.00     0.000 A 
ATOM     12  C   UNL d   1     -39.426  13.888  21.864  0.00  0.00     0.005 A 
ENDBRANCH   4   6
ENDBRANCH   1   3
BRANCH   1  13
ATOM     13  N   UNL d   1     -42.433  13.385  21.124  0.00  0.00    -0.347 NA
BRANCH  13  14
ATOM     14  C   UNL d   1     -43.117  13.034  21.427  0.00  0.00     0.248 A 
ATOM     15  N   UNL d   1     -43.892  13.320  21.344  0.00  0.00    -0.210 NA
ATOM     16  C   UNL d   1     -44.395  12.795  21.734  0.00  0.00     0.096 A 
ATOM     17  C   UNL d   1     -43.935  12.185  22.057  0.00  0.00     0.059 A 
ATOM     18  S   UNL d   1     -43.151  12.339  21.865  0.00  0.00    -0.033 SA
BRANCH  16  19
ATOM     19  C   UNL d   1     -45.212  12.862  21.793  0.00  0.00     0.088 C 
BRANCH  19  20
ATOM     20  C   UNL d   1     -45.564  13.159  22.478  0.00  0.00     0.302 C 
ATOM     21  O   UNL d   1     -45.490  12.740  23.184  0.00  0.00    -0.259 OA
BRANCH  20  22
ATOM     22  O   UNL d   1     -45.983  13.864  22.459  0.00  0.00    -0.271 OA
BRANCH  22  23
ATOM     23  C   UNL d   1     -46.639  13.964  22.954  0.00  0.00     0.126 C 
ATOM     24  C   UNL d   1     -47.092  14.648  22.891  0.00  0.00     0.029 C 
ENDBRANCH  22  23
ENDBRANCH  20  22
ENDBRANCH  19  20
ENDBRANCH  16  19
ENDBRANCH  13  14
ENDBRANCH   1  13
TORSDOF 8
ENDMDL
