MODEL 1
REMARK VINA RESULT:      48.4      0.000      0.000
REMARK  6 active torsions:
REMARK  status: ('A' for Active; 'I' for Inactive)
REMARK    1  A    between atoms: N_7  and  C_1 
REMARK    2  A    between atoms: C_6  and  C_4 
REMARK    3  A    between atoms: C_22  and  C_12 
REMARK    4  A    between atoms: C_23  and  N_13 
REMARK    5  A    between atoms: O_17  and  C_22 
REMARK    6  A    between atoms: C_18  and  O_17 
ROOT
ATOM      1  C   UNL d   1      44.347 -16.204  38.063  0.00  0.00     0.198 A 
ATOM      2  C   UNL d   1      45.152 -16.113  38.055  0.00  0.00     0.191 A 
ATOM      3  O   UNL d   1      44.175 -16.723  38.665  0.00  0.00    -0.268 OA
ATOM      4  C   UNL d   1      44.874 -16.941  39.014  0.00  0.00     0.208 A 
ATOM      5  N   UNL d   1      45.441 -16.576  38.647  0.00  0.00    -0.206 NA
ATOM      6  C   UNL d   1      45.627 -15.636  37.542  0.00  0.00     0.124 C 
ATOM      7  N   UNL d   1      46.088 -15.159  37.026  0.00  0.00    -0.190 NA
ENDROOT
BRANCH   1   8
ATOM      8  N   UNL d   1      43.704 -15.911  37.631  0.00  0.00    -0.280 N 
ATOM      9  C   UNL d   1      43.690 -15.997  36.831  0.00  0.00     0.101 A 
ATOM     10  C   UNL d   1      43.047 -15.704  36.399  0.00  0.00     0.100 A 
ATOM     11  N   UNL d   1      42.450 -15.343  36.766  0.00  0.00    -0.300 N 
ATOM     12  C   UNL d   1      42.444 -15.244  37.590  0.00  0.00     0.100 A 
ATOM     13  C   UNL d   1      43.077 -15.530  38.036  0.00  0.00     0.101 A 
BRANCH  11  14
ATOM     14  C   UNL d   1      41.807 -15.050  36.333  0.00  0.00     0.080 C 
ATOM     15  C   UNL d   1      41.084 -14.800  36.708  0.00  0.00     0.021 C 
ENDBRANCH  11  14
ENDBRANCH   1   8
BRANCH   4  16
ATOM     16  C   UNL d   1      45.417 -17.285  39.495  0.00  0.00     0.141 A 
ATOM     17  O   UNL d   1      46.179 -17.446  39.840  0.00  0.00    -0.301 OA
ATOM     18  C   UNL d   1      46.047 -18.029  40.407  0.00  0.00     0.125 A 
ATOM     19  C   UNL d   1      45.259 -18.207  40.404  0.00  0.00     0.029 A 
ATOM     20  C   UNL d   1      44.884 -17.752  39.849  0.00  0.00     0.030 A 
BRANCH  18  21
ATOM     21  C   UNL d   1      46.632 -18.345  40.870  0.00  0.00     0.147 C 
BRANCH  21  22
ATOM     22  O   UNL d   1      46.497 -18.982  41.344  0.00  0.00    -0.303 OA
BRANCH  22  23
ATOM     23  C   UNL d   1      46.515 -18.923  42.142  0.00  0.00     0.100 A 
ATOM     24  C   UNL d   1      46.423 -19.595  42.619  0.00  0.00     0.023 A 
ATOM     25  C   UNL d   1      46.311 -20.330  42.252  0.00  0.00     0.002 C 
ATOM     26  C   UNL d   1      46.441 -19.536  43.409  0.00  0.00     0.002 A 
ATOM     27  C   UNL d   1      46.553 -18.801  43.775  0.00  0.00     0.000 A 
ATOM     28  C   UNL d   1      46.647 -18.120  43.298  0.00  0.00     0.002 A 
ATOM     29  C   UNL d   1      46.628 -18.179  42.509  0.00  0.00     0.025 A 
ENDBRANCH  22  23
ENDBRANCH  21  22
ENDBRANCH  18  21
ENDBRANCH   4  16
TORSDOF 6
ENDMDL
