MODEL 1
REMARK VINA RESULT:      16.4      0.000      0.000
REMARK  2 active torsions:
REMARK  status: ('A' for Active; 'I' for Inactive)
REMARK    1  A    between atoms: C_4  and  C_1 
REMARK       I    between atoms: N_7  and  C_4 
REMARK    2  A    between atoms: C_17  and  N_8 
ROOT
ATOM      1  C   UNL d   1      46.303 -18.154  44.010  0.00  0.00     0.248 C 
ATOM      2  N   UNL d   1      46.109 -17.319  44.090  0.00  0.00    -0.272 N 
ATOM      3  N   UNL d   1      45.721 -15.655  44.252  0.00  0.00    -0.301 N 
ATOM      4  O   UNL d   1      46.381 -18.619  44.672  0.00  0.00    -0.271 OA
ATOM      5  C   UNL d   1      45.997 -16.975  44.872  0.00  0.00     0.102 A 
ATOM      6  C   UNL d   1      46.030 -16.846  43.381  0.00  0.00     0.102 A 
ATOM      7  C   UNL d   1      45.806 -16.155  44.954  0.00  0.00     0.100 A 
ATOM      8  C   UNL d   1      45.833 -15.999  43.470  0.00  0.00     0.100 A 
ENDROOT
BRANCH   1   9
ATOM      9  C   UNL d   1      46.409 -18.481  43.276  0.00  0.00     0.112 A 
ATOM     10  C   UNL d   1      46.505 -19.583  42.235  0.00  0.00     0.025 A 
ATOM     11  C   UNL d   1      46.514 -18.817  42.542  0.00  0.00     0.074 A 
ATOM     12  C   UNL d   1      46.638 -19.705  41.444  0.00  0.00     0.002 C 
ATOM     13  C   UNL d   1      46.387 -20.322  42.543  0.00  0.00     0.002 C 
ATOM     14  C   UNL d   1      46.647 -18.951  41.747  0.00  0.00     0.012 C 
ATOM     15  C   UNL d   1      46.632 -18.074  42.233  0.00  0.00    -0.023 A 
ATOM     16  C   UNL d   1      46.358 -19.296  43.177  0.00  0.00     0.172 A 
ATOM     17  C   UNL d   1      46.527 -17.743  42.964  0.00  0.00    -0.018 A 
ATOM     18  C   UNL d   1      46.253 -18.963  43.912  0.00  0.00     0.024 A 
ATOM     19  O   UNL d   1      46.270 -20.093  43.290  0.00  0.00    -0.291 OA
ENDBRANCH   1   9
BRANCH   3  20
ATOM     20  C   UNL d   1      45.526 -14.817  44.331  0.00  0.00     0.064 A 
ATOM     21  C   UNL d   1      44.770 -14.584  44.658  0.00  0.00     0.018 A 
ATOM     22  C   UNL d   1      44.575 -13.751  44.737  0.00  0.00     0.002 A 
ATOM     23  C   UNL d   1      45.142 -13.147  44.485  0.00  0.00     0.000 A 
ATOM     24  C   UNL d   1      45.904 -13.387  44.155  0.00  0.00     0.002 A 
ATOM     25  C   UNL d   1      46.096 -14.221  44.078  0.00  0.00     0.018 A 
ENDBRANCH   3  20
TORSDOF 2
ENDMDL
MODEL 2
REMARK VINA RESULT:      16.8      1.814      5.079
REMARK  2 active torsions:
REMARK  status: ('A' for Active; 'I' for Inactive)
REMARK    1  A    between atoms: C_4  and  C_1 
REMARK       I    between atoms: N_7  and  C_4 
REMARK    2  A    between atoms: C_17  and  N_8 
ROOT
ATOM      1  C   UNL d   1      44.772 -14.614  44.648  0.00  0.00     0.248 C 
ATOM      2  N   UNL d   1      45.084 -15.407  44.527  0.00  0.00    -0.272 N 
ATOM      3  N   UNL d   1      45.704 -16.988  44.285  0.00  0.00    -0.301 N 
ATOM      4  O   UNL d   1      44.024 -14.513  44.952  0.00  0.00    -0.271 OA
ATOM      5  C   UNL d   1      44.605 -16.095  44.727  0.00  0.00     0.102 A 
ATOM      6  C   UNL d   1      45.872 -15.492  44.206  0.00  0.00     0.102 A 
ATOM      7  C   UNL d   1      44.909 -16.876  44.608  0.00  0.00     0.100 A 
ATOM      8  C   UNL d   1      46.183 -16.300  44.085  0.00  0.00     0.100 A 
ENDROOT
BRANCH   1   9
ATOM      9  C   UNL d   1      45.219 -13.965  44.462  0.00  0.00     0.112 A 
ATOM     10  C   UNL d   1      45.564 -12.652  43.780  0.00  0.00     0.025 A 
ATOM     11  C   UNL d   1      45.662 -13.310  44.268  0.00  0.00     0.074 A 
ATOM     12  C   UNL d   1      46.151 -12.093  43.729  0.00  0.00     0.002 C 
ATOM     13  C   UNL d   1      44.980 -12.386  43.288  0.00  0.00     0.002 C 
ATOM     14  C   UNL d   1      46.246 -12.742  44.210  0.00  0.00     0.012 C 
ATOM     15  C   UNL d   1      46.249 -13.577  44.764  0.00  0.00    -0.023 A 
ATOM     16  C   UNL d   1      44.930 -13.403  43.934  0.00  0.00     0.172 A 
ATOM     17  C   UNL d   1      45.806 -14.228  44.954  0.00  0.00    -0.018 A 
ATOM     18  C   UNL d   1      44.485 -14.057  44.125  0.00  0.00     0.024 A 
ATOM     19  O   UNL d   1      44.478 -12.983  43.410  0.00  0.00    -0.291 OA
ENDBRANCH   1   9
BRANCH   3  20
ATOM     20  C   UNL d   1      46.020 -17.784  44.163  0.00  0.00     0.064 A 
ATOM     21  C   UNL d   1      46.285 -18.022  43.384  0.00  0.00     0.018 A 
ATOM     22  C   UNL d   1      46.599 -18.811  43.260  0.00  0.00     0.002 A 
ATOM     23  C   UNL d   1      46.647 -19.368  43.922  0.00  0.00     0.000 A 
ATOM     24  C   UNL d   1      46.378 -19.123  44.707  0.00  0.00     0.002 A 
ATOM     25  C   UNL d   1      46.065 -18.332  44.826  0.00  0.00     0.018 A 
ENDBRANCH   3  20
TORSDOF 2
ENDMDL
