MODEL 1
REMARK VINA RESULT:      -7.0      0.000      0.000
REMARK  5 active torsions:
REMARK  status: ('A' for Active; 'I' for Inactive)
REMARK    1  A    between atoms: N_5  and  S_1 
REMARK    2  A    between atoms: C_7  and  S_1 
REMARK       I    between atoms: C_4  and  N_2 
REMARK    3  A    between atoms: C_3  and  N_11 
REMARK    4  A    between atoms: C_6  and  C_4 
REMARK    5  A    between atoms: N_11  and  C_19 
ROOT
ATOM      1  C   UNL d   1     -46.583  12.337  23.022  0.00  0.00     0.104 A 
ATOM      2  C   UNL d   1     -46.864  12.514  22.253  0.00  0.00     0.014 A 
ATOM      3  C   UNL d   1     -46.988  12.656  23.694  0.00  0.00     0.014 A 
ATOM      4  C   UNL d   1     -47.927  13.311  22.831  0.00  0.00     0.084 A 
ATOM      5  C   UNL d   1     -47.540  13.005  22.156  0.00  0.00     0.020 A 
ATOM      6  C   UNL d   1     -47.650  13.137  23.600  0.00  0.00     0.020 A 
ENDROOT
BRANCH   4   7
ATOM      7  N   UNL d   1     -48.599  13.798  22.735  0.00  0.00    -0.217 NA
BRANCH   7   8
ATOM      8  C   UNL d   1     -48.506  14.563  22.635  0.00  0.00     0.224 C 
ATOM      9  N   UNL d   1     -49.590  15.324  22.498  0.00  0.00    -0.178 NA
ATOM     10  C   UNL d   1     -50.306  15.012  22.516  0.00  0.00     0.287 C 
ATOM     11  O   UNL d   1     -50.948  15.465  22.435  0.00  0.00    -0.265 OA
ATOM     12  S   UNL d   1     -47.785  14.892  22.614  0.00  0.00    -0.037 SA
BRANCH  10  13
ATOM     13  C   UNL d   1     -50.385  14.227  22.619  0.00  0.00     0.087 A 
ATOM     14  S   UNL d   1     -50.444  13.848  23.300  0.00  0.00    -0.082 SA
ATOM     15  C   UNL d   1     -50.514  13.074  23.139  0.00  0.00     0.036 A 
ATOM     16  C   UNL d   1     -50.498  12.987  22.380  0.00  0.00     0.008 A 
ATOM     17  C   UNL d   1     -50.419  13.691  22.046  0.00  0.00     0.012 A 
ENDBRANCH  10  13
ENDBRANCH   7   8
ENDBRANCH   4   7
BRANCH   1  18
ATOM     18  S   UNL d   1     -45.906  11.846  23.119  0.00  0.00     0.271 S 
ATOM     19  O   UNL d   1     -45.435  12.431  22.786  0.00  0.00    -0.200 OA
ATOM     20  O   UNL d   1     -46.389  11.247  23.460  0.00  0.00    -0.200 OA
BRANCH  18  21
ATOM     21  N   UNL d   1     -45.246  11.367  23.213  0.00  0.00    -0.229 N 
ATOM     22  C   UNL d   1     -45.324  10.603  23.603  0.00  0.00     0.092 A 
ATOM     23  C   UNL d   1     -44.661  10.122  23.698  0.00  0.00     0.020 A 
ATOM     24  C   UNL d   1     -43.904  10.395  23.404  0.00  0.00     0.003 A 
ATOM     25  C   UNL d   1     -43.840  11.124  23.034  0.00  0.00     0.020 A 
ATOM     26  C   UNL d   1     -44.512  11.611  22.938  0.00  0.00     0.092 A 
ENDBRANCH  18  21
ENDBRANCH   1  18
TORSDOF 5
ENDMDL
MODEL 2
REMARK VINA RESULT:      -5.7      1.476      1.952
REMARK  5 active torsions:
REMARK  status: ('A' for Active; 'I' for Inactive)
REMARK    1  A    between atoms: N_5  and  S_1 
REMARK    2  A    between atoms: C_7  and  S_1 
REMARK       I    between atoms: C_4  and  N_2 
REMARK    3  A    between atoms: C_3  and  N_11 
REMARK    4  A    between atoms: C_6  and  C_4 
REMARK    5  A    between atoms: N_11  and  C_19 
ROOT
ATOM      1  C   UNL d   1     -45.927  13.079  22.363  0.00  0.00     0.104 A 
ATOM      2  C   UNL d   1     -46.548  12.768  21.894  0.00  0.00     0.014 A 
ATOM      3  C   UNL d   1     -46.116  13.544  23.045  0.00  0.00     0.014 A 
ATOM      4  C   UNL d   1     -47.517  13.382  22.781  0.00  0.00     0.084 A 
ATOM      5  C   UNL d   1     -47.348  12.920  22.104  0.00  0.00     0.020 A 
ATOM      6  C   UNL d   1     -46.900  13.694  23.251  0.00  0.00     0.020 A 
ENDROOT
BRANCH   4   7
ATOM      7  N   UNL d   1     -48.311  13.533  22.989  0.00  0.00    -0.217 NA
BRANCH   7   8
ATOM      8  C   UNL d   1     -48.715  12.993  23.375  0.00  0.00     0.224 C 
ATOM      9  N   UNL d   1     -49.980  13.252  23.698  0.00  0.00    -0.178 NA
ATOM     10  C   UNL d   1     -50.313  13.932  23.506  0.00  0.00     0.287 C 
ATOM     11  O   UNL d   1     -51.064  14.085  23.698  0.00  0.00    -0.265 OA
ATOM     12  S   UNL d   1     -48.389  12.298  23.576  0.00  0.00    -0.037 SA
BRANCH  10  13
ATOM     13  C   UNL d   1     -49.887  14.476  23.110  0.00  0.00     0.087 A 
ATOM     14  S   UNL d   1     -49.839  14.560  22.335  0.00  0.00    -0.082 SA
ATOM     15  C   UNL d   1     -49.353  15.171  22.189  0.00  0.00     0.036 A 
ATOM     16  C   UNL d   1     -49.114  15.448  22.859  0.00  0.00     0.008 A 
ATOM     17  C   UNL d   1     -49.435  15.029  23.438  0.00  0.00     0.012 A 
ENDBRANCH  10  13
ENDBRANCH   7   8
ENDBRANCH   4   7
BRANCH   1  18
ATOM     18  S   UNL d   1     -45.127  12.927  22.152  0.00  0.00     0.271 S 
ATOM     19  O   UNL d   1     -45.101  13.635  21.738  0.00  0.00    -0.200 OA
ATOM     20  O   UNL d   1     -45.153  12.200  22.577  0.00  0.00    -0.200 OA
BRANCH  18  21
ATOM     21  N   UNL d   1     -44.346  12.778  21.947  0.00  0.00    -0.229 N 
ATOM     22  C   UNL d   1     -43.936  12.102  22.289  0.00  0.00     0.092 A 
ATOM     23  C   UNL d   1     -43.151  11.953  22.083  0.00  0.00     0.020 A 
ATOM     24  C   UNL d   1     -42.759  12.476  21.530  0.00  0.00     0.003 A 
ATOM     25  C   UNL d   1     -43.159  13.117  21.210  0.00  0.00     0.020 A 
ATOM     26  C   UNL d   1     -43.954  13.269  21.419  0.00  0.00     0.092 A 
ENDBRANCH  18  21
ENDBRANCH   1  18
TORSDOF 5
ENDMDL
MODEL 3
REMARK VINA RESULT:      -4.9      8.510      9.265
REMARK  5 active torsions:
REMARK  status: ('A' for Active; 'I' for Inactive)
REMARK    1  A    between atoms: N_5  and  S_1 
REMARK    2  A    between atoms: C_7  and  S_1 
REMARK       I    between atoms: C_4  and  N_2 
REMARK    3  A    between atoms: C_3  and  N_11 
REMARK    4  A    between atoms: C_6  and  C_4 
REMARK    5  A    between atoms: N_11  and  C_19 
ROOT
ATOM      1  C   UNL d   1     -39.257  14.675  20.782  0.00  0.00     0.104 A 
ATOM      2  C   UNL d   1     -38.924  15.325  20.369  0.00  0.00     0.014 A 
ATOM      3  C   UNL d   1     -39.922  14.270  20.450  0.00  0.00     0.014 A 
ATOM      4  C   UNL d   1     -39.909  15.153  19.319  0.00  0.00     0.084 A 
ATOM      5  C   UNL d   1     -39.252  15.565  19.633  0.00  0.00     0.020 A 
ATOM      6  C   UNL d   1     -40.243  14.505  19.728  0.00  0.00     0.020 A 
ENDROOT
BRANCH   4   7
ATOM      7  N   UNL d   1     -40.234  15.392  18.588  0.00  0.00    -0.217 NA
BRANCH   7   8
ATOM      8  C   UNL d   1     -40.952  15.687  18.567  0.00  0.00     0.224 C 
ATOM      9  N   UNL d   1     -41.511  15.922  17.381  0.00  0.00    -0.178 NA
ATOM     10  C   UNL d   1     -41.127  15.768  16.718  0.00  0.00     0.287 C 
ATOM     11  O   UNL d   1     -41.460  15.907  16.015  0.00  0.00    -0.265 OA
ATOM     12  S   UNL d   1     -41.352  15.848  19.233  0.00  0.00    -0.037 SA
BRANCH  10  13
ATOM     13  C   UNL d   1     -40.392  15.465  16.756  0.00  0.00     0.087 A 
ATOM     14  S   UNL d   1     -39.724  15.866  16.825  0.00  0.00    -0.082 SA
ATOM     15  C   UNL d   1     -39.130  15.341  16.840  0.00  0.00     0.036 A 
ATOM     16  C   UNL d   1     -39.430  14.641  16.782  0.00  0.00     0.008 A 
ATOM     17  C   UNL d   1     -40.209  14.702  16.729  0.00  0.00     0.012 A 
ENDBRANCH  10  13
ENDBRANCH   7   8
ENDBRANCH   4   7
BRANCH   1  18
ATOM     18  S   UNL d   1     -38.929  14.435  21.519  0.00  0.00     0.271 S 
ATOM     19  O   UNL d   1     -38.464  13.881  21.131  0.00  0.00    -0.200 OA
ATOM     20  O   UNL d   1     -39.406  15.003  21.917  0.00  0.00    -0.200 OA
BRANCH  18  21
ATOM     21  N   UNL d   1     -38.609  14.200  22.238  0.00  0.00    -0.229 N 
ATOM     22  C   UNL d   1     -38.524  13.361  22.414  0.00  0.00     0.092 A 
ATOM     23  C   UNL d   1     -38.203  13.125  23.136  0.00  0.00     0.020 A 
ATOM     24  C   UNL d   1     -37.959  13.723  23.698  0.00  0.00     0.003 A 
ATOM     25  C   UNL d   1     -38.044  14.519  23.521  0.00  0.00     0.020 A 
ATOM     26  C   UNL d   1     -38.370  14.758  22.789  0.00  0.00     0.092 A 
ENDBRANCH  18  21
ENDBRANCH   1  18
TORSDOF 5
ENDMDL
MODEL 4
REMARK VINA RESULT:      -4.6      9.119     10.498
REMARK  5 active torsions:
REMARK  status: ('A' for Active; 'I' for Inactive)
REMARK    1  A    between atoms: N_5  and  S_1 
REMARK    2  A    between atoms: C_7  and  S_1 
REMARK       I    between atoms: C_4  and  N_2 
REMARK    3  A    between atoms: C_3  and  N_11 
REMARK    4  A    between atoms: C_6  and  C_4 
REMARK    5  A    between atoms: N_11  and  C_19 
ROOT
ATOM      1  C   UNL d   1     -38.699  14.378  20.380  0.00  0.00     0.104 A 
ATOM      2  C   UNL d   1     -37.983  14.559  19.984  0.00  0.00     0.014 A 
ATOM      3  C   UNL d   1     -39.372  14.134  19.929  0.00  0.00     0.014 A 
ATOM      4  C   UNL d   1     -38.615  14.254  18.716  0.00  0.00     0.084 A 
ATOM      5  C   UNL d   1     -37.940  14.497  19.146  0.00  0.00     0.020 A 
ATOM      6  C   UNL d   1     -39.331  14.073  19.108  0.00  0.00     0.020 A 
ENDROOT
BRANCH   4   7
ATOM      7  N   UNL d   1     -38.573  14.192  17.884  0.00  0.00    -0.217 NA
BRANCH   7   8
ATOM      8  C   UNL d   1     -38.399  13.508  17.559  0.00  0.00     0.224 C 
ATOM      9  N   UNL d   1     -38.290  13.441  16.235  0.00  0.00    -0.178 NA
ATOM     10  C   UNL d   1     -38.397  14.074  15.789  0.00  0.00     0.287 C 
ATOM     11  O   UNL d   1     -38.332  14.032  15.003  0.00  0.00    -0.265 OA
ATOM     12  S   UNL d   1     -38.288  12.858  18.001  0.00  0.00    -0.037 SA
BRANCH  10  13
ATOM     13  C   UNL d   1     -38.575  14.768  16.136  0.00  0.00     0.087 A 
ATOM     14  S   UNL d   1     -38.069  15.303  16.396  0.00  0.00    -0.082 SA
ATOM     15  C   UNL d   1     -38.490  15.904  16.699  0.00  0.00     0.036 A 
ATOM     16  C   UNL d   1     -39.231  15.736  16.624  0.00  0.00     0.008 A 
ATOM     17  C   UNL d   1     -39.299  15.036  16.277  0.00  0.00     0.012 A 
ENDBRANCH  10  13
ENDBRANCH   7   8
ENDBRANCH   4   7
BRANCH   1  18
ATOM     18  S   UNL d   1     -38.741  14.441  21.219  0.00  0.00     0.271 S 
ATOM     19  O   UNL d   1     -39.339  14.999  21.147  0.00  0.00    -0.200 OA
ATOM     20  O   UNL d   1     -38.127  13.869  21.292  0.00  0.00    -0.200 OA
BRANCH  18  21
ATOM     21  N   UNL d   1     -38.782  14.502  22.036  0.00  0.00    -0.229 N 
ATOM     22  C   UNL d   1     -38.620  15.257  22.417  0.00  0.00     0.092 A 
ATOM     23  C   UNL d   1     -38.661  15.319  23.239  0.00  0.00     0.020 A 
ATOM     24  C   UNL d   1     -38.865  14.626  23.698  0.00  0.00     0.003 A 
ATOM     25  C   UNL d   1     -39.018  13.911  23.326  0.00  0.00     0.020 A 
ATOM     26  C   UNL d   1     -38.976  13.849  22.493  0.00  0.00     0.092 A 
ENDBRANCH  18  21
ENDBRANCH   1  18
TORSDOF 5
ENDMDL
MODEL 5
REMARK VINA RESULT:      -4.3      8.715     10.524
REMARK  5 active torsions:
REMARK  status: ('A' for Active; 'I' for Inactive)
REMARK    1  A    between atoms: N_5  and  S_1 
REMARK    2  A    between atoms: C_7  and  S_1 
REMARK       I    between atoms: C_4  and  N_2 
REMARK    3  A    between atoms: C_3  and  N_11 
REMARK    4  A    between atoms: C_6  and  C_4 
REMARK    5  A    between atoms: N_11  and  C_19 
ROOT
ATOM      1  C   UNL d   1     -38.675  14.442  17.572  0.00  0.00     0.104 A 
ATOM      2  C   UNL d   1     -38.202  14.965  18.024  0.00  0.00     0.014 A 
ATOM      3  C   UNL d   1     -39.335  14.059  17.938  0.00  0.00     0.014 A 
ATOM      4  C   UNL d   1     -39.043  14.717  19.178  0.00  0.00     0.084 A 
ATOM      5  C   UNL d   1     -38.387  15.104  18.833  0.00  0.00     0.020 A 
ATOM      6  C   UNL d   1     -39.517  14.195  18.730  0.00  0.00     0.020 A 
ENDROOT
BRANCH   4   7
ATOM      7  N   UNL d   1     -39.227  14.855  19.981  0.00  0.00    -0.217 NA
BRANCH   7   8
ATOM      8  C   UNL d   1     -39.687  15.452  20.171  0.00  0.00     0.224 C 
ATOM      9  N   UNL d   1     -39.934  15.681  21.459  0.00  0.00    -0.178 NA
ATOM     10  C   UNL d   1     -39.626  15.227  22.015  0.00  0.00     0.287 C 
ATOM     11  O   UNL d   1     -39.774  15.364  22.779  0.00  0.00    -0.265 OA
ATOM     12  S   UNL d   1     -40.006  15.921  19.616  0.00  0.00    -0.037 SA
BRANCH  10  13
ATOM     13  C   UNL d   1     -39.157  14.619  21.805  0.00  0.00     0.087 A 
ATOM     14  S   UNL d   1     -38.376  14.619  21.775  0.00  0.00    -0.082 SA
ATOM     15  C   UNL d   1     -38.145  13.898  21.538  0.00  0.00     0.036 A 
ATOM     16  C   UNL d   1     -38.769  13.473  21.428  0.00  0.00     0.008 A 
ATOM     17  C   UNL d   1     -39.403  13.905  21.589  0.00  0.00     0.012 A 
ENDBRANCH  10  13
ENDBRANCH   7   8
ENDBRANCH   4   7
BRANCH   1  18
ATOM     18  S   UNL d   1     -38.489  14.302  16.763  0.00  0.00     0.271 S 
ATOM     19  O   UNL d   1     -37.940  13.734  16.986  0.00  0.00    -0.200 OA
ATOM     20  O   UNL d   1     -39.051  14.885  16.533  0.00  0.00    -0.200 OA
BRANCH  18  21
ATOM     21  N   UNL d   1     -38.308  14.167  15.973  0.00  0.00    -0.229 N 
ATOM     22  C   UNL d   1     -38.132  14.832  15.455  0.00  0.00     0.092 A 
ATOM     23  C   UNL d   1     -37.950  14.696  14.662  0.00  0.00     0.020 A 
ATOM     24  C   UNL d   1     -37.940  13.891  14.370  0.00  0.00     0.003 A 
ATOM     25  C   UNL d   1     -38.108  13.265  14.872  0.00  0.00     0.020 A 
ATOM     26  C   UNL d   1     -38.293  13.403  15.675  0.00  0.00     0.092 A 
ENDBRANCH  18  21
ENDBRANCH   1  18
TORSDOF 5
ENDMDL
