MODEL 1
REMARK VINA RESULT:      -2.1      0.000      0.000
REMARK  3 active torsions:
REMARK  status: ('A' for Active; 'I' for Inactive)
REMARK    1  A    between atoms: N_6  and  C_1 
REMARK    2  A    between atoms: C_7  and  N_2 
REMARK    3  A    between atoms: C_8  and  N_6 
ROOT
ATOM      1  C   UNL d   1     -41.499-122.517 -52.556  0.00  0.00     0.735 A 
ATOM      2  N   UNL d   1     -41.565-122.676 -51.747  0.00  0.00    -0.139 N 
ATOM      3  N   UNL d   1     -41.325-121.714 -52.655  0.00  0.00    -0.059 NA
ATOM      4  C   UNL d   1     -41.433-121.969 -51.340  0.00  0.00     0.100 A 
ATOM      5  C   UNL d   1     -41.284-121.377 -51.907  0.00  0.00     0.116 A 
ATOM      6  C   UNL d   1     -41.426-121.784 -50.538  0.00  0.00     0.020 A 
ATOM      7  C   UNL d   1     -41.132-120.605 -51.654  0.00  0.00     0.021 A 
ATOM      8  C   UNL d   1     -41.274-121.015 -50.294  0.00  0.00     0.002 A 
ATOM      9  C   UNL d   1     -41.125-120.419 -50.852  0.00  0.00     0.002 A 
ENDROOT
BRANCH   1  10
ATOM     10  N   UNL d   1     -41.590-123.066 -53.166  0.00  0.00    -0.061 NA
BRANCH  10  11
ATOM     11  C   UNL d   1     -41.733-122.814 -53.934  0.00  0.00     0.100 A 
ATOM     12  C   UNL d   1     -41.181-122.979 -54.519  0.00  0.00     0.020 A 
ATOM     13  C   UNL d   1     -41.314-122.731 -55.294  0.00  0.00     0.002 A 
ATOM     14  C   UNL d   1     -42.009-122.313 -55.483  0.00  0.00     0.000 A 
ATOM     15  C   UNL d   1     -42.559-122.151 -54.889  0.00  0.00     0.002 A 
ATOM     16  C   UNL d   1     -42.421-122.400 -54.122  0.00  0.00     0.020 A 
ENDBRANCH  10  11
ENDBRANCH   1  10
BRANCH   2  17
ATOM     17  C   UNL d   1     -41.733-123.406 -51.408  0.00  0.00     0.082 C 
ATOM     18  C   UNL d   1     -42.490-123.734 -51.487  0.00  0.00     0.020 C 
ATOM     19  C   UNL d   1     -41.155-123.817 -50.990  0.00  0.00     0.020 C 
ENDBRANCH   2  17
TORSDOF 3
ENDMDL
MODEL 2
REMARK VINA RESULT:      -1.8      2.258      3.280
REMARK  3 active torsions:
REMARK  status: ('A' for Active; 'I' for Inactive)
REMARK    1  A    between atoms: N_6  and  C_1 
REMARK    2  A    between atoms: C_7  and  N_2 
REMARK    3  A    between atoms: C_8  and  N_6 
ROOT
ATOM      1  C   UNL d   1     -42.443-122.831 -49.960  0.00  0.00     0.735 A 
ATOM      2  N   UNL d   1     -42.962-123.089 -49.369  0.00  0.00    -0.139 N 
ATOM      3  N   UNL d   1     -41.667-122.903 -49.680  0.00  0.00    -0.059 NA
ATOM      4  C   UNL d   1     -42.508-123.323 -48.720  0.00  0.00     0.100 A 
ATOM      5  C   UNL d   1     -41.707-123.206 -48.917  0.00  0.00     0.116 A 
ATOM      6  C   UNL d   1     -42.712-123.625 -47.981  0.00  0.00     0.020 A 
ATOM      7  C   UNL d   1     -41.123-123.396 -48.365  0.00  0.00     0.021 A 
ATOM      8  C   UNL d   1     -42.126-123.811 -47.437  0.00  0.00     0.002 A 
ATOM      9  C   UNL d   1     -41.326-123.698 -47.625  0.00  0.00     0.002 A 
ENDROOT
BRANCH   1  10
ATOM     10  N   UNL d   1     -42.659-122.548 -50.704  0.00  0.00    -0.061 NA
BRANCH  10  11
ATOM     11  C   UNL d   1     -42.150-122.626 -51.343  0.00  0.00     0.100 A 
ATOM     12  C   UNL d   1     -41.793-121.957 -51.655  0.00  0.00     0.020 A 
ATOM     13  C   UNL d   1     -41.279-122.023 -52.297  0.00  0.00     0.002 A 
ATOM     14  C   UNL d   1     -41.123-122.772 -52.628  0.00  0.00     0.000 A 
ATOM     15  C   UNL d   1     -41.486-123.441 -52.308  0.00  0.00     0.002 A 
ATOM     16  C   UNL d   1     -41.995-123.367 -51.671  0.00  0.00     0.020 A 
ENDBRANCH  10  11
ENDBRANCH   1  10
BRANCH   2  17
ATOM     17  C   UNL d   1     -43.783-123.109 -49.420  0.00  0.00     0.082 C 
ATOM     18  C   UNL d   1     -44.220-122.413 -49.314  0.00  0.00     0.020 C 
ATOM     19  C   UNL d   1     -44.176-123.815 -49.576  0.00  0.00     0.020 C 
ENDBRANCH   2  17
TORSDOF 3
ENDMDL
MODEL 3
REMARK VINA RESULT:      -0.5      2.440      4.834
REMARK  3 active torsions:
REMARK  status: ('A' for Active; 'I' for Inactive)
REMARK    1  A    between atoms: N_6  and  C_1 
REMARK    2  A    between atoms: C_7  and  N_2 
REMARK    3  A    between atoms: C_8  and  N_6 
ROOT
ATOM      1  C   UNL d   1     -42.417-122.900 -49.554  0.00  0.00     0.735 A 
ATOM      2  N   UNL d   1     -42.686-122.589 -50.272  0.00  0.00    -0.139 N 
ATOM      3  N   UNL d   1     -41.785-123.413 -49.709  0.00  0.00    -0.059 NA
ATOM      4  C   UNL d   1     -42.222-122.908 -50.875  0.00  0.00     0.100 A 
ATOM      5  C   UNL d   1     -41.665-123.418 -50.522  0.00  0.00     0.116 A 
ATOM      6  C   UNL d   1     -42.228-122.807 -51.693  0.00  0.00     0.020 A 
ATOM      7  C   UNL d   1     -41.123-123.817 -51.000  0.00  0.00     0.021 A 
ATOM      8  C   UNL d   1     -41.686-123.207 -52.161  0.00  0.00     0.002 A 
ATOM      9  C   UNL d   1     -41.128-123.716 -51.818  0.00  0.00     0.002 A 
ENDROOT
BRANCH   1  10
ATOM     10  N   UNL d   1     -42.723-122.731 -48.807  0.00  0.00    -0.061 NA
BRANCH  10  11
ATOM     11  C   UNL d   1     -42.325-122.970 -48.130  0.00  0.00     0.100 A 
ATOM     12  C   UNL d   1     -42.660-123.545 -47.650  0.00  0.00     0.020 A 
ATOM     13  C   UNL d   1     -42.270-123.793 -46.968  0.00  0.00     0.002 A 
ATOM     14  C   UNL d   1     -41.534-123.459 -46.765  0.00  0.00     0.000 A 
ATOM     15  C   UNL d   1     -41.203-122.881 -47.253  0.00  0.00     0.002 A 
ATOM     16  C   UNL d   1     -41.596-122.639 -47.929  0.00  0.00     0.020 A 
ENDBRANCH  10  11
ENDBRANCH   1  10
BRANCH   2  17
ATOM     17  C   UNL d   1     -43.307-122.057 -50.366  0.00  0.00     0.082 C 
ATOM     18  C   UNL d   1     -43.162-121.305 -50.683  0.00  0.00     0.020 C 
ATOM     19  C   UNL d   1     -44.073-122.264 -50.148  0.00  0.00     0.020 C 
ENDBRANCH   2  17
TORSDOF 3
ENDMDL
MODEL 4
REMARK VINA RESULT:       0.2      0.749      1.984
REMARK  3 active torsions:
REMARK  status: ('A' for Active; 'I' for Inactive)
REMARK    1  A    between atoms: N_6  and  C_1 
REMARK    2  A    between atoms: C_7  and  N_2 
REMARK    3  A    between atoms: C_8  and  N_6 
ROOT
ATOM      1  C   UNL d   1     -41.255-122.284 -52.302  0.00  0.00     0.735 A 
ATOM      2  N   UNL d   1     -41.507-121.874 -51.628  0.00  0.00    -0.139 N 
ATOM      3  N   UNL d   1     -41.151-123.081 -52.103  0.00  0.00    -0.059 NA
ATOM      4  C   UNL d   1     -41.561-122.418 -51.009  0.00  0.00     0.100 A 
ATOM      5  C   UNL d   1     -41.339-123.163 -51.307  0.00  0.00     0.116 A 
ATOM      6  C   UNL d   1     -41.779-122.338 -50.219  0.00  0.00     0.020 A 
ATOM      7  C   UNL d   1     -41.342-123.818 -50.803  0.00  0.00     0.021 A 
ATOM      8  C   UNL d   1     -41.779-122.992 -49.723  0.00  0.00     0.002 A 
ATOM      9  C   UNL d   1     -41.560-123.738 -50.013  0.00  0.00     0.002 A 
ENDROOT
BRANCH   1  10
ATOM     10  N   UNL d   1     -41.127-121.956 -53.048  0.00  0.00    -0.061 NA
BRANCH  10  11
ATOM     11  C   UNL d   1     -41.376-122.350 -53.724  0.00  0.00     0.100 A 
ATOM     12  C   UNL d   1     -41.855-121.959 -54.262  0.00  0.00     0.020 A 
ATOM     13  C   UNL d   1     -42.111-122.345 -54.945  0.00  0.00     0.002 A 
ATOM     14  C   UNL d   1     -41.883-123.134 -55.087  0.00  0.00     0.000 A 
ATOM     15  C   UNL d   1     -41.400-123.521 -54.540  0.00  0.00     0.002 A 
ATOM     16  C   UNL d   1     -41.149-123.131 -53.865  0.00  0.00     0.020 A 
ENDBRANCH  10  11
ENDBRANCH   1  10
BRANCH   2  17
ATOM     17  C   UNL d   1     -41.674-121.070 -51.585  0.00  0.00     0.082 C 
ATOM     18  C   UNL d   1     -41.123-120.551 -51.251  0.00  0.00     0.020 C 
ATOM     19  C   UNL d   1     -42.387-120.775 -51.872  0.00  0.00     0.020 C 
ENDBRANCH   2  17
TORSDOF 3
ENDMDL
MODEL 5
REMARK VINA RESULT:       0.7      1.044      3.498
REMARK  3 active torsions:
REMARK  status: ('A' for Active; 'I' for Inactive)
REMARK    1  A    between atoms: N_6  and  C_1 
REMARK    2  A    between atoms: C_7  and  N_2 
REMARK    3  A    between atoms: C_8  and  N_6 
ROOT
ATOM      1  C   UNL d   1     -41.803-122.309 -53.511  0.00  0.00     0.735 A 
ATOM      2  N   UNL d   1     -41.857-122.616 -54.278  0.00  0.00    -0.139 N 
ATOM      3  N   UNL d   1     -41.818-121.482 -53.556  0.00  0.00    -0.059 NA
ATOM      4  C   UNL d   1     -41.906-121.979 -54.801  0.00  0.00     0.100 A 
ATOM      5  C   UNL d   1     -41.881-121.279 -54.350  0.00  0.00     0.116 A 
ATOM      6  C   UNL d   1     -41.968-121.940 -55.622  0.00  0.00     0.020 A 
ATOM      7  C   UNL d   1     -41.920-120.549 -54.735  0.00  0.00     0.021 A 
ATOM      8  C   UNL d   1     -42.006-121.211 -55.997  0.00  0.00     0.002 A 
ATOM      9  C   UNL d   1     -41.982-120.509 -55.555  0.00  0.00     0.002 A 
ENDROOT
BRANCH   1  10
ATOM     10  N   UNL d   1     -41.745-122.749 -52.816  0.00  0.00    -0.061 NA
BRANCH  10  11
ATOM     11  C   UNL d   1     -41.805-122.381 -52.084  0.00  0.00     0.100 A 
ATOM     12  C   UNL d   1     -41.123-122.130 -51.705  0.00  0.00     0.020 A 
ATOM     13  C   UNL d   1     -41.172-121.759 -50.970  0.00  0.00     0.002 A 
ATOM     14  C   UNL d   1     -41.915-121.641 -50.612  0.00  0.00     0.000 A 
ATOM     15  C   UNL d   1     -42.597-121.897 -51.001  0.00  0.00     0.002 A 
ATOM     16  C   UNL d   1     -42.541-122.264 -51.730  0.00  0.00     0.020 A 
ENDBRANCH  10  11
ENDBRANCH   1  10
BRANCH   2  17
ATOM     17  C   UNL d   1     -41.862-123.413 -54.481  0.00  0.00     0.082 C 
ATOM     18  C   UNL d   1     -41.147-123.815 -54.592  0.00  0.00     0.020 C 
ATOM     19  C   UNL d   1     -42.573-123.817 -54.574  0.00  0.00     0.020 C 
ENDBRANCH   2  17
TORSDOF 3
ENDMDL
