MODEL 1
REMARK VINA RESULT:      52.5      0.000      0.000
REMARK  3 active torsions:
REMARK  status: ('A' for Active; 'I' for Inactive)
REMARK    1  A    between atoms: N_2  and  S_1 
REMARK    2  A    between atoms: C_4  and  S_1 
REMARK    3  A    between atoms: C_3  and  N_2 
ROOT
ATOM      1  N   UNL d   1      58.963  49.708  50.966  0.00  0.00    -0.157 NA
ENDROOT
BRANCH   1   2
ATOM      2  S   UNL d   1      59.548  49.132  50.885  0.00  0.00     0.285 S 
ATOM      3  O   UNL d   1      59.767  49.456  50.159  0.00  0.00    -0.198 OA
ATOM      4  O   UNL d   1      59.334  48.799  51.616  0.00  0.00    -0.198 OA
BRANCH   2   5
ATOM      5  C   UNL d   1      60.133  48.556  50.805  0.00  0.00     0.105 A 
ATOM      6  C   UNL d   1      59.997  47.782  51.082  0.00  0.00     0.013 A 
ATOM      7  C   UNL d   1      60.583  47.206  51.001  0.00  0.00     0.001 A 
ATOM      8  C   UNL d   1      61.303  47.392  50.648  0.00  0.00     0.000 A 
ATOM      9  C   UNL d   1      61.441  48.158  50.373  0.00  0.00     0.001 A 
ATOM     10  C   UNL d   1      61.887  46.809  50.570  0.00  0.00     0.000 C 
ATOM     11  C   UNL d   1      60.857  48.737  50.452  0.00  0.00     0.013 A 
ENDBRANCH   2   5
ENDBRANCH   1   2
BRANCH   1  12
ATOM     12  C   UNL d   1      58.290  49.681  50.489  0.00  0.00     0.111 A 
ATOM     13  C   UNL d   1      57.539  49.645  50.831  0.00  0.00     0.100 A 
ATOM     14  N   UNL d   1      57.460  49.635  51.663  0.00  0.00    -0.242 NA
ATOM     15  C   UNL d   1      56.866  49.619  50.354  0.00  0.00     0.019 A 
ATOM     16  C   UNL d   1      56.706  49.599  52.009  0.00  0.00     0.099 A 
ATOM     17  C   UNL d   1      56.033  49.572  51.532  0.00  0.00     0.021 A 
ATOM     18  C   UNL d   1      56.112  49.582  50.707  0.00  0.00     0.003 A 
ATOM     19  C   UNL d   1      56.943  49.629  49.534  0.00  0.00     0.002 A 
ATOM     20  C   UNL d   1      57.691  49.665  49.189  0.00  0.00     0.002 A 
ATOM     21  C   UNL d   1      58.364  49.691  49.666  0.00  0.00     0.021 A 
ENDBRANCH   1  12
TORSDOF 3
ENDMDL
