MODEL 1
REMARK VINA RESULT:      -6.0      0.000      0.000
REMARK  5 active torsions:
REMARK  status: ('A' for Active; 'I' for Inactive)
REMARK    1  A    between atoms: S_2  and  C_1 
REMARK    2  A    between atoms: C_8  and  S_2 
REMARK    3  A    between atoms: C_23  and  N_7 
REMARK    4  A    between atoms: N_13  and  C_10 
REMARK    5  A    between atoms: C_31  and  C_23 
ROOT
ATOM      1  C   UNL d   1      50.959  34.230  52.793  0.00  0.00     0.144 A 
ATOM      2  C   UNL d   1      52.057  34.569  53.656  0.00  0.00     0.058 A 
ATOM      3  C   UNL d   1      51.344  34.772  53.294  0.00  0.00     0.209 A 
ATOM      4  C   UNL d   1      51.294  33.486  52.659  0.00  0.00     0.095 A 
ATOM      5  C   UNL d   1      52.392  33.825  53.522  0.00  0.00     0.069 A 
ATOM      6  N   UNL d   1      52.014  33.284  53.026  0.00  0.00    -0.303 N 
ATOM      7  C   UNL d   1      53.105  33.621  53.884  0.00  0.00     0.037 A 
ATOM      8  C   UNL d   1      53.483  34.163  54.379  0.00  0.00     0.093 A 
ATOM      9  C   UNL d   1      52.435  35.110  54.151  0.00  0.00     0.036 A 
ATOM     10  C   UNL d   1      53.148  34.907  54.513  0.00  0.00     0.156 A 
ATOM     11  O   UNL d   1      51.009  35.515  53.427  0.00  0.00    -0.286 OA
ATOM     12  F   UNL d   1      53.535  35.450  55.015  0.00  0.00    -0.203 F 
ENDROOT
BRANCH   1  13
ATOM     13  S   UNL d   1      50.243  34.432  52.428  0.00  0.00     0.214 S 
ATOM     14  O   UNL d   1      49.826  34.079  53.062  0.00  0.00    -0.217 OA
ATOM     15  O   UNL d   1      50.661  34.784  51.796  0.00  0.00    -0.217 OA
BRANCH  13  16
ATOM     16  C   UNL d   1      49.519  34.634  52.064  0.00  0.00     0.088 A 
ATOM     17  C   UNL d   1      49.367  34.406  51.286  0.00  0.00     0.011 A 
ATOM     18  C   UNL d   1      48.650  34.608  50.931  0.00  0.00     0.001 A 
ATOM     19  C   UNL d   1      49.932  33.976  50.862  0.00  0.00     0.001 C 
ATOM     20  C   UNL d   1      48.082  35.040  51.357  0.00  0.00     0.000 A 
ATOM     21  C   UNL d   1      48.237  35.266  52.133  0.00  0.00     0.001 A 
ATOM     22  C   UNL d   1      48.951  35.066  52.490  0.00  0.00     0.011 A 
ATOM     23  C   UNL d   1      47.675  35.696  52.560  0.00  0.00     0.000 C 
ENDBRANCH  13  16
ENDBRANCH   1  13
BRANCH   6  24
ATOM     24  C   UNL d   1      52.349  32.541  52.893  0.00  0.00     0.080 C 
BRANCH  24  25
ATOM     25  C   UNL d   1      51.881  31.862  52.934  0.00  0.00     0.019 C 
ATOM     26  C   UNL d   1      52.231  31.115  52.904  0.00  0.00     0.002 C 
ENDBRANCH  24  25
ENDBRANCH   6  24
BRANCH   8  27
ATOM     27  N   UNL d   1      54.199  33.960  54.743  0.00  0.00    -0.298 N 
ATOM     28  C   UNL d   1      54.913  34.114  54.357  0.00  0.00     0.107 A 
ATOM     29  C   UNL d   1      55.627  33.912  54.718  0.00  0.00     0.142 A 
ATOM     30  O   UNL d   1      55.616  33.555  55.472  0.00  0.00    -0.300 OA
ATOM     31  C   UNL d   1      54.898  33.404  55.853  0.00  0.00     0.142 A 
ATOM     32  C   UNL d   1      54.194  33.608  55.486  0.00  0.00     0.107 A 
ENDBRANCH   8  27
TORSDOF 5
ENDMDL
MODEL 2
REMARK VINA RESULT:      -5.0      2.019      5.163
REMARK  5 active torsions:
REMARK  status: ('A' for Active; 'I' for Inactive)
REMARK    1  A    between atoms: S_2  and  C_1 
REMARK    2  A    between atoms: C_8  and  S_2 
REMARK    3  A    between atoms: C_23  and  N_7 
REMARK    4  A    between atoms: N_13  and  C_10 
REMARK    5  A    between atoms: C_31  and  C_23 
ROOT
ATOM      1  C   UNL d   1      52.029  33.092  53.276  0.00  0.00     0.144 A 
ATOM      2  C   UNL d   1      50.731  33.587  52.910  0.00  0.00     0.058 A 
ATOM      3  C   UNL d   1      51.286  32.977  52.919  0.00  0.00     0.209 A 
ATOM      4  C   UNL d   1      52.209  33.820  53.623  0.00  0.00     0.095 A 
ATOM      5  C   UNL d   1      50.911  34.316  53.257  0.00  0.00     0.069 A 
ATOM      6  N   UNL d   1      51.646  34.434  53.612  0.00  0.00    -0.303 N 
ATOM      7  C   UNL d   1      50.356  34.927  53.249  0.00  0.00     0.037 A 
ATOM      8  C   UNL d   1      49.621  34.808  52.893  0.00  0.00     0.093 A 
ATOM      9  C   UNL d   1      49.996  33.469  52.555  0.00  0.00     0.036 A 
ATOM     10  C   UNL d   1      49.441  34.079  52.546  0.00  0.00     0.156 A 
ATOM     11  O   UNL d   1      51.106  32.249  52.572  0.00  0.00    -0.286 OA
ATOM     12  F   UNL d   1      48.695  33.966  52.188  0.00  0.00    -0.203 F 
ENDROOT
BRANCH   1  13
ATOM     13  S   UNL d   1      52.588  32.480  53.286  0.00  0.00     0.214 S 
ATOM     14  O   UNL d   1      52.444  32.368  54.102  0.00  0.00    -0.217 OA
ATOM     15  O   UNL d   1      52.731  32.593  52.470  0.00  0.00    -0.217 OA
BRANCH  13  16
ATOM     16  C   UNL d   1      53.150  31.863  53.300  0.00  0.00     0.088 A 
ATOM     17  C   UNL d   1      53.956  32.035  53.328  0.00  0.00     0.011 A 
ATOM     18  C   UNL d   1      54.508  31.422  53.341  0.00  0.00     0.001 A 
ATOM     19  C   UNL d   1      54.212  32.821  53.343  0.00  0.00     0.001 C 
ATOM     20  C   UNL d   1      54.251  30.631  53.326  0.00  0.00     0.000 A 
ATOM     21  C   UNL d   1      53.446  30.463  53.298  0.00  0.00     0.001 A 
ATOM     22  C   UNL d   1      52.894  31.073  53.285  0.00  0.00     0.011 A 
ATOM     23  C   UNL d   1      53.187  29.678  53.283  0.00  0.00     0.000 C 
ENDBRANCH  13  16
ENDBRANCH   1  13
BRANCH   6  24
ATOM     24  C   UNL d   1      51.826  35.162  53.959  0.00  0.00     0.080 C 
BRANCH  24  25
ATOM     25  C   UNL d   1      52.608  35.350  54.146  0.00  0.00     0.019 C 
ATOM     26  C   UNL d   1      52.773  35.980  54.654  0.00  0.00     0.002 C 
ENDBRANCH  24  25
ENDBRANCH   6  24
BRANCH   8  27
ATOM     27  N   UNL d   1      49.062  35.420  52.884  0.00  0.00    -0.298 N 
ATOM     28  C   UNL d   1      48.786  35.711  52.162  0.00  0.00     0.107 A 
ATOM     29  C   UNL d   1      48.230  36.321  52.150  0.00  0.00     0.142 A 
ATOM     30  O   UNL d   1      47.955  36.635  52.873  0.00  0.00    -0.300 OA
ATOM     31  C   UNL d   1      48.236  36.338  53.592  0.00  0.00     0.142 A 
ATOM     32  C   UNL d   1      48.788  35.733  53.592  0.00  0.00     0.107 A 
ENDBRANCH   8  27
TORSDOF 5
ENDMDL
MODEL 3
REMARK VINA RESULT:      -3.8      1.673      2.566
REMARK  5 active torsions:
REMARK  status: ('A' for Active; 'I' for Inactive)
REMARK    1  A    between atoms: S_2  and  C_1 
REMARK    2  A    between atoms: C_8  and  S_2 
REMARK    3  A    between atoms: C_23  and  N_7 
REMARK    4  A    between atoms: N_13  and  C_10 
REMARK    5  A    between atoms: C_31  and  C_23 
ROOT
ATOM      1  C   UNL d   1      50.263  34.483  52.914  0.00  0.00     0.144 A 
ATOM      2  C   UNL d   1      51.014  33.264  53.037  0.00  0.00     0.058 A 
ATOM      3  C   UNL d   1      50.305  33.652  52.874  0.00  0.00     0.209 A 
ATOM      4  C   UNL d   1      50.936  34.918  53.120  0.00  0.00     0.095 A 
ATOM      5  C   UNL d   1      51.687  33.699  53.243  0.00  0.00     0.069 A 
ATOM      6  N   UNL d   1      51.650  34.523  53.284  0.00  0.00    -0.303 N 
ATOM      7  C   UNL d   1      52.397  33.312  53.407  0.00  0.00     0.037 A 
ATOM      8  C   UNL d   1      52.434  32.488  53.365  0.00  0.00     0.093 A 
ATOM      9  C   UNL d   1      51.052  32.441  52.996  0.00  0.00     0.036 A 
ATOM     10  C   UNL d   1      51.761  32.053  53.160  0.00  0.00     0.156 A 
ATOM     11  O   UNL d   1      49.634  33.217  52.669  0.00  0.00    -0.286 OA
ATOM     12  F   UNL d   1      51.805  31.220  53.119  0.00  0.00    -0.203 F 
ENDROOT
BRANCH   1  13
ATOM     13  S   UNL d   1      49.552  34.874  52.750  0.00  0.00     0.214 S 
ATOM     14  O   UNL d   1      49.792  34.967  51.955  0.00  0.00    -0.217 OA
ATOM     15  O   UNL d   1      49.314  34.781  53.546  0.00  0.00    -0.217 OA
BRANCH  13  16
ATOM     16  C   UNL d   1      48.836  35.270  52.581  0.00  0.00     0.088 A 
ATOM     17  C   UNL d   1      48.512  35.797  53.126  0.00  0.00     0.011 A 
ATOM     18  C   UNL d   1      47.805  36.184  52.954  0.00  0.00     0.001 A 
ATOM     19  C   UNL d   1      48.897  35.937  53.845  0.00  0.00     0.001 C 
ATOM     20  C   UNL d   1      47.419  36.044  52.232  0.00  0.00     0.000 A 
ATOM     21  C   UNL d   1      47.744  35.517  51.690  0.00  0.00     0.001 A 
ATOM     22  C   UNL d   1      48.450  35.129  51.859  0.00  0.00     0.011 A 
ATOM     23  C   UNL d   1      47.363  35.375  50.970  0.00  0.00     0.000 C 
ENDBRANCH  13  16
ENDBRANCH   1  13
BRANCH   6  24
ATOM     24  C   UNL d   1      52.322  34.958  53.490  0.00  0.00     0.080 C 
BRANCH  24  25
ATOM     25  C   UNL d   1      52.310  35.451  54.151  0.00  0.00     0.019 C 
ATOM     26  C   UNL d   1      53.006  35.811  54.413  0.00  0.00     0.002 C 
ENDBRANCH  24  25
ENDBRANCH   6  24
BRANCH   8  27
ATOM     27  N   UNL d   1      53.146  32.097  53.529  0.00  0.00    -0.298 N 
ATOM     28  C   UNL d   1      53.347  31.925  54.312  0.00  0.00     0.107 A 
ATOM     29  C   UNL d   1      54.055  31.536  54.477  0.00  0.00     0.142 A 
ATOM     30  O   UNL d   1      54.560  31.321  53.847  0.00  0.00    -0.300 OA
ATOM     31  C   UNL d   1      54.351  31.497  53.066  0.00  0.00     0.142 A 
ATOM     32  C   UNL d   1      53.646  31.884  52.913  0.00  0.00     0.107 A 
ENDBRANCH   8  27
TORSDOF 5
ENDMDL
MODEL 4
REMARK VINA RESULT:      -3.4      2.482      6.100
REMARK  5 active torsions:
REMARK  status: ('A' for Active; 'I' for Inactive)
REMARK    1  A    between atoms: S_2  and  C_1 
REMARK    2  A    between atoms: C_8  and  S_2 
REMARK    3  A    between atoms: C_23  and  N_7 
REMARK    4  A    between atoms: N_13  and  C_10 
REMARK    5  A    between atoms: C_31  and  C_23 
ROOT
ATOM      1  C   UNL d   1      49.858  34.701  52.813  0.00  0.00     0.144 A 
ATOM      2  C   UNL d   1      48.637  34.778  52.059  0.00  0.00     0.058 A 
ATOM      3  C   UNL d   1      49.385  34.450  52.175  0.00  0.00     0.209 A 
ATOM      4  C   UNL d   1      49.575  35.280  53.330  0.00  0.00     0.095 A 
ATOM      5  C   UNL d   1      48.354  35.358  52.577  0.00  0.00     0.069 A 
ATOM      6  N   UNL d   1      48.820  35.609  53.211  0.00  0.00    -0.303 N 
ATOM      7  C   UNL d   1      47.606  35.686  52.462  0.00  0.00     0.037 A 
ATOM      8  C   UNL d   1      47.141  35.435  51.828  0.00  0.00     0.093 A 
ATOM      9  C   UNL d   1      48.171  34.527  51.427  0.00  0.00     0.036 A 
ATOM     10  C   UNL d   1      47.423  34.855  51.311  0.00  0.00     0.156 A 
ATOM     11  O   UNL d   1      49.667  33.871  51.658  0.00  0.00    -0.286 OA
ATOM     12  F   UNL d   1      46.947  34.605  50.672  0.00  0.00    -0.203 F 
ENDROOT
BRANCH   1  13
ATOM     13  S   UNL d   1      50.609  34.372  52.931  0.00  0.00     0.214 S 
ATOM     14  O   UNL d   1      50.922  34.892  52.355  0.00  0.00    -0.217 OA
ATOM     15  O   UNL d   1      50.296  33.854  53.506  0.00  0.00    -0.217 OA
BRANCH  13  16
ATOM     16  C   UNL d   1      51.368  34.044  53.047  0.00  0.00     0.088 A 
ATOM     17  C   UNL d   1      51.989  34.515  53.317  0.00  0.00     0.011 A 
ATOM     18  C   UNL d   1      52.737  34.185  53.430  0.00  0.00     0.001 A 
ATOM     19  C   UNL d   1      51.862  35.317  53.474  0.00  0.00     0.001 C 
ATOM     20  C   UNL d   1      52.864  33.380  53.272  0.00  0.00     0.000 A 
ATOM     21  C   UNL d   1      52.243  32.912  53.002  0.00  0.00     0.001 A 
ATOM     22  C   UNL d   1      51.496  33.238  52.889  0.00  0.00     0.011 A 
ATOM     23  C   UNL d   1      52.366  32.110  52.844  0.00  0.00     0.000 C 
ENDBRANCH  13  16
ENDBRANCH   1  13
BRANCH   6  24
ATOM     24  C   UNL d   1      48.537  36.188  53.728  0.00  0.00     0.080 C 
BRANCH  24  25
ATOM     25  C   UNL d   1      48.400  36.004  54.520  0.00  0.00     0.019 C 
ATOM     26  C   UNL d   1      48.043  36.558  55.019  0.00  0.00     0.002 C 
ENDBRANCH  24  25
ENDBRANCH   6  24
BRANCH   8  27
ATOM     27  N   UNL d   1      46.389  35.764  51.711  0.00  0.00    -0.298 N 
ATOM     28  C   UNL d   1      45.745  35.477  52.142  0.00  0.00     0.107 A 
ATOM     29  C   UNL d   1      44.996  35.803  52.027  0.00  0.00     0.142 A 
ATOM     30  O   UNL d   1      44.901  36.421  51.473  0.00  0.00    -0.300 OA
ATOM     31  C   UNL d   1      45.551  36.702  51.045  0.00  0.00     0.142 A 
ATOM     32  C   UNL d   1      46.290  36.372  51.167  0.00  0.00     0.107 A 
ENDBRANCH   8  27
TORSDOF 5
ENDMDL
MODEL 5
REMARK VINA RESULT:      -3.2     10.326     11.608
REMARK  5 active torsions:
REMARK  status: ('A' for Active; 'I' for Inactive)
REMARK    1  A    between atoms: S_2  and  C_1 
REMARK    2  A    between atoms: C_8  and  S_2 
REMARK    3  A    between atoms: C_23  and  N_7 
REMARK    4  A    between atoms: N_13  and  C_10 
REMARK    5  A    between atoms: C_31  and  C_23 
ROOT
ATOM      1  C   UNL d   1      44.762  28.667  59.231  0.00  0.00     0.144 A 
ATOM      2  C   UNL d   1      44.744  27.284  58.843  0.00  0.00     0.058 A 
ATOM      3  C   UNL d   1      44.746  27.860  59.433  0.00  0.00     0.209 A 
ATOM      4  C   UNL d   1      44.778  28.890  58.435  0.00  0.00     0.095 A 
ATOM      5  C   UNL d   1      44.759  27.507  58.047  0.00  0.00     0.069 A 
ATOM      6  N   UNL d   1      44.776  28.306  57.841  0.00  0.00    -0.303 N 
ATOM      7  C   UNL d   1      44.758  26.931  57.455  0.00  0.00     0.037 A 
ATOM      8  C   UNL d   1      44.741  26.132  57.661  0.00  0.00     0.093 A 
ATOM      9  C   UNL d   1      44.727  26.485  59.048  0.00  0.00     0.036 A 
ATOM     10  C   UNL d   1      44.726  25.909  58.457  0.00  0.00     0.156 A 
ATOM     11  O   UNL d   1      44.730  27.637  60.229  0.00  0.00    -0.286 OA
ATOM     12  F   UNL d   1      44.709  25.099  58.659  0.00  0.00    -0.203 F 
ENDROOT
BRANCH   1  13
ATOM     13  S   UNL d   1      44.764  29.247  59.822  0.00  0.00     0.214 S 
ATOM     14  O   UNL d   1      44.317  28.740  60.314  0.00  0.00    -0.217 OA
ATOM     15  O   UNL d   1      45.211  29.753  59.330  0.00  0.00    -0.217 OA
BRANCH  13  16
ATOM     16  C   UNL d   1      44.763  29.829  60.421  0.00  0.00     0.088 A 
ATOM     17  C   UNL d   1      44.540  30.604  60.248  0.00  0.00     0.011 A 
ATOM     18  C   UNL d   1      44.541  31.175  60.844  0.00  0.00     0.001 A 
ATOM     19  C   UNL d   1      44.315  30.809  59.479  0.00  0.00     0.001 C 
ATOM     20  C   UNL d   1      44.767  30.970  61.616  0.00  0.00     0.000 A 
ATOM     21  C   UNL d   1      44.990  30.196  61.786  0.00  0.00     0.001 A 
ATOM     22  C   UNL d   1      44.989  29.624  61.194  0.00  0.00     0.011 A 
ATOM     23  C   UNL d   1      45.215  29.988  62.554  0.00  0.00     0.000 C 
ENDBRANCH  13  16
ENDBRANCH   1  13
BRANCH   6  24
ATOM     24  C   UNL d   1      44.791  28.529  57.046  0.00  0.00     0.080 C 
BRANCH  24  25
ATOM     25  C   UNL d   1      44.707  29.323  56.837  0.00  0.00     0.019 C 
ATOM     26  C   UNL d   1      44.687  29.542  56.040  0.00  0.00     0.002 C 
ENDBRANCH  24  25
ENDBRANCH   6  24
BRANCH   8  27
ATOM     27  N   UNL d   1      44.739  25.553  57.069  0.00  0.00    -0.298 N 
ATOM     28  C   UNL d   1      44.396  24.816  57.217  0.00  0.00     0.107 A 
ATOM     29  C   UNL d   1      44.393  24.238  56.629  0.00  0.00     0.142 A 
ATOM     30  O   UNL d   1      44.740  24.408  55.889  0.00  0.00    -0.300 OA
ATOM     31  C   UNL d   1      45.083  25.148  55.747  0.00  0.00     0.142 A 
ATOM     32  C   UNL d   1      45.080  25.714  56.338  0.00  0.00     0.107 A 
ENDBRANCH   8  27
TORSDOF 5
ENDMDL
