MODEL 1
REMARK VINA RESULT:      49.4      0.000      0.000
REMARK  4 active torsions:
REMARK  status: ('A' for Active; 'I' for Inactive)
REMARK    1  A    between atoms: S_10  and  C_3 
REMARK    2  A    between atoms: C_11  and  C_7 
REMARK    3  A    between atoms: C_13  and  S_10 
REMARK    4  A    between atoms: C_15  and  C_13 
ROOT
ATOM      1  N   UNL d   1     -50.131  24.925  33.439  0.00  0.00    -0.186 N 
ATOM      2  N   UNL d   1     -50.574  25.612  33.403  0.00  0.00    -0.162 NA
ATOM      3  C   UNL d   1     -50.347  24.125  33.410  0.00  0.00     0.217 A 
ATOM      4  C   UNL d   1     -49.309  24.956  33.521  0.00  0.00     0.187 A 
ATOM      5  N   UNL d   1     -49.662  23.679  33.473  0.00  0.00    -0.120 NA
ATOM      6  N   UNL d   1     -49.017  24.192  33.542  0.00  0.00    -0.127 NA
ATOM      7  C   UNL d   1     -50.192  26.347  33.448  0.00  0.00     0.102 A 
ATOM      8  C   UNL d   1     -48.928  25.695  33.567  0.00  0.00     0.042 A 
ATOM      9  C   UNL d   1     -49.368  26.383  33.530  0.00  0.00     0.024 A 
ENDROOT
BRANCH   3  10
ATOM     10  S   UNL d   1     -51.109  23.812  33.331  0.00  0.00    -0.046 SA
BRANCH  10  11
ATOM     11  C   UNL d   1     -51.542  23.604  33.990  0.00  0.00     0.038 C 
BRANCH  11  12
ATOM     12  C   UNL d   1     -52.360  23.611  33.964  0.00  0.00     0.007 A 
ATOM     13  C   UNL d   1     -52.773  23.192  33.381  0.00  0.00     0.003 A 
ATOM     14  C   UNL d   1     -53.605  23.204  33.363  0.00  0.00     0.030 A 
ATOM     15  C   UNL d   1     -54.012  23.636  33.927  0.00  0.00     0.140 A 
ATOM     16  C   UNL d   1     -53.621  24.058  34.514  0.00  0.00     0.030 A 
ATOM     17  F   UNL d   1     -54.839  23.645  33.906  0.00  0.00    -0.204 F 
ATOM     18  C   UNL d   1     -52.790  24.046  34.532  0.00  0.00     0.003 A 
ENDBRANCH  11  12
ENDBRANCH  10  11
ENDBRANCH   3  10
BRANCH   7  19
ATOM     19  C   UNL d   1     -50.634  27.045  33.412  0.00  0.00     0.022 A 
ATOM     20  C   UNL d   1     -51.449  27.007  33.373  0.00  0.00     0.022 A 
ATOM     21  C   UNL d   1     -51.905  27.691  33.336  0.00  0.00     0.099 A 
ATOM     22  N   UNL d   1     -51.508  28.439  33.339  0.00  0.00    -0.242 NA
ATOM     23  C   UNL d   1     -50.691  28.474  33.377  0.00  0.00     0.099 A 
ATOM     24  C   UNL d   1     -50.254  27.776  33.414  0.00  0.00     0.022 A 
ENDBRANCH   7  19
TORSDOF 4
ENDMDL
