MODEL 1
REMARK VINA RESULT:      25.7      0.000      0.000
REMARK  4 active torsions:
REMARK  status: ('A' for Active; 'I' for Inactive)
REMARK    1  A    between atoms: C_6  and  C_1 
REMARK    2  A    between atoms: C_3  and  C_5 
REMARK    3  A    between atoms: C_5  and  C_6 
REMARK    4  A    between atoms: C_17  and  C_13 
ROOT
ATOM      1  C   UNL d   1      14.328  12.396  -1.777  0.00  0.00     0.202 C 
ATOM      2  O   UNL d   1      14.872  11.783  -1.948  0.00  0.00    -0.286 OA
ENDROOT
BRANCH   1   3
ATOM      3  C   UNL d   1      14.602  13.062  -1.340  0.00  0.00     0.078 A 
ATOM      4  C   UNL d   1      14.733  12.971  -0.503  0.00  0.00     0.202 A 
ATOM      5  C   UNL d   1      15.001  13.624  -0.077  0.00  0.00     0.084 A 
ATOM      6  O   UNL d   1      14.591  12.245  -0.139  0.00  0.00    -0.286 OA
ATOM      7  C   UNL d   1      15.140  14.341  -0.443  0.00  0.00     0.199 A 
ATOM      8  C   UNL d   1      15.011  14.430  -1.266  0.00  0.00     0.039 A 
ATOM      9  O   UNL d   1      15.411  15.004  -0.016  0.00  0.00    -0.286 OA
ATOM     10  C   UNL d   1      14.739  13.779  -1.715  0.00  0.00     0.010 A 
BRANCH   8  11
ATOM     11  C   UNL d   1      15.150  15.153  -1.640  0.00  0.00     0.003 C 
ATOM     12  C   UNL d   1      14.989  15.880  -1.243  0.00  0.00     0.000 C 
ENDBRANCH   8  11
ENDBRANCH   1   3
BRANCH   1  13
ATOM     13  C   UNL d   1      13.544  12.349  -2.028  0.00  0.00     0.081 C 
BRANCH  13  14
ATOM     14  C   UNL d   1      13.368  12.425  -2.842  0.00  0.00     0.166 A 
ATOM     15  N   UNL d   1      13.295  13.129  -3.252  0.00  0.00    -0.225 NA
ATOM     16  C   UNL d   1      13.118  12.945  -4.042  0.00  0.00     0.101 A 
ATOM     17  C   UNL d   1      12.987  13.426  -4.696  0.00  0.00     0.021 A 
ATOM     18  C   UNL d   1      13.084  12.130  -4.110  0.00  0.00     0.101 A 
ATOM     19  C   UNL d   1      12.818  13.104  -5.435  0.00  0.00     0.002 A 
ATOM     20  C   UNL d   1      12.783  12.274  -5.503  0.00  0.00     0.002 A 
ATOM     21  C   UNL d   1      12.916  11.790  -4.844  0.00  0.00     0.021 A 
ATOM     22  N   UNL d   1      13.236  11.795  -3.377  0.00  0.00    -0.225 NA
ENDBRANCH  13  14
ENDBRANCH   1  13
TORSDOF 4
ENDMDL
