MODEL 1
REMARK VINA RESULT:      -6.1      0.000      0.000
REMARK  3 active torsions:
REMARK  status: ('A' for Active; 'I' for Inactive)
REMARK    1  A    between atoms: C_4  and  S_1 
REMARK       I    between atoms: C_2  and  N_3 
REMARK    2  A    between atoms: C_9  and  C_2 
REMARK    3  A    between atoms: N_3  and  C_12 
ROOT
ATOM      1  C   UNL d   1     -41.233-122.986 -53.063  0.00  0.00     0.107 A 
ATOM      2  C   UNL d   1     -41.268-122.293 -52.625  0.00  0.00     0.015 A 
ATOM      3  C   UNL d   1     -41.193-123.718 -52.679  0.00  0.00     0.015 A 
ATOM      4  C   UNL d   1     -41.223-123.048 -51.416  0.00  0.00     0.085 A 
ATOM      5  C   UNL d   1     -41.188-123.750 -51.843  0.00  0.00     0.020 A 
ATOM      6  C   UNL d   1     -41.263-122.325 -51.789  0.00  0.00     0.020 A 
ENDROOT
BRANCH   4   7
ATOM      7  N   UNL d   1     -41.219-123.080 -50.569  0.00  0.00    -0.208 NA
ATOM      8  C   UNL d   1     -41.926-123.130 -50.150  0.00  0.00     0.279 C 
ATOM      9  O   UNL d   1     -42.660-123.150 -50.564  0.00  0.00    -0.265 OA
BRANCH   8  10
ATOM     10  C   UNL d   1     -41.921-123.161 -49.326  0.00  0.00     0.058 A 
ATOM     11  C   UNL d   1     -42.631-123.004 -48.892  0.00  0.00     0.005 A 
ATOM     12  C   UNL d   1     -42.626-123.035 -48.068  0.00  0.00     0.000 A 
ATOM     13  C   UNL d   1     -41.912-123.224 -47.659  0.00  0.00     0.000 A 
ATOM     14  C   UNL d   1     -41.224-123.377 -48.088  0.00  0.00     0.000 A 
ATOM     15  C   UNL d   1     -41.229-123.345 -48.913  0.00  0.00     0.005 A 
ENDBRANCH   8  10
ENDBRANCH   4   7
BRANCH   1  16
ATOM     16  S   UNL d   1     -41.237-122.954 -53.907  0.00  0.00     0.302 S 
ATOM     17  O   UNL d   1     -41.212-123.793 -53.938  0.00  0.00    -0.197 OA
ATOM     18  O   UNL d   1     -41.262-122.130 -53.875  0.00  0.00    -0.197 OA
ATOM     19  N   UNL d   1     -41.242-122.923 -54.731  0.00  0.00    -0.043 N 
ENDBRANCH   1  16
TORSDOF 3
ENDMDL
MODEL 2
REMARK VINA RESULT:      -5.7      1.878      4.623
REMARK  3 active torsions:
REMARK  status: ('A' for Active; 'I' for Inactive)
REMARK    1  A    between atoms: C_4  and  S_1 
REMARK       I    between atoms: C_2  and  N_3 
REMARK    2  A    between atoms: C_9  and  C_2 
REMARK    3  A    between atoms: N_3  and  C_12 
ROOT
ATOM      1  C   UNL d   1     -41.681-122.947 -50.193  0.00  0.00     0.107 A 
ATOM      2  C   UNL d   1     -41.135-123.262 -50.719  0.00  0.00     0.015 A 
ATOM      3  C   UNL d   1     -42.230-122.384 -50.453  0.00  0.00     0.015 A 
ATOM      4  C   UNL d   1     -41.674-122.460 -51.769  0.00  0.00     0.085 A 
ATOM      5  C   UNL d   1     -42.226-122.137 -51.252  0.00  0.00     0.020 A 
ATOM      6  C   UNL d   1     -41.132-123.015 -51.518  0.00  0.00     0.020 A 
ENDROOT
BRANCH   4   7
ATOM      7  N   UNL d   1     -41.671-122.211 -52.578  0.00  0.00    -0.208 NA
ATOM      8  C   UNL d   1     -41.781-122.757 -53.184  0.00  0.00     0.279 C 
ATOM      9  O   UNL d   1     -41.899-123.572 -52.999  0.00  0.00    -0.265 OA
BRANCH   8  10
ATOM     10  C   UNL d   1     -41.778-122.514 -53.971  0.00  0.00     0.058 A 
ATOM     11  C   UNL d   1     -41.197-122.819 -54.506  0.00  0.00     0.005 A 
ATOM     12  C   UNL d   1     -41.194-122.575 -55.295  0.00  0.00     0.000 A 
ATOM     13  C   UNL d   1     -41.771-122.022 -55.566  0.00  0.00     0.000 A 
ATOM     14  C   UNL d   1     -42.335-121.730 -55.038  0.00  0.00     0.000 A 
ATOM     15  C   UNL d   1     -42.338-121.973 -54.250  0.00  0.00     0.005 A 
ENDBRANCH   8  10
ENDBRANCH   4   7
BRANCH   1  16
ATOM     16  S   UNL d   1     -41.684-123.196 -49.387  0.00  0.00     0.302 S 
ATOM     17  O   UNL d   1     -42.256-123.783 -49.570  0.00  0.00    -0.197 OA
ATOM     18  O   UNL d   1     -41.123-122.618 -49.206  0.00  0.00    -0.197 OA
ATOM     19  N   UNL d   1     -41.688-123.439 -48.598  0.00  0.00    -0.043 N 
ENDBRANCH   1  16
TORSDOF 3
ENDMDL
MODEL 3
REMARK VINA RESULT:      -5.2      1.005      1.479
REMARK  3 active torsions:
REMARK  status: ('A' for Active; 'I' for Inactive)
REMARK    1  A    between atoms: C_4  and  S_1 
REMARK       I    between atoms: C_2  and  N_3 
REMARK    2  A    between atoms: C_9  and  C_2 
REMARK    3  A    between atoms: N_3  and  C_12 
ROOT
ATOM      1  C   UNL d   1     -41.684-122.295 -54.081  0.00  0.00     0.107 A 
ATOM      2  C   UNL d   1     -41.663-123.091 -53.881  0.00  0.00     0.015 A 
ATOM      3  C   UNL d   1     -41.595-121.718 -53.494  0.00  0.00     0.015 A 
ATOM      4  C   UNL d   1     -41.464-122.749 -52.510  0.00  0.00     0.085 A 
ATOM      5  C   UNL d   1     -41.483-121.948 -52.698  0.00  0.00     0.020 A 
ATOM      6  C   UNL d   1     -41.552-123.321 -53.085  0.00  0.00     0.020 A 
ENDROOT
BRANCH   4   7
ATOM      7  N   UNL d   1     -41.351-122.982 -51.704  0.00  0.00    -0.208 NA
ATOM      8  C   UNL d   1     -41.920-122.805 -51.135  0.00  0.00     0.279 C 
ATOM      9  O   UNL d   1     -42.620-122.390 -51.355  0.00  0.00    -0.265 OA
BRANCH   8  10
ATOM     10  C   UNL d   1     -41.810-123.032 -50.351  0.00  0.00     0.058 A 
ATOM     11  C   UNL d   1     -42.292-122.695 -49.741  0.00  0.00     0.005 A 
ATOM     12  C   UNL d   1     -42.182-122.922 -48.955  0.00  0.00     0.000 A 
ATOM     13  C   UNL d   1     -41.588-123.491 -48.762  0.00  0.00     0.000 A 
ATOM     14  C   UNL d   1     -41.123-123.814 -49.361  0.00  0.00     0.000 A 
ATOM     15  C   UNL d   1     -41.233-123.588 -50.147  0.00  0.00     0.005 A 
ENDBRANCH   8  10
ENDBRANCH   4   7
BRANCH   1  16
ATOM     16  S   UNL d   1     -41.797-122.063 -54.884  0.00  0.00     0.302 S 
ATOM     17  O   UNL d   1     -42.473-121.618 -54.661  0.00  0.00    -0.197 OA
ATOM     18  O   UNL d   1     -41.133-122.501 -55.104  0.00  0.00    -0.197 OA
ATOM     19  N   UNL d   1     -41.907-121.836 -55.670  0.00  0.00    -0.043 N 
ENDBRANCH   1  16
TORSDOF 3
ENDMDL
MODEL 4
REMARK VINA RESULT:      -5.1      2.130      4.625
REMARK  3 active torsions:
REMARK  status: ('A' for Active; 'I' for Inactive)
REMARK    1  A    between atoms: C_4  and  S_1 
REMARK       I    between atoms: C_2  and  N_3 
REMARK    2  A    between atoms: C_9  and  C_2 
REMARK    3  A    between atoms: N_3  and  C_12 
ROOT
ATOM      1  C   UNL d   1     -42.115-123.230 -48.353  0.00  0.00     0.107 A 
ATOM      2  C   UNL d   1     -41.496-123.683 -48.644  0.00  0.00     0.015 A 
ATOM      3  C   UNL d   1     -42.638-122.859 -48.877  0.00  0.00     0.015 A 
ATOM      4  C   UNL d   1     -41.908-123.403 -49.980  0.00  0.00     0.085 A 
ATOM      5  C   UNL d   1     -42.533-122.947 -49.702  0.00  0.00     0.020 A 
ATOM      6  C   UNL d   1     -41.390-123.771 -49.468  0.00  0.00     0.020 A 
ENDROOT
BRANCH   4   7
ATOM      7  N   UNL d   1     -41.801-123.492 -50.815  0.00  0.00    -0.208 NA
ATOM      8  C   UNL d   1     -41.452-122.892 -51.258  0.00  0.00     0.279 C 
ATOM      9  O   UNL d   1     -41.197-122.184 -50.878  0.00  0.00    -0.265 OA
BRANCH   8  10
ATOM     10  C   UNL d   1     -41.348-122.979 -52.070  0.00  0.00     0.058 A 
ATOM     11  C   UNL d   1     -41.365-122.299 -52.575  0.00  0.00     0.005 A 
ATOM     12  C   UNL d   1     -41.261-122.386 -53.389  0.00  0.00     0.000 A 
ATOM     13  C   UNL d   1     -41.138-123.155 -53.717  0.00  0.00     0.000 A 
ATOM     14  C   UNL d   1     -41.123-123.812 -53.219  0.00  0.00     0.000 A 
ATOM     15  C   UNL d   1     -41.226-123.725 -52.405  0.00  0.00     0.005 A 
ENDBRANCH   8  10
ENDBRANCH   4   7
BRANCH   1  16
ATOM     16  S   UNL d   1     -42.222-123.141 -47.521  0.00  0.00     0.302 S 
ATOM     17  O   UNL d   1     -41.617-122.558 -47.506  0.00  0.00    -0.197 OA
ATOM     18  O   UNL d   1     -42.815-123.714 -47.535  0.00  0.00    -0.197 OA
ATOM     19  N   UNL d   1     -42.325-123.054 -46.707  0.00  0.00    -0.043 N 
ENDBRANCH   1  16
TORSDOF 3
ENDMDL
MODEL 5
REMARK VINA RESULT:      -3.9      1.303      1.855
REMARK  3 active torsions:
REMARK  status: ('A' for Active; 'I' for Inactive)
REMARK    1  A    between atoms: C_4  and  S_1 
REMARK       I    between atoms: C_2  and  N_3 
REMARK    2  A    between atoms: C_9  and  C_2 
REMARK    3  A    between atoms: N_3  and  C_12 
ROOT
ATOM      1  C   UNL d   1     -41.858-122.250 -54.533  0.00  0.00     0.107 A 
ATOM      2  C   UNL d   1     -42.238-121.806 -53.958  0.00  0.00     0.015 A 
ATOM      3  C   UNL d   1     -41.355-122.870 -54.313  0.00  0.00     0.015 A 
ATOM      4  C   UNL d   1     -41.622-122.588 -52.937  0.00  0.00     0.085 A 
ATOM      5  C   UNL d   1     -41.235-123.041 -53.504  0.00  0.00     0.020 A 
ATOM      6  C   UNL d   1     -42.119-121.977 -53.148  0.00  0.00     0.020 A 
ENDROOT
BRANCH   4   7
ATOM      7  N   UNL d   1     -41.501-122.762 -52.117  0.00  0.00    -0.208 NA
ATOM      8  C   UNL d   1     -42.102-122.629 -51.569  0.00  0.00     0.279 C 
ATOM      9  O   UNL d   1     -42.843-122.319 -51.824  0.00  0.00    -0.265 OA
BRANCH   8  10
ATOM     10  C   UNL d   1     -41.984-122.798 -50.771  0.00  0.00     0.058 A 
ATOM     11  C   UNL d   1     -41.270-123.178 -50.519  0.00  0.00     0.005 A 
ATOM     12  C   UNL d   1     -41.152-123.347 -49.720  0.00  0.00     0.000 A 
ATOM     13  C   UNL d   1     -41.745-123.140 -49.155  0.00  0.00     0.000 A 
ATOM     14  C   UNL d   1     -42.437-122.770 -49.408  0.00  0.00     0.000 A 
ATOM     15  C   UNL d   1     -42.555-122.601 -50.207  0.00  0.00     0.005 A 
ENDBRANCH   8  10
ENDBRANCH   4   7
BRANCH   1  16
ATOM     16  S   UNL d   1     -41.979-122.077 -55.351  0.00  0.00     0.302 S 
ATOM     17  O   UNL d   1     -41.338-121.535 -55.330  0.00  0.00    -0.197 OA
ATOM     18  O   UNL d   1     -42.608-122.610 -55.370  0.00  0.00    -0.197 OA
ATOM     19  N   UNL d   1     -42.097-121.908 -56.149  0.00  0.00    -0.043 N 
ENDBRANCH   1  16
TORSDOF 3
ENDMDL
