MODEL 1
REMARK VINA RESULT:       0.8      0.000      0.000
REMARK  5 active torsions:
REMARK  status: ('A' for Active; 'I' for Inactive)
REMARK    1  A    between atoms: C_9  and  C_3 
REMARK    2  A    between atoms: N_11  and  C_4 
REMARK    3  A    between atoms: C_17  and  N_11 
REMARK    4  A    between atoms: O_19  and  C_13 
REMARK    5  A    between atoms: O_20  and  C_15 
ROOT
ATOM      1  N   UNL d   1      32.664  20.177 -22.845  0.00  0.00    -0.184 N 
ATOM      2  C   UNL d   1      32.693  19.352 -22.981  0.00  0.00     0.168 A 
ATOM      3  C   UNL d   1      32.536  19.043 -23.726  0.00  0.00     0.055 A 
ATOM      4  C   UNL d   1      32.824  20.466 -22.091  0.00  0.00     0.218 A 
ATOM      5  N   UNL d   1      32.316  20.389 -24.212  0.00  0.00    -0.162 NA
ATOM      6  C   UNL d   1      32.346  19.564 -24.347  0.00  0.00     0.104 A 
ATOM      7  N   UNL d   1      32.883  18.831 -22.359  0.00  0.00    -0.227 NA
ATOM      8  C   UNL d   1      33.014  19.963 -21.466  0.00  0.00     0.071 A 
ATOM      9  C   UNL d   1      33.044  19.138 -21.601  0.00  0.00     0.087 A 
ATOM     10  C   UNL d   1      32.188  19.270 -25.094  0.00  0.00     0.023 C 
ATOM     11  C   UNL d   1      33.241  18.601 -20.957  0.00  0.00     0.021 C 
ENDROOT
BRANCH   3  12
ATOM     12  C   UNL d   1      32.566  18.231 -23.860  0.00  0.00     0.007 A 
ATOM     13  C   UNL d   1      31.938  17.756 -23.610  0.00  0.00     0.026 A 
ATOM     14  C   UNL d   1      31.968  16.931 -23.745  0.00  0.00     0.116 A 
ATOM     15  C   UNL d   1      32.625  16.597 -24.128  0.00  0.00     0.116 A 
ATOM     16  C   UNL d   1      33.241  17.084 -24.370  0.00  0.00     0.026 A 
ATOM     17  C   UNL d   1      33.211  17.905 -24.235  0.00  0.00     0.002 A 
BRANCH  14  18
ATOM     18  O   UNL d   1      31.334  16.433 -23.495  0.00  0.00    -0.326 OA
ATOM     19  C   UNL d   1      30.511  16.673 -23.645  0.00  0.00     0.181 C 
ENDBRANCH  14  18
BRANCH  15  20
ATOM     20  O   UNL d   1      32.656  15.746 -24.268  0.00  0.00    -0.326 OA
ATOM     21  C   UNL d   1      32.929  15.453 -25.035  0.00  0.00     0.181 C 
ENDBRANCH  15  20
ENDBRANCH   3  12
BRANCH   4  22
ATOM     22  N   UNL d   1      32.794  21.313 -21.952  0.00  0.00    -0.383 NA
BRANCH  22  23
ATOM     23  C   UNL d   1      32.766  22.066 -21.828  0.00  0.00     0.134 A 
ATOM     24  C   UNL d   1      33.020  22.544 -22.369  0.00  0.00     0.032 A 
ATOM     25  C   UNL d   1      32.993  23.297 -22.245  0.00  0.00     0.003 A 
ATOM     26  C   UNL d   1      32.463  23.090 -21.053  0.00  0.00     0.003 A 
ATOM     27  C   UNL d   1      32.491  22.333 -21.177  0.00  0.00     0.032 A 
ENDBRANCH  22  23
ENDBRANCH   4  22
TORSDOF 5
ENDMDL
