MODEL 1
REMARK VINA RESULT:      51.9      0.000      0.000
REMARK  3 active torsions:
REMARK  status: ('A' for Active; 'I' for Inactive)
REMARK    1  A    between atoms: C_7  and  C_3 
REMARK       I    between atoms: N_10  and  C_7 
REMARK    2  A    between atoms: C_18  and  C_9 
REMARK    3  A    between atoms: C_12  and  N_10 
ROOT
ATOM      1  C   UNL d   1     -49.010  28.245  34.583  0.00  0.00     0.059 A 
ATOM      2  C   UNL d   1     -49.074  28.769  33.948  0.00  0.00     0.013 A 
ATOM      3  C   UNL d   1     -49.943  27.371  33.957  0.00  0.00     0.088 A 
ATOM      4  S   UNL d   1     -49.443  27.548  34.588  0.00  0.00    -0.075 SA
ATOM      5  S   UNL d   1     -48.509  28.422  35.214  0.00  0.00    -0.080 SA
ATOM      6  C   UNL d   1     -50.008  27.895  33.322  0.00  0.00     0.012 A 
ATOM      7  C   UNL d   1     -48.144  29.640  34.572  0.00  0.00     0.007 A 
ATOM      8  C   UNL d   1     -48.079  29.116  35.207  0.00  0.00     0.030 A 
ENDROOT
BRANCH   3   9
ATOM      9  C   UNL d   1     -50.377  26.674  33.961  0.00  0.00     0.285 C 
ATOM     10  N   UNL d   1     -50.356  26.169  33.306  0.00  0.00    -0.208 NA
ATOM     11  O   UNL d   1     -50.833  26.474  34.619  0.00  0.00    -0.265 OA
BRANCH  10  12
ATOM     12  C   UNL d   1     -50.791  25.468  33.308  0.00  0.00     0.085 A 
ATOM     13  C   UNL d   1     -50.402  24.750  33.310  0.00  0.00     0.019 A 
ATOM     14  C   UNL d   1     -50.837  24.054  33.313  0.00  0.00     0.002 A 
ATOM     15  C   UNL d   1     -51.670  24.081  33.312  0.00  0.00     0.000 A 
ATOM     16  C   UNL d   1     -52.051  24.812  33.310  0.00  0.00     0.002 A 
ATOM     17  C   UNL d   1     -52.110  23.381  33.315  0.00  0.00     0.000 C 
ATOM     18  C   UNL d   1     -51.615  25.503  33.308  0.00  0.00     0.019 A 
ENDBRANCH  10  12
ENDBRANCH   3   9
BRANCH   8  19
ATOM     19  C   UNL d   1     -47.576  29.299  35.836  0.00  0.00     0.006 C 
ATOM     20  C   UNL d   1     -46.824  29.592  35.693  0.00  0.00     0.001 C 
ENDBRANCH   8  19
TORSDOF 3
ENDMDL
