MODEL 1
REMARK VINA RESULT:     -10.0      0.000      0.000
REMARK  2 active torsions:
REMARK  status: ('A' for Active; 'I' for Inactive)
REMARK    1  A    between atoms: C_9  and  C_3 
REMARK    2  A    between atoms: C_12  and  N_4 
ROOT
ATOM      1  C   UNL d   1     -47.400  12.876  23.125  0.00  0.00     0.035 A 
ATOM      2  C   UNL d   1     -48.215  12.973  23.049  0.00  0.00     0.065 A 
ATOM      3  C   UNL d   1     -47.043  13.595  22.961  0.00  0.00     0.166 A 
ATOM      4  N   UNL d   1     -48.356  13.755  22.838  0.00  0.00    -0.233 N 
ATOM      5  N   UNL d   1     -47.632  14.138  22.784  0.00  0.00    -0.159 NA
ATOM      6  C   UNL d   1     -48.297  12.265  23.227  0.00  0.00     0.057 A 
ATOM      7  C   UNL d   1     -47.450  12.097  23.323  0.00  0.00    -0.020 A 
ATOM      8  C   UNL d   1     -46.947  11.549  23.496  0.00  0.00     0.027 A 
ATOM      9  C   UNL d   1     -48.951  11.814  23.303  0.00  0.00    -0.021 A 
ATOM     10  C   UNL d   1     -48.204  11.708  23.377  0.00  0.00    -0.008 A 
ATOM     11  C   UNL d   1     -48.999  12.496  23.123  0.00  0.00     0.011 C 
ATOM     12  C   UNL d   1     -46.211  11.686  23.506  0.00  0.00     0.005 C 
ATOM     13  C   UNL d   1     -46.807  10.837  23.689  0.00  0.00     0.005 C 
ENDROOT
BRANCH   4  14
ATOM     14  C   UNL d   1     -49.113  14.103  22.701  0.00  0.00     0.083 A 
ATOM     15  C   UNL d   1     -49.467  14.046  21.930  0.00  0.00     0.019 A 
ATOM     16  C   UNL d   1     -50.220  14.393  21.798  0.00  0.00     0.002 A 
ATOM     17  C   UNL d   1     -50.619  14.792  22.419  0.00  0.00     0.000 A 
ATOM     18  C   UNL d   1     -50.261  14.846  23.190  0.00  0.00     0.002 A 
ATOM     19  C   UNL d   1     -49.508  14.498  23.318  0.00  0.00     0.019 A 
ENDBRANCH   4  14
BRANCH   3  20
ATOM     20  C   UNL d   1     -46.216  13.747  22.973  0.00  0.00     0.231 C 
ATOM     21  O   UNL d   1     -45.747  13.642  22.276  0.00  0.00    -0.643 OA
ATOM     22  O   UNL d   1     -45.851  14.007  23.691  0.00  0.00    -0.643 OA
ENDBRANCH   3  20
TORSDOF 2
ENDMDL
MODEL 2
REMARK VINA RESULT:      -9.6      1.635      3.495
REMARK  2 active torsions:
REMARK  status: ('A' for Active; 'I' for Inactive)
REMARK    1  A    between atoms: C_9  and  C_3 
REMARK    2  A    between atoms: C_12  and  N_4 
ROOT
ATOM      1  C   UNL d   1     -49.257  13.952  22.290  0.00  0.00     0.035 A 
ATOM      2  C   UNL d   1     -48.615  13.439  22.211  0.00  0.00     0.065 A 
ATOM      3  C   UNL d   1     -49.026  14.574  22.770  0.00  0.00     0.166 A 
ATOM      4  N   UNL d   1     -47.991  13.751  22.645  0.00  0.00    -0.233 N 
ATOM      5  N   UNL d   1     -48.245  14.452  22.990  0.00  0.00    -0.159 NA
ATOM      6  C   UNL d   1     -49.033  13.012  21.783  0.00  0.00     0.057 A 
ATOM      7  C   UNL d   1     -49.744  13.510  21.826  0.00  0.00    -0.020 A 
ATOM      8  C   UNL d   1     -50.469  13.571  21.589  0.00  0.00     0.027 A 
ATOM      9  C   UNL d   1     -48.874  12.325  21.410  0.00  0.00    -0.021 A 
ATOM     10  C   UNL d   1     -49.474  12.786  21.473  0.00  0.00    -0.008 A 
ATOM     11  C   UNL d   1     -48.382  12.649  21.801  0.00  0.00     0.011 C 
ATOM     12  C   UNL d   1     -50.896  14.151  21.793  0.00  0.00     0.005 C 
ATOM     13  C   UNL d   1     -51.046  13.296  21.197  0.00  0.00     0.005 C 
ENDROOT
BRANCH   4  14
ATOM     14  C   UNL d   1     -47.222  13.410  22.722  0.00  0.00     0.083 A 
ATOM     15  C   UNL d   1     -47.079  12.833  23.329  0.00  0.00     0.019 A 
ATOM     16  C   UNL d   1     -46.313  12.497  23.403  0.00  0.00     0.002 A 
ATOM     17  C   UNL d   1     -45.695  12.726  22.882  0.00  0.00     0.000 A 
ATOM     18  C   UNL d   1     -45.844  13.304  22.275  0.00  0.00     0.002 A 
ATOM     19  C   UNL d   1     -46.610  13.638  22.205  0.00  0.00     0.019 A 
ENDBRANCH   4  14
BRANCH   3  20
ATOM     20  C   UNL d   1     -49.508  15.224  22.997  0.00  0.00     0.231 C 
ATOM     21  O   UNL d   1     -49.981  15.188  23.698  0.00  0.00    -0.643 OA
ATOM     22  O   UNL d   1     -49.518  15.922  22.518  0.00  0.00    -0.643 OA
ENDBRANCH   3  20
TORSDOF 2
ENDMDL
MODEL 3
REMARK VINA RESULT:      -9.0      1.335      1.996
REMARK  2 active torsions:
REMARK  status: ('A' for Active; 'I' for Inactive)
REMARK    1  A    between atoms: C_9  and  C_3 
REMARK    2  A    between atoms: C_12  and  N_4 
ROOT
ATOM      1  C   UNL d   1     -47.808  13.002  22.876  0.00  0.00     0.035 A 
ATOM      2  C   UNL d   1     -48.186  13.734  22.907  0.00  0.00     0.065 A 
ATOM      3  C   UNL d   1     -48.384  12.419  22.853  0.00  0.00     0.166 A 
ATOM      4  N   UNL d   1     -48.997  13.596  22.904  0.00  0.00    -0.233 N 
ATOM      5  N   UNL d   1     -49.118  12.785  22.870  0.00  0.00    -0.159 NA
ATOM      6  C   UNL d   1     -47.526  14.054  22.919  0.00  0.00     0.057 A 
ATOM      7  C   UNL d   1     -47.067  13.316  22.887  0.00  0.00    -0.020 A 
ATOM      8  C   UNL d   1     -46.358  13.032  22.874  0.00  0.00     0.027 A 
ATOM      9  C   UNL d   1     -47.315  14.822  22.951  0.00  0.00    -0.021 A 
ATOM     10  C   UNL d   1     -46.951  14.158  22.922  0.00  0.00    -0.008 A 
ATOM     11  C   UNL d   1     -47.996  14.633  22.944  0.00  0.00     0.011 C 
ATOM     12  C   UNL d   1     -46.235  12.295  22.843  0.00  0.00     0.005 C 
ATOM     13  C   UNL d   1     -45.616  13.146  22.877  0.00  0.00     0.005 C 
ENDROOT
BRANCH   4  14
ATOM     14  C   UNL d   1     -49.600  14.187  22.930  0.00  0.00     0.083 A 
ATOM     15  C   UNL d   1     -49.945  14.466  22.205  0.00  0.00     0.019 A 
ATOM     16  C   UNL d   1     -50.544  15.054  22.235  0.00  0.00     0.002 A 
ATOM     17  C   UNL d   1     -50.800  15.363  22.973  0.00  0.00     0.000 A 
ATOM     18  C   UNL d   1     -50.451  15.081  23.697  0.00  0.00     0.002 A 
ATOM     19  C   UNL d   1     -49.853  14.494  23.662  0.00  0.00     0.019 A 
ENDBRANCH   4  14
BRANCH   3  20
ATOM     20  C   UNL d   1     -48.244  11.591  22.818  0.00  0.00     0.231 C 
ATOM     21  O   UNL d   1     -48.169  11.196  22.073  0.00  0.00    -0.643 OA
ATOM     22  O   UNL d   1     -48.177  11.149  23.538  0.00  0.00    -0.643 OA
ENDBRANCH   3  20
TORSDOF 2
ENDMDL
MODEL 4
REMARK VINA RESULT:      -8.7      1.842      3.716
REMARK  2 active torsions:
REMARK  status: ('A' for Active; 'I' for Inactive)
REMARK    1  A    between atoms: C_9  and  C_3 
REMARK    2  A    between atoms: C_12  and  N_4 
ROOT
ATOM      1  C   UNL d   1     -49.408  13.522  22.775  0.00  0.00     0.035 A 
ATOM      2  C   UNL d   1     -48.648  13.834  22.705  0.00  0.00     0.065 A 
ATOM      3  C   UNL d   1     -49.342  12.709  22.847  0.00  0.00     0.166 A 
ATOM      4  N   UNL d   1     -48.116  13.208  22.734  0.00  0.00    -0.233 N 
ATOM      5  N   UNL d   1     -48.546  12.513  22.821  0.00  0.00    -0.159 NA
ATOM      6  C   UNL d   1     -48.947  14.504  22.660  0.00  0.00     0.057 A 
ATOM      7  C   UNL d   1     -49.772  14.238  22.729  0.00  0.00    -0.020 A 
ATOM      8  C   UNL d   1     -50.497  14.480  22.747  0.00  0.00     0.027 A 
ATOM      9  C   UNL d   1     -48.614  15.223  22.575  0.00  0.00    -0.021 A 
ATOM     10  C   UNL d   1     -49.320  14.953  22.639  0.00  0.00    -0.008 A 
ATOM     11  C   UNL d   1     -48.216  14.641  22.607  0.00  0.00     0.011 C 
ATOM     12  C   UNL d   1     -51.064  13.999  22.822  0.00  0.00     0.005 C 
ATOM     13  C   UNL d   1     -50.991  15.045  22.722  0.00  0.00     0.005 C 
ENDROOT
BRANCH   4  14
ATOM     14  C   UNL d   1     -47.276  13.268  22.682  0.00  0.00     0.083 A 
ATOM     15  C   UNL d   1     -46.899  13.229  21.921  0.00  0.00     0.019 A 
ATOM     16  C   UNL d   1     -46.063  13.290  21.875  0.00  0.00     0.002 A 
ATOM     17  C   UNL d   1     -45.603  13.388  22.570  0.00  0.00     0.000 A 
ATOM     18  C   UNL d   1     -45.985  13.427  23.331  0.00  0.00     0.002 A 
ATOM     19  C   UNL d   1     -46.821  13.366  23.374  0.00  0.00     0.019 A 
ENDBRANCH   4  14
BRANCH   3  20
ATOM     20  C   UNL d   1     -49.982  12.170  22.931  0.00  0.00     0.231 C 
ATOM     21  O   UNL d   1     -50.280  11.970  23.698  0.00  0.00    -0.643 OA
ATOM     22  O   UNL d   1     -50.329  11.825  22.241  0.00  0.00    -0.643 OA
ENDBRANCH   3  20
TORSDOF 2
ENDMDL
MODEL 5
REMARK VINA RESULT:      -7.3      1.220      2.176
REMARK  2 active torsions:
REMARK  status: ('A' for Active; 'I' for Inactive)
REMARK    1  A    between atoms: C_9  and  C_3 
REMARK    2  A    between atoms: C_12  and  N_4 
ROOT
ATOM      1  C   UNL d   1     -47.262  13.223  22.788  0.00  0.00     0.035 A 
ATOM      2  C   UNL d   1     -47.992  13.606  22.772  0.00  0.00     0.065 A 
ATOM      3  C   UNL d   1     -47.398  12.423  22.896  0.00  0.00     0.166 A 
ATOM      4  N   UNL d   1     -48.576  13.036  22.872  0.00  0.00    -0.233 N 
ATOM      5  N   UNL d   1     -48.208  12.306  22.948  0.00  0.00    -0.159 NA
ATOM      6  C   UNL d   1     -47.636  14.241  22.675  0.00  0.00     0.057 A 
ATOM      7  C   UNL d   1     -46.837  13.898  22.682  0.00  0.00    -0.020 A 
ATOM      8  C   UNL d   1     -46.094  14.069  22.626  0.00  0.00     0.027 A 
ATOM      9  C   UNL d   1     -47.905  14.987  22.591  0.00  0.00    -0.021 A 
ATOM     10  C   UNL d   1     -47.225  14.651  22.603  0.00  0.00    -0.008 A 
ATOM     11  C   UNL d   1     -48.353  14.448  22.681  0.00  0.00     0.011 C 
ATOM     12  C   UNL d   1     -45.570  13.536  22.670  0.00  0.00     0.005 C 
ATOM     13  C   UNL d   1     -45.553  14.581  22.536  0.00  0.00     0.005 C 
ENDROOT
BRANCH   4  14
ATOM     14  C   UNL d   1     -49.408  13.177  22.892  0.00  0.00     0.083 A 
ATOM     15  C   UNL d   1     -49.809  13.217  23.640  0.00  0.00     0.019 A 
ATOM     16  C   UNL d   1     -50.636  13.357  23.656  0.00  0.00     0.002 A 
ATOM     17  C   UNL d   1     -51.064  13.458  22.941  0.00  0.00     0.000 A 
ATOM     18  C   UNL d   1     -50.659  13.418  22.193  0.00  0.00     0.002 A 
ATOM     19  C   UNL d   1     -49.832  13.277  22.181  0.00  0.00     0.019 A 
ENDBRANCH   4  14
BRANCH   3  20
ATOM     20  C   UNL d   1     -46.807  11.826  22.946  0.00  0.00     0.231 C 
ATOM     21  O   UNL d   1     -46.550  11.414  22.253  0.00  0.00    -0.643 OA
ATOM     22  O   UNL d   1     -46.467  11.638  23.698  0.00  0.00    -0.643 OA
ENDBRANCH   3  20
TORSDOF 2
ENDMDL
MODEL 6
REMARK VINA RESULT:      -7.3      8.097      9.796
REMARK  2 active torsions:
REMARK  status: ('A' for Active; 'I' for Inactive)
REMARK    1  A    between atoms: C_9  and  C_3 
REMARK    2  A    between atoms: C_12  and  N_4 
ROOT
ATOM      1  C   UNL d   1     -39.748  14.579  17.836  0.00  0.00     0.035 A 
ATOM      2  C   UNL d   1     -39.663  14.534  18.655  0.00  0.00     0.065 A 
ATOM      3  C   UNL d   1     -40.358  15.101  17.673  0.00  0.00     0.166 A 
ATOM      4  N   UNL d   1     -40.225  15.031  18.993  0.00  0.00    -0.233 N 
ATOM      5  N   UNL d   1     -40.653  15.381  18.385  0.00  0.00    -0.159 NA
ATOM      6  C   UNL d   1     -39.114  14.056  18.553  0.00  0.00     0.057 A 
ATOM      7  C   UNL d   1     -39.152  14.060  17.685  0.00  0.00    -0.020 A 
ATOM      8  C   UNL d   1     -38.837  13.765  17.054  0.00  0.00     0.027 A 
ATOM      9  C   UNL d   1     -38.649  13.672  19.075  0.00  0.00    -0.021 A 
ATOM     10  C   UNL d   1     -38.713  13.702  18.319  0.00  0.00    -0.008 A 
ATOM     11  C   UNL d   1     -39.153  14.115  19.296  0.00  0.00     0.011 C 
ATOM     12  C   UNL d   1     -39.082  13.954  16.373  0.00  0.00     0.005 C 
ATOM     13  C   UNL d   1     -38.328  13.315  16.735  0.00  0.00     0.005 C 
ENDROOT
BRANCH   4  14
ATOM     14  C   UNL d   1     -40.340  15.159  19.819  0.00  0.00     0.083 A 
ATOM     15  C   UNL d   1     -39.934  15.798  20.205  0.00  0.00     0.019 A 
ATOM     16  C   UNL d   1     -40.051  15.922  21.027  0.00  0.00     0.002 A 
ATOM     17  C   UNL d   1     -40.564  15.421  21.464  0.00  0.00     0.000 A 
ATOM     18  C   UNL d   1     -40.969  14.782  21.073  0.00  0.00     0.002 A 
ATOM     19  C   UNL d   1     -40.849  14.661  20.251  0.00  0.00     0.019 A 
ENDBRANCH   4  14
BRANCH   3  20
ATOM     20  C   UNL d   1     -40.632  15.312  16.906  0.00  0.00     0.231 C 
ATOM     21  O   UNL d   1     -40.248  15.922  16.463  0.00  0.00    -0.643 OA
ATOM     22  O   UNL d   1     -41.300  14.908  16.578  0.00  0.00    -0.643 OA
ENDBRANCH   3  20
TORSDOF 2
ENDMDL
MODEL 7
REMARK VINA RESULT:      -7.2      1.268      1.776
REMARK  2 active torsions:
REMARK  status: ('A' for Active; 'I' for Inactive)
REMARK    1  A    between atoms: C_9  and  C_3 
REMARK    2  A    between atoms: C_12  and  N_4 
ROOT
ATOM      1  C   UNL d   1     -47.484  13.474  22.779  0.00  0.00     0.035 A 
ATOM      2  C   UNL d   1     -48.073  12.905  22.875  0.00  0.00     0.065 A 
ATOM      3  C   UNL d   1     -47.849  14.197  22.655  0.00  0.00     0.166 A 
ATOM      4  N   UNL d   1     -48.800  13.283  22.810  0.00  0.00    -0.233 N 
ATOM      5  N   UNL d   1     -48.661  14.081  22.674  0.00  0.00    -0.159 NA
ATOM      6  C   UNL d   1     -47.545  12.401  22.962  0.00  0.00     0.057 A 
ATOM      7  C   UNL d   1     -46.879  12.952  22.869  0.00  0.00    -0.020 A 
ATOM      8  C   UNL d   1     -46.116  12.999  22.862  0.00  0.00     0.027 A 
ATOM      9  C   UNL d   1     -47.585  11.616  23.096  0.00  0.00    -0.021 A 
ATOM     10  C   UNL d   1     -47.031  12.127  23.010  0.00  0.00    -0.008 A 
ATOM     11  C   UNL d   1     -48.172  12.003  23.029  0.00  0.00     0.011 C 
ATOM     12  C   UNL d   1     -45.769  13.653  22.751  0.00  0.00     0.005 C 
ATOM     13  C   UNL d   1     -45.447  12.665  22.920  0.00  0.00     0.005 C 
ENDROOT
BRANCH   4  14
ATOM     14  C   UNL d   1     -49.557  12.914  22.872  0.00  0.00     0.083 A 
ATOM     15  C   UNL d   1     -49.965  12.917  23.618  0.00  0.00     0.019 A 
ATOM     16  C   UNL d   1     -50.717  12.549  23.675  0.00  0.00     0.002 A 
ATOM     17  C   UNL d   1     -51.064  12.183  23.004  0.00  0.00     0.000 A 
ATOM     18  C   UNL d   1     -50.652  12.183  22.259  0.00  0.00     0.002 A 
ATOM     19  C   UNL d   1     -49.900  12.551  22.205  0.00  0.00     0.019 A 
ENDBRANCH   4  14
BRANCH   3  20
ATOM     20  C   UNL d   1     -47.457  14.931  22.530  0.00  0.00     0.231 C 
ATOM     21  O   UNL d   1     -47.246  15.181  21.750  0.00  0.00    -0.643 OA
ATOM     22  O   UNL d   1     -47.273  15.422  23.195  0.00  0.00    -0.643 OA
ENDBRANCH   3  20
TORSDOF 2
ENDMDL
