MODEL 1
REMARK VINA RESULT:      11.1      0.000      0.000
REMARK  6 active torsions:
REMARK  status: ('A' for Active; 'I' for Inactive)
REMARK    1  A    between atoms: S_12  and  C_5 
REMARK    2  A    between atoms: C_16  and  C_6 
REMARK    3  A    between atoms: C_10  and  C_14 
REMARK    4  A    between atoms: C_19  and  S_12 
REMARK    5  A    between atoms: C_13  and  C_19 
REMARK       I    between atoms: N_15  and  C_13 
REMARK    6  A    between atoms: C_22  and  N_15 
ROOT
ATOM      1  C   UNL d   1      30.418  16.864 -24.077  0.00  0.00     0.186 A 
ATOM      2  C   UNL d   1      30.856  17.570 -24.057  0.00  0.00     0.065 A 
ATOM      3  N   UNL d   1      29.632  16.857 -23.834  0.00  0.00    -0.203 NA
ATOM      4  N   UNL d   1      29.722  18.260 -23.553  0.00  0.00    -0.220 NA
ATOM      5  C   UNL d   1      30.501  18.257 -23.796  0.00  0.00     0.116 A 
ATOM      6  C   UNL d   1      29.280  17.556 -23.570  0.00  0.00     0.165 A 
ATOM      7  O   UNL d   1      30.773  16.162 -24.342  0.00  0.00    -0.289 OA
ATOM      8  C   UNL d   1      31.646  17.570 -24.303  0.00  0.00     0.007 A 
ATOM      9  C   UNL d   1      31.556  16.157 -24.586  0.00  0.00     0.102 A 
ATOM     10  C   UNL d   1      31.996  16.866 -24.567  0.00  0.00     0.023 A 
ATOM     11  C   UNL d   1      31.908  15.472 -24.847  0.00  0.00     0.025 A 
ATOM     12  C   UNL d   1      32.784  16.863 -24.813  0.00  0.00     0.002 A 
ATOM     13  C   UNL d   1      33.131  16.161 -25.075  0.00  0.00     0.000 A 
ATOM     14  C   UNL d   1      32.695  15.459 -25.094  0.00  0.00     0.002 A 
ENDROOT
BRANCH   5  15
ATOM     15  S   UNL d   1      30.946  18.959 -23.779  0.00  0.00    -0.062 SA
BRANCH  15  16
ATOM     16  C   UNL d   1      31.624  18.997 -23.307  0.00  0.00     0.099 C 
BRANCH  16  17
ATOM     17  C   UNL d   1      31.818  19.694 -22.918  0.00  0.00     0.286 C 
ATOM     18  N   UNL d   1      32.159  19.665 -22.173  0.00  0.00    -0.208 NA
ATOM     19  O   UNL d   1      31.671  20.422 -23.273  0.00  0.00    -0.265 OA
BRANCH  18  20
ATOM     20  C   UNL d   1      32.355  20.364 -21.781  0.00  0.00     0.085 A 
ATOM     21  C   UNL d   1      32.987  20.813 -22.044  0.00  0.00     0.019 A 
ATOM     22  C   UNL d   1      33.183  21.505 -21.659  0.00  0.00     0.008 A 
ATOM     23  C   UNL d   1      32.741  21.752 -21.000  0.00  0.00     0.065 A 
ATOM     24  C   UNL d   1      32.109  21.298 -20.740  0.00  0.00     0.008 A 
ATOM     25  C   UNL d   1      31.912  20.601 -21.129  0.00  0.00     0.019 A 
BRANCH  23  26
ATOM     26  C   UNL d   1      32.935  22.448 -20.608  0.00  0.00     0.211 C 
ATOM     27  O   UNL d   1      33.234  22.411 -19.841  0.00  0.00    -0.644 OA
ATOM     28  O   UNL d   1      32.832  23.177 -20.975  0.00  0.00    -0.644 OA
ENDBRANCH  23  26
ENDBRANCH  18  20
ENDBRANCH  16  17
ENDBRANCH  15  16
ENDBRANCH   5  15
BRANCH   6  29
ATOM     29  C   UNL d   1      28.494  17.549 -23.327  0.00  0.00     0.036 A 
ATOM     30  C   UNL d   1      28.092  16.826 -23.259  0.00  0.00     0.003 A 
ATOM     31  C   UNL d   1      27.304  16.813 -23.016  0.00  0.00     0.000 A 
ATOM     32  C   UNL d   1      26.915  17.521 -22.841  0.00  0.00     0.000 A 
ATOM     33  C   UNL d   1      27.311  18.245 -22.907  0.00  0.00     0.000 A 
ATOM     34  C   UNL d   1      28.106  18.254 -23.153  0.00  0.00     0.003 A 
ENDBRANCH   6  29
TORSDOF 6
ENDMDL
MODEL 2
REMARK VINA RESULT:      11.2      1.968      3.466
REMARK  6 active torsions:
REMARK  status: ('A' for Active; 'I' for Inactive)
REMARK    1  A    between atoms: S_12  and  C_5 
REMARK    2  A    between atoms: C_16  and  C_6 
REMARK    3  A    between atoms: C_10  and  C_14 
REMARK    4  A    between atoms: C_19  and  S_12 
REMARK    5  A    between atoms: C_13  and  C_19 
REMARK       I    between atoms: N_15  and  C_13 
REMARK    6  A    between atoms: C_22  and  N_15 
ROOT
ATOM      1  C   UNL d   1      31.340  18.922 -24.145  0.00  0.00     0.186 A 
ATOM      2  C   UNL d   1      31.696  18.641 -23.449  0.00  0.00     0.065 A 
ATOM      3  N   UNL d   1      31.547  19.657 -24.450  0.00  0.00    -0.203 NA
ATOM      4  N   UNL d   1      32.465  19.831 -23.362  0.00  0.00    -0.220 NA
ATOM      5  C   UNL d   1      32.253  19.100 -23.067  0.00  0.00     0.116 A 
ATOM      6  C   UNL d   1      32.112  20.116 -24.058  0.00  0.00     0.165 A 
ATOM      7  O   UNL d   1      30.773  18.460 -24.537  0.00  0.00    -0.289 OA
ATOM      8  C   UNL d   1      31.482  17.900 -23.148  0.00  0.00     0.007 A 
ATOM      9  C   UNL d   1      30.557  17.724 -24.243  0.00  0.00     0.102 A 
ATOM     10  C   UNL d   1      30.915  17.442 -23.543  0.00  0.00     0.023 A 
ATOM     11  C   UNL d   1      30.002  17.269 -24.624  0.00  0.00     0.025 A 
ATOM     12  C   UNL d   1      30.700  16.703 -23.245  0.00  0.00     0.002 A 
ATOM     13  C   UNL d   1      30.135  16.249 -23.641  0.00  0.00     0.000 A 
ATOM     14  C   UNL d   1      29.781  16.528 -24.334  0.00  0.00     0.002 A 
ENDROOT
BRANCH   5  15
ATOM     15  S   UNL d   1      32.604  18.813 -22.371  0.00  0.00    -0.062 SA
BRANCH  15  16
ATOM     16  C   UNL d   1      33.240  19.226 -22.039  0.00  0.00     0.099 C 
BRANCH  16  17
ATOM     17  C   UNL d   1      33.114  19.741 -21.412  0.00  0.00     0.286 C 
ATOM     18  N   UNL d   1      33.204  20.549 -21.524  0.00  0.00    -0.208 NA
ATOM     19  O   UNL d   1      32.900  19.452 -20.673  0.00  0.00    -0.265 OA
BRANCH  18  20
ATOM     20  C   UNL d   1      33.078  21.069 -20.896  0.00  0.00     0.085 A 
ATOM     21  C   UNL d   1      32.796  21.823 -21.044  0.00  0.00     0.019 A 
ATOM     22  C   UNL d   1      32.670  22.340 -20.425  0.00  0.00     0.008 A 
ATOM     23  C   UNL d   1      32.830  22.100 -19.646  0.00  0.00     0.065 A 
ATOM     24  C   UNL d   1      33.113  21.343 -19.503  0.00  0.00     0.008 A 
ATOM     25  C   UNL d   1      33.239  20.823 -20.127  0.00  0.00     0.019 A 
BRANCH  23  26
ATOM     26  C   UNL d   1      32.706  22.616 -19.019  0.00  0.00     0.211 C 
ATOM     27  O   UNL d   1      32.099  23.172 -19.066  0.00  0.00    -0.644 OA
ATOM     28  O   UNL d   1      33.181  22.581 -18.347  0.00  0.00    -0.644 OA
ENDBRANCH  23  26
ENDBRANCH  18  20
ENDBRANCH  16  17
ENDBRANCH  15  16
ENDBRANCH   5  15
BRANCH   6  29
ATOM     29  C   UNL d   1      32.319  20.852 -24.363  0.00  0.00     0.036 A 
ATOM     30  C   UNL d   1      33.028  20.936 -24.787  0.00  0.00     0.003 A 
ATOM     31  C   UNL d   1      33.240  21.671 -25.094  0.00  0.00     0.000 A 
ATOM     32  C   UNL d   1      32.746  22.324 -24.979  0.00  0.00     0.000 A 
ATOM     33  C   UNL d   1      32.039  22.245 -24.557  0.00  0.00     0.000 A 
ATOM     34  C   UNL d   1      31.828  21.502 -24.249  0.00  0.00     0.003 A 
ENDBRANCH   6  29
TORSDOF 6
ENDMDL
MODEL 3
REMARK VINA RESULT:      11.8      2.246      6.125
REMARK  6 active torsions:
REMARK  status: ('A' for Active; 'I' for Inactive)
REMARK    1  A    between atoms: S_12  and  C_5 
REMARK    2  A    between atoms: C_16  and  C_6 
REMARK    3  A    between atoms: C_10  and  C_14 
REMARK    4  A    between atoms: C_19  and  S_12 
REMARK    5  A    between atoms: C_13  and  C_19 
REMARK       I    between atoms: N_15  and  C_13 
REMARK    6  A    between atoms: C_22  and  N_15 
ROOT
ATOM      1  C   UNL d   1      32.733  22.206 -21.030  0.00  0.00     0.186 A 
ATOM      2  C   UNL d   1      32.862  21.410 -21.228  0.00  0.00     0.065 A 
ATOM      3  N   UNL d   1      32.622  22.427 -20.246  0.00  0.00    -0.203 NA
ATOM      4  N   UNL d   1      32.769  21.055 -19.856  0.00  0.00    -0.220 NA
ATOM      5  C   UNL d   1      32.878  20.846 -20.638  0.00  0.00     0.116 A 
ATOM      6  C   UNL d   1      32.640  21.850 -19.654  0.00  0.00     0.165 A 
ATOM      7  O   UNL d   1      32.715  22.784 -21.626  0.00  0.00    -0.289 OA
ATOM      8  C   UNL d   1      32.973  21.195 -22.020  0.00  0.00     0.007 A 
ATOM      9  C   UNL d   1      32.824  22.576 -22.413  0.00  0.00     0.102 A 
ATOM     10  C   UNL d   1      32.954  21.776 -22.611  0.00  0.00     0.023 A 
ATOM     11  C   UNL d   1      32.808  23.139 -22.999  0.00  0.00     0.025 A 
ATOM     12  C   UNL d   1      33.064  21.565 -23.401  0.00  0.00     0.002 A 
ATOM     13  C   UNL d   1      33.045  22.145 -23.989  0.00  0.00     0.000 A 
ATOM     14  C   UNL d   1      32.917  22.938 -23.792  0.00  0.00     0.002 A 
ENDROOT
BRANCH   5  15
ATOM     15  S   UNL d   1      33.008  20.051 -20.843  0.00  0.00    -0.062 SA
BRANCH  15  16
ATOM     16  C   UNL d   1      32.365  19.583 -21.072  0.00  0.00     0.099 C 
BRANCH  16  17
ATOM     17  C   UNL d   1      32.454  19.021 -21.664  0.00  0.00     0.286 C 
ATOM     18  N   UNL d   1      32.124  19.152 -22.404  0.00  0.00    -0.208 NA
ATOM     19  O   UNL d   1      32.872  18.327 -21.520  0.00  0.00    -0.265 OA
BRANCH  18  20
ATOM     20  C   UNL d   1      32.212  18.589 -23.000  0.00  0.00     0.085 A 
ATOM     21  C   UNL d   1      32.955  18.288 -23.167  0.00  0.00     0.019 A 
ATOM     22  C   UNL d   1      33.046  17.730 -23.757  0.00  0.00     0.008 A 
ATOM     23  C   UNL d   1      32.384  17.471 -24.187  0.00  0.00     0.065 A 
ATOM     24  C   UNL d   1      31.642  17.776 -24.016  0.00  0.00     0.008 A 
ATOM     25  C   UNL d   1      31.551  18.338 -23.422  0.00  0.00     0.019 A 
BRANCH  23  26
ATOM     26  C   UNL d   1      32.470  16.911 -24.781  0.00  0.00     0.211 C 
ATOM     27  O   UNL d   1      33.220  16.755 -25.086  0.00  0.00    -0.644 OA
ATOM     28  O   UNL d   1      31.815  16.506 -25.072  0.00  0.00    -0.644 OA
ENDBRANCH  23  26
ENDBRANCH  18  20
ENDBRANCH  16  17
ENDBRANCH  15  16
ENDBRANCH   5  15
BRANCH   6  29
ATOM     29  C   UNL d   1      32.529  22.071 -18.869  0.00  0.00     0.036 A 
ATOM     30  C   UNL d   1      31.782  22.330 -18.616  0.00  0.00     0.003 A 
ATOM     31  C   UNL d   1      31.666  22.551 -17.831  0.00  0.00     0.000 A 
ATOM     32  C   UNL d   1      32.294  22.516 -17.295  0.00  0.00     0.000 A 
ATOM     33  C   UNL d   1      33.041  22.259 -17.542  0.00  0.00     0.000 A 
ATOM     34  C   UNL d   1      33.154  22.035 -18.335  0.00  0.00     0.003 A 
ENDBRANCH   6  29
TORSDOF 6
ENDMDL
MODEL 4
REMARK VINA RESULT:      12.6      2.134      5.950
REMARK  6 active torsions:
REMARK  status: ('A' for Active; 'I' for Inactive)
REMARK    1  A    between atoms: S_12  and  C_5 
REMARK    2  A    between atoms: C_16  and  C_6 
REMARK    3  A    between atoms: C_10  and  C_14 
REMARK    4  A    between atoms: C_19  and  S_12 
REMARK    5  A    between atoms: C_13  and  C_19 
REMARK       I    between atoms: N_15  and  C_13 
REMARK    6  A    between atoms: C_22  and  N_15 
ROOT
ATOM      1  C   UNL d   1      32.068  22.474 -22.096  0.00  0.00     0.186 A 
ATOM      2  C   UNL d   1      32.463  21.837 -22.454  0.00  0.00     0.065 A 
ATOM      3  N   UNL d   1      31.992  22.509 -21.278  0.00  0.00    -0.203 NA
ATOM      4  N   UNL d   1      32.705  21.269 -21.175  0.00  0.00    -0.220 NA
ATOM      5  C   UNL d   1      32.775  21.244 -21.988  0.00  0.00     0.116 A 
ATOM      6  C   UNL d   1      32.311  21.905 -20.813  0.00  0.00     0.165 A 
ATOM      7  O   UNL d   1      31.748  23.080 -22.565  0.00  0.00    -0.289 OA
ATOM      8  C   UNL d   1      32.536  21.809 -23.278  0.00  0.00     0.007 A 
ATOM      9  C   UNL d   1      31.818  23.057 -23.382  0.00  0.00     0.102 A 
ATOM     10  C   UNL d   1      32.215  22.416 -23.742  0.00  0.00     0.023 A 
ATOM     11  C   UNL d   1      31.506  23.649 -23.845  0.00  0.00     0.025 A 
ATOM     12  C   UNL d   1      32.286  22.391 -24.564  0.00  0.00     0.002 A 
ATOM     13  C   UNL d   1      31.965  22.998 -25.023  0.00  0.00     0.000 A 
ATOM     14  C   UNL d   1      31.572  23.632 -24.667  0.00  0.00     0.002 A 
ENDROOT
BRANCH   5  15
ATOM     15  S   UNL d   1      33.169  20.609 -22.353  0.00  0.00    -0.062 SA
BRANCH  15  16
ATOM     16  C   UNL d   1      33.089  19.849 -22.037  0.00  0.00     0.099 C 
BRANCH  16  17
ATOM     17  C   UNL d   1      32.697  19.264 -22.461  0.00  0.00     0.286 C 
ATOM     18  N   UNL d   1      32.572  18.528 -22.122  0.00  0.00    -0.208 NA
ATOM     19  O   UNL d   1      32.428  19.414 -23.224  0.00  0.00    -0.265 OA
BRANCH  18  20
ATOM     20  C   UNL d   1      32.179  17.940 -22.546  0.00  0.00     0.085 A 
ATOM     21  C   UNL d   1      32.558  17.232 -22.704  0.00  0.00     0.019 A 
ATOM     22  C   UNL d   1      32.172  16.647 -23.124  0.00  0.00     0.008 A 
ATOM     23  C   UNL d   1      31.395  16.773 -23.388  0.00  0.00     0.065 A 
ATOM     24  C   UNL d   1      31.019  17.484 -23.227  0.00  0.00     0.008 A 
ATOM     25  C   UNL d   1      31.409  18.072 -22.805  0.00  0.00     0.019 A 
BRANCH  23  26
ATOM     26  C   UNL d   1      31.001  16.188 -23.811  0.00  0.00     0.211 C 
ATOM     27  O   UNL d   1      31.432  15.680 -24.296  0.00  0.00    -0.644 OA
ATOM     28  O   UNL d   1      30.184  16.108 -23.752  0.00  0.00    -0.644 OA
ENDBRANCH  23  26
ENDBRANCH  18  20
ENDBRANCH  16  17
ENDBRANCH  15  16
ENDBRANCH   5  15
BRANCH   6  29
ATOM     29  C   UNL d   1      32.235  21.939 -19.995  0.00  0.00     0.036 A 
ATOM     30  C   UNL d   1      32.781  22.377 -19.549  0.00  0.00     0.003 A 
ATOM     31  C   UNL d   1      32.709  22.415 -18.729  0.00  0.00     0.000 A 
ATOM     32  C   UNL d   1      32.092  22.016 -18.350  0.00  0.00     0.000 A 
ATOM     33  C   UNL d   1      31.544  21.577 -18.790  0.00  0.00     0.000 A 
ATOM     34  C   UNL d   1      31.620  21.542 -19.618  0.00  0.00     0.003 A 
ENDBRANCH   6  29
TORSDOF 6
ENDMDL
MODEL 5
REMARK VINA RESULT:      13.6      1.820      5.512
REMARK  6 active torsions:
REMARK  status: ('A' for Active; 'I' for Inactive)
REMARK    1  A    between atoms: S_12  and  C_5 
REMARK    2  A    between atoms: C_16  and  C_6 
REMARK    3  A    between atoms: C_10  and  C_14 
REMARK    4  A    between atoms: C_19  and  S_12 
REMARK    5  A    between atoms: C_13  and  C_19 
REMARK       I    between atoms: N_15  and  C_13 
REMARK    6  A    between atoms: C_22  and  N_15 
ROOT
ATOM      1  C   UNL d   1      32.951  19.544 -21.881  0.00  0.00     0.186 A 
ATOM      2  C   UNL d   1      32.920  19.806 -22.669  0.00  0.00     0.065 A 
ATOM      3  N   UNL d   1      33.014  18.741 -21.714  0.00  0.00    -0.203 NA
ATOM      4  N   UNL d   1      33.016  18.464 -23.121  0.00  0.00    -0.220 NA
ATOM      5  C   UNL d   1      32.953  19.262 -23.277  0.00  0.00     0.116 A 
ATOM      6  C   UNL d   1      33.048  18.196 -22.334  0.00  0.00     0.165 A 
ATOM      7  O   UNL d   1      32.917  20.093 -21.259  0.00  0.00    -0.289 OA
ATOM      8  C   UNL d   1      32.856  20.616 -22.830  0.00  0.00     0.007 A 
ATOM      9  C   UNL d   1      32.854  20.896 -21.414  0.00  0.00     0.102 A 
ATOM     10  C   UNL d   1      32.823  21.160 -22.206  0.00  0.00     0.023 A 
ATOM     11  C   UNL d   1      32.821  21.436 -20.808  0.00  0.00     0.025 A 
ATOM     12  C   UNL d   1      32.759  21.968 -22.363  0.00  0.00     0.002 A 
ATOM     13  C   UNL d   1      32.726  22.507 -21.739  0.00  0.00     0.000 A 
ATOM     14  C   UNL d   1      32.757  22.246 -20.955  0.00  0.00     0.002 A 
ENDROOT
BRANCH   5  15
ATOM     15  S   UNL d   1      32.922  19.533 -24.062  0.00  0.00    -0.062 SA
BRANCH  15  16
ATOM     16  C   UNL d   1      32.745  18.997 -24.667  0.00  0.00     0.099 C 
BRANCH  16  17
ATOM     17  C   UNL d   1      31.977  18.722 -24.763  0.00  0.00     0.286 C 
ATOM     18  N   UNL d   1      31.800  17.938 -24.599  0.00  0.00    -0.208 NA
ATOM     19  O   UNL d   1      31.384  19.229 -25.024  0.00  0.00    -0.265 OA
BRANCH  18  20
ATOM     20  C   UNL d   1      31.029  17.660 -24.695  0.00  0.00     0.085 A 
ATOM     21  C   UNL d   1      30.397  18.141 -24.497  0.00  0.00     0.019 A 
ATOM     22  C   UNL d   1      29.633  17.870 -24.590  0.00  0.00     0.008 A 
ATOM     23  C   UNL d   1      29.499  17.105 -24.887  0.00  0.00     0.065 A 
ATOM     24  C   UNL d   1      30.136  16.627 -25.083  0.00  0.00     0.008 A 
ATOM     25  C   UNL d   1      30.905  16.901 -24.989  0.00  0.00     0.019 A 
BRANCH  23  26
ATOM     26  C   UNL d   1      28.732  16.826 -24.983  0.00  0.00     0.211 C 
ATOM     27  O   UNL d   1      28.605  16.018 -25.086  0.00  0.00    -0.644 OA
ATOM     28  O   UNL d   1      28.094  17.346 -24.977  0.00  0.00    -0.644 OA
ENDBRANCH  23  26
ENDBRANCH  18  20
ENDBRANCH  16  17
ENDBRANCH  15  16
ENDBRANCH   5  15
BRANCH   6  29
ATOM     29  C   UNL d   1      33.111  17.394 -22.167  0.00  0.00     0.036 A 
ATOM     30  C   UNL d   1      33.124  16.843 -22.788  0.00  0.00     0.003 A 
ATOM     31  C   UNL d   1      33.188  16.038 -22.626  0.00  0.00     0.000 A 
ATOM     32  C   UNL d   1      33.239  15.778 -21.842  0.00  0.00     0.000 A 
ATOM     33  C   UNL d   1      33.226  16.323 -21.218  0.00  0.00     0.000 A 
ATOM     34  C   UNL d   1      33.161  17.135 -21.387  0.00  0.00     0.003 A 
ENDBRANCH   6  29
TORSDOF 6
ENDMDL
