MODEL 1
REMARK VINA RESULT:     107.1      0.000      0.000
REMARK  6 active torsions:
REMARK  status: ('A' for Active; 'I' for Inactive)
REMARK    1  A    between atoms: C_10  and  N_2 
REMARK    2  A    between atoms: C_11  and  N_5 
REMARK    3  A    between atoms: C_21  and  C_10 
REMARK    4  A    between atoms: C_12  and  C_11 
REMARK       I    between atoms: N_16  and  C_12 
REMARK    5  A    between atoms: C_15  and  C_17 
REMARK    6  A    between atoms: C_17  and  N_16 
ROOT
ATOM      1  C   UNL d   1     -51.519  26.297  35.637  0.00  0.00     0.102 A 
ATOM      2  N   UNL d   1     -51.192  26.027  34.282  0.00  0.00    -0.225 N 
ATOM      3  C   UNL d   1     -50.445  26.360  34.391  0.00  0.00     0.342 A 
ATOM      4  C   UNL d   1     -50.765  26.632  35.747  0.00  0.00     0.080 A 
ATOM      5  N   UNL d   1     -50.234  26.662  35.127  0.00  0.00    -0.253 N 
ATOM      6  C   UNL d   1     -51.736  25.994  34.908  0.00  0.00     0.276 A 
ATOM      7  S   UNL d   1     -51.924  26.349  36.364  0.00  0.00    -0.081 SA
ATOM      8  C   UNL d   1     -50.713  26.886  36.536  0.00  0.00     0.023 A 
ATOM      9  C   UNL d   1     -51.429  26.711  36.916  0.00  0.00     0.031 A 
ATOM     10  O   UNL d   1     -49.913  26.389  33.767  0.00  0.00    -0.245 OA
ATOM     11  O   UNL d   1     -52.473  25.664  34.792  0.00  0.00    -0.266 OA
ATOM     12  C   UNL d   1     -50.104  27.253  36.950  0.00  0.00     0.002 A 
ATOM     13  C   UNL d   1     -51.533  26.902  37.704  0.00  0.00     0.006 A 
ATOM     14  C   UNL d   1     -50.206  27.447  37.746  0.00  0.00     0.000 A 
ATOM     15  C   UNL d   1     -50.923  27.272  38.126  0.00  0.00     0.001 A 
ENDROOT
BRANCH   5  16
ATOM     16  C   UNL d   1     -49.488  26.994  35.237  0.00  0.00     0.147 C 
BRANCH  16  17
ATOM     17  C   UNL d   1     -49.259  27.655  34.790  0.00  0.00     0.297 C 
ATOM     18  N   UNL d   1     -48.781  28.227  35.129  0.00  0.00    -0.205 NA
ATOM     19  O   UNL d   1     -49.512  27.733  34.013  0.00  0.00    -0.264 OA
BRANCH  18  20
ATOM     20  C   UNL d   1     -48.553  28.888  34.679  0.00  0.00     0.103 C 
BRANCH  20  21
ATOM     21  C   UNL d   1     -48.062  29.467  35.024  0.00  0.00     0.030 A 
ATOM     22  C   UNL d   1     -48.172  30.266  34.847  0.00  0.00     0.059 A 
ATOM     23 CL   UNL d   1     -48.773  30.496  34.323  0.00  0.00    -0.082 Cl
ATOM     24  C   UNL d   1     -47.679  30.829  35.194  0.00  0.00     0.011 A 
ATOM     25  C   UNL d   1     -47.081  30.598  35.715  0.00  0.00     0.001 A 
ATOM     26  C   UNL d   1     -46.978  29.797  35.886  0.00  0.00     0.000 A 
ATOM     27  C   UNL d   1     -47.463  29.227  35.546  0.00  0.00     0.002 A 
ENDBRANCH  20  21
ENDBRANCH  18  20
ENDBRANCH  16  17
ENDBRANCH   5  16
BRANCH   2  28
ATOM     28  C   UNL d   1     -51.404  25.723  33.540  0.00  0.00     0.087 C 
BRANCH  28  29
ATOM     29  C   UNL d   1     -51.588  24.922  33.462  0.00  0.00     0.018 A 
ATOM     30  C   UNL d   1     -52.379  24.703  33.384  0.00  0.00     0.002 A 
ATOM     31  C   UNL d   1     -52.566  23.895  33.306  0.00  0.00     0.000 A 
ATOM     32  C   UNL d   1     -51.960  23.327  33.307  0.00  0.00     0.000 A 
ATOM     33  C   UNL d   1     -51.182  23.567  33.386  0.00  0.00     0.000 A 
ATOM     34  C   UNL d   1     -50.994  24.366  33.464  0.00  0.00     0.002 A 
ENDBRANCH  28  29
ENDBRANCH   2  28
TORSDOF 6
ENDMDL
MODEL 2
REMARK VINA RESULT:     109.5      2.266      3.688
REMARK  6 active torsions:
REMARK  status: ('A' for Active; 'I' for Inactive)
REMARK    1  A    between atoms: C_10  and  N_2 
REMARK    2  A    between atoms: C_11  and  N_5 
REMARK    3  A    between atoms: C_21  and  C_10 
REMARK    4  A    between atoms: C_12  and  C_11 
REMARK       I    between atoms: N_16  and  C_12 
REMARK    5  A    between atoms: C_15  and  C_17 
REMARK    6  A    between atoms: C_17  and  N_16 
ROOT
ATOM      1  C   UNL d   1     -50.678  24.485  33.314  0.00  0.00     0.102 A 
ATOM      2  N   UNL d   1     -51.928  25.157  33.318  0.00  0.00    -0.225 N 
ATOM      3  C   UNL d   1     -51.542  25.887  33.319  0.00  0.00     0.342 A 
ATOM      4  C   UNL d   1     -50.288  25.221  33.316  0.00  0.00     0.080 A 
ATOM      5  N   UNL d   1     -50.719  25.914  33.318  0.00  0.00    -0.253 N 
ATOM      6  C   UNL d   1     -51.496  24.450  33.315  0.00  0.00     0.276 A 
ATOM      7  S   UNL d   1     -50.092  23.892  33.312  0.00  0.00    -0.081 SA
ATOM      8  C   UNL d   1     -49.470  25.075  33.314  0.00  0.00     0.023 A 
ATOM      9  C   UNL d   1     -49.351  24.254  33.312  0.00  0.00     0.031 A 
ATOM     10  O   UNL d   1     -51.977  26.582  33.322  0.00  0.00    -0.245 OA
ATOM     11  O   UNL d   1     -51.886  23.733  33.314  0.00  0.00    -0.266 OA
ATOM     12  C   UNL d   1     -48.827  25.586  33.315  0.00  0.00     0.002 A 
ATOM     13  C   UNL d   1     -48.591  23.950  33.310  0.00  0.00     0.006 A 
ATOM     14  C   UNL d   1     -48.058  25.282  33.313  0.00  0.00     0.000 A 
ATOM     15  C   UNL d   1     -47.939  24.461  33.310  0.00  0.00     0.001 A 
ENDROOT
BRANCH   5  16
ATOM     16  C   UNL d   1     -50.333  26.642  33.319  0.00  0.00     0.147 C 
BRANCH  16  17
ATOM     17  C   UNL d   1     -50.287  27.086  34.019  0.00  0.00     0.297 C 
ATOM     18  N   UNL d   1     -50.454  26.730  34.737  0.00  0.00    -0.205 NA
ATOM     19  O   UNL d   1     -50.077  27.879  33.989  0.00  0.00    -0.264 OA
BRANCH  18  20
ATOM     20  C   UNL d   1     -50.407  27.177  35.435  0.00  0.00     0.103 C 
BRANCH  20  21
ATOM     21  C   UNL d   1     -50.783  26.898  36.126  0.00  0.00     0.030 A 
ATOM     22  C   UNL d   1     -50.336  26.648  36.772  0.00  0.00     0.059 A 
ATOM     23 CL   UNL d   1     -49.507  26.674  36.739  0.00  0.00    -0.082 Cl
ATOM     24  C   UNL d   1     -50.719  26.374  37.449  0.00  0.00     0.011 A 
ATOM     25  C   UNL d   1     -51.545  26.348  37.481  0.00  0.00     0.001 A 
ATOM     26  C   UNL d   1     -51.984  26.600  36.830  0.00  0.00     0.000 A 
ATOM     27  C   UNL d   1     -51.612  26.875  36.150  0.00  0.00     0.002 A 
ENDBRANCH  20  21
ENDBRANCH  18  20
ENDBRANCH  16  17
ENDBRANCH   5  16
BRANCH   2  28
ATOM     28  C   UNL d   1     -52.757  25.129  33.319  0.00  0.00     0.087 C 
BRANCH  28  29
ATOM     29  C   UNL d   1     -53.147  24.529  33.729  0.00  0.00     0.018 A 
ATOM     30  C   UNL d   1     -53.424  24.683  34.490  0.00  0.00     0.002 A 
ATOM     31  C   UNL d   1     -53.817  24.077  34.905  0.00  0.00     0.000 A 
ATOM     32  C   UNL d   1     -53.925  23.335  34.551  0.00  0.00     0.000 A 
ATOM     33  C   UNL d   1     -53.643  23.203  33.794  0.00  0.00     0.000 A 
ATOM     34  C   UNL d   1     -53.253  23.800  33.381  0.00  0.00     0.002 A 
ENDBRANCH  28  29
ENDBRANCH   2  28
TORSDOF 6
ENDMDL
MODEL 3
REMARK VINA RESULT:     109.8      1.896      2.722
REMARK  6 active torsions:
REMARK  status: ('A' for Active; 'I' for Inactive)
REMARK    1  A    between atoms: C_10  and  N_2 
REMARK    2  A    between atoms: C_11  and  N_5 
REMARK    3  A    between atoms: C_21  and  C_10 
REMARK    4  A    between atoms: C_12  and  C_11 
REMARK       I    between atoms: N_16  and  C_12 
REMARK    5  A    between atoms: C_15  and  C_17 
REMARK    6  A    between atoms: C_17  and  N_16 
ROOT
ATOM      1  C   UNL d   1     -52.207  25.647  33.312  0.00  0.00     0.102 A 
ATOM      2  N   UNL d   1     -51.178  24.669  33.312  0.00  0.00    -0.225 N 
ATOM      3  C   UNL d   1     -50.605  25.263  33.310  0.00  0.00     0.342 A 
ATOM      4  C   UNL d   1     -51.629  26.247  33.310  0.00  0.00     0.080 A 
ATOM      5  N   UNL d   1     -50.836  26.054  33.309  0.00  0.00    -0.253 N 
ATOM      6  C   UNL d   1     -51.985  24.859  33.314  0.00  0.00     0.276 A 
ATOM      7  S   UNL d   1     -52.953  26.019  33.313  0.00  0.00    -0.081 SA
ATOM      8  C   UNL d   1     -52.022  26.979  33.309  0.00  0.00     0.023 A 
ATOM      9  C   UNL d   1     -52.840  26.836  33.311  0.00  0.00     0.031 A 
ATOM     10  O   UNL d   1     -49.809  25.066  33.309  0.00  0.00    -0.245 OA
ATOM     11  O   UNL d   1     -52.545  24.265  33.316  0.00  0.00    -0.266 OA
ATOM     12  C   UNL d   1     -51.737  27.749  33.307  0.00  0.00     0.002 A 
ATOM     13  C   UNL d   1     -53.365  27.464  33.311  0.00  0.00     0.006 A 
ATOM     14  C   UNL d   1     -52.265  28.385  33.307  0.00  0.00     0.000 A 
ATOM     15  C   UNL d   1     -53.082  28.242  33.309  0.00  0.00     0.001 A 
ENDROOT
BRANCH   5  16
ATOM     16  C   UNL d   1     -50.264  26.648  33.306  0.00  0.00     0.147 C 
BRANCH  16  17
ATOM     17  C   UNL d   1     -49.797  26.776  33.980  0.00  0.00     0.297 C 
ATOM     18  N   UNL d   1     -49.424  27.498  34.083  0.00  0.00    -0.205 NA
ATOM     19  O   UNL d   1     -49.712  26.182  34.540  0.00  0.00    -0.264 OA
BRANCH  18  20
ATOM     20  C   UNL d   1     -48.958  27.623  34.759  0.00  0.00     0.103 C 
BRANCH  20  21
ATOM     21  C   UNL d   1     -48.645  28.382  34.904  0.00  0.00     0.030 A 
ATOM     22  C   UNL d   1     -48.022  28.482  35.436  0.00  0.00     0.059 A 
ATOM     23 CL   UNL d   1     -47.703  27.825  35.830  0.00  0.00    -0.082 Cl
ATOM     24  C   UNL d   1     -47.721  29.239  35.571  0.00  0.00     0.011 A 
ATOM     25  C   UNL d   1     -48.041  29.892  35.178  0.00  0.00     0.001 A 
ATOM     26  C   UNL d   1     -48.663  29.783  34.648  0.00  0.00     0.000 A 
ATOM     27  C   UNL d   1     -48.970  29.034  34.506  0.00  0.00     0.002 A 
ENDBRANCH  20  21
ENDBRANCH  18  20
ENDBRANCH  16  17
ENDBRANCH   5  16
BRANCH   2  28
ATOM     28  C   UNL d   1     -50.946  23.872  33.314  0.00  0.00     0.087 C 
BRANCH  28  29
ATOM     29  C   UNL d   1     -50.262  23.644  33.714  0.00  0.00     0.018 A 
ATOM     30  C   UNL d   1     -49.544  23.652  33.308  0.00  0.00     0.002 A 
ATOM     31  C   UNL d   1     -48.852  23.422  33.711  0.00  0.00     0.000 A 
ATOM     32  C   UNL d   1     -48.893  23.191  34.507  0.00  0.00     0.000 A 
ATOM     33  C   UNL d   1     -49.616  23.191  34.890  0.00  0.00     0.000 A 
ATOM     34  C   UNL d   1     -50.303  23.418  34.495  0.00  0.00     0.002 A 
ENDBRANCH  28  29
ENDBRANCH   2  28
TORSDOF 6
ENDMDL
