MODEL 1
REMARK VINA RESULT:      -1.3      0.000      0.000
REMARK  7 active torsions:
REMARK  status: ('A' for Active; 'I' for Inactive)
REMARK    1  A    between atoms: N_8  and  C_3 
REMARK    2  A    between atoms: C_10  and  C_5 
REMARK    3  A    between atoms: C_15  and  N_8 
REMARK    4  A    between atoms: N_12  and  C_10 
REMARK    5  A    between atoms: C_21  and  N_12 
REMARK    6  A    between atoms: O_22  and  C_16 
REMARK    7  A    between atoms: C_23  and  C_21 
ROOT
ATOM      1  N   UNL d   1      59.531  -1.467  29.423  0.00  0.00    -0.209 NA
ATOM      2  N   UNL d   1      59.603  -0.049  29.615  0.00  0.00    -0.258 N 
ATOM      3  C   UNL d   1      58.767  -1.479  29.716  0.00  0.00     0.170 A 
ATOM      4  C   UNL d   1      59.960  -0.751  29.369  0.00  0.00     0.152 A 
ATOM      5  C   UNL d   1      58.411  -0.777  29.961  0.00  0.00     0.111 A 
ATOM      6  C   UNL d   1      58.820  -0.062  29.914  0.00  0.00     0.270 A 
ATOM      7  C   UNL d   1      60.724  -0.739  29.077  0.00  0.00     0.035 A 
ATOM      8  C   UNL d   1      60.013   0.667  29.568  0.00  0.00     0.084 A 
ATOM      9  O   UNL d   1      58.447   0.641  30.166  0.00  0.00    -0.266 OA
ATOM     10  C   UNL d   1      60.776   0.679  29.275  0.00  0.00     0.019 A 
ATOM     11  C   UNL d   1      61.133  -0.024  29.029  0.00  0.00     0.005 A 
ATOM     12  C   UNL d   1      61.096  -1.441  28.825  0.00  0.00     0.003 C 
ENDROOT
BRANCH   3  13
ATOM     13  N   UNL d   1      58.357  -2.216  29.760  0.00  0.00    -0.227 NA
BRANCH  13  14
ATOM     14  C   UNL d   1      58.691  -2.901  29.461  0.00  0.00     0.083 A 
ATOM     15  C   UNL d   1      59.283  -3.264  29.895  0.00  0.00     0.021 A 
ATOM     16  C   UNL d   1      59.633  -3.964  29.601  0.00  0.00     0.026 A 
ATOM     17  C   UNL d   1      59.385  -4.278  28.893  0.00  0.00     0.094 A 
ATOM     18  C   UNL d   1      58.793  -3.917  28.457  0.00  0.00     0.026 A 
ATOM     19  C   UNL d   1      58.448  -3.234  28.737  0.00  0.00     0.021 A 
BRANCH  17  20
ATOM     20  O   UNL d   1      59.753  -4.990  28.612  0.00  0.00    -0.328 OA
ATOM     21  C   UNL d   1      60.587  -5.012  28.491  0.00  0.00     0.181 C 
ENDBRANCH  17  20
ENDBRANCH  13  14
ENDBRANCH   3  13
BRANCH   5  22
ATOM     22  C   UNL d   1      57.635  -0.790  30.258  0.00  0.00     0.107 C 
BRANCH  22  23
ATOM     23  N   UNL d   1      57.504  -0.690  31.066  0.00  0.00    -0.242 NA
BRANCH  23  24
ATOM     24  C   UNL d   1      56.780  -0.411  31.329  0.00  0.00     0.099 C 
BRANCH  24  25
ATOM     25  C   UNL d   1      56.644  -0.327  32.139  0.00  0.00     0.019 A 
ATOM     26  C   UNL d   1      55.973  -0.656  32.474  0.00  0.00     0.002 A 
ATOM     27  C   UNL d   1      55.837  -0.572  33.283  0.00  0.00     0.000 A 
ATOM     28  C   UNL d   1      56.371  -0.159  33.757  0.00  0.00     0.000 A 
ATOM     29  C   UNL d   1      57.042   0.170  33.422  0.00  0.00     0.000 A 
ATOM     30  C   UNL d   1      57.178   0.086  32.613  0.00  0.00     0.002 A 
ENDBRANCH  24  25
ENDBRANCH  23  24
ENDBRANCH  22  23
ENDBRANCH   5  22
TORSDOF 7
ENDMDL
MODEL 2
REMARK VINA RESULT:       0.8      1.635      4.474
REMARK  7 active torsions:
REMARK  status: ('A' for Active; 'I' for Inactive)
REMARK    1  A    between atoms: N_8  and  C_3 
REMARK    2  A    between atoms: C_10  and  C_5 
REMARK    3  A    between atoms: C_15  and  N_8 
REMARK    4  A    between atoms: N_12  and  C_10 
REMARK    5  A    between atoms: C_21  and  N_12 
REMARK    6  A    between atoms: O_22  and  C_16 
REMARK    7  A    between atoms: C_23  and  C_21 
ROOT
ATOM      1  N   UNL d   1      58.699   0.342  31.587  0.00  0.00    -0.209 NA
ATOM      2  N   UNL d   1      60.055   0.350  31.127  0.00  0.00    -0.258 N 
ATOM      3  C   UNL d   1      58.432   0.177  30.832  0.00  0.00     0.170 A 
ATOM      4  C   UNL d   1      59.515   0.431  31.745  0.00  0.00     0.152 A 
ATOM      5  C   UNL d   1      58.972   0.096  30.214  0.00  0.00     0.111 A 
ATOM      6  C   UNL d   1      59.781   0.181  30.353  0.00  0.00     0.270 A 
ATOM      7  C   UNL d   1      59.782   0.596  32.500  0.00  0.00     0.035 A 
ATOM      8  C   UNL d   1      60.865   0.435  31.266  0.00  0.00     0.084 A 
ATOM      9  O   UNL d   1      60.317   0.096  29.719  0.00  0.00    -0.266 OA
ATOM     10  C   UNL d   1      61.133   0.600  32.021  0.00  0.00     0.019 A 
ATOM     11  C   UNL d   1      60.591   0.681  32.639  0.00  0.00     0.005 A 
ATOM     12  C   UNL d   1      59.247   0.681  33.134  0.00  0.00     0.003 C 
ENDROOT
BRANCH   3  13
ATOM     13  N   UNL d   1      57.602   0.092  30.700  0.00  0.00    -0.227 NA
BRANCH  13  14
ATOM     14  C   UNL d   1      57.111  -0.195  31.288  0.00  0.00     0.083 A 
ATOM     15  C   UNL d   1      57.087  -1.003  31.414  0.00  0.00     0.021 A 
ATOM     16  C   UNL d   1      56.590  -1.309  32.011  0.00  0.00     0.026 A 
ATOM     17  C   UNL d   1      56.136  -0.807  32.461  0.00  0.00     0.094 A 
ATOM     18  C   UNL d   1      56.157   0.003  32.338  0.00  0.00     0.026 A 
ATOM     19  C   UNL d   1      56.640   0.308  31.757  0.00  0.00     0.021 A 
BRANCH  17  20
ATOM     20  O   UNL d   1      55.636  -1.137  33.064  0.00  0.00    -0.328 OA
ATOM     21  C   UNL d   1      55.215  -0.627  33.585  0.00  0.00     0.181 C 
ENDBRANCH  17  20
ENDBRANCH  13  14
ENDBRANCH   3  13
BRANCH   5  22
ATOM     22  C   UNL d   1      58.700  -0.072  29.447  0.00  0.00     0.107 C 
BRANCH  22  23
ATOM     23  N   UNL d   1      59.013  -0.714  29.033  0.00  0.00    -0.242 NA
BRANCH  23  24
ATOM     24  C   UNL d   1      58.512  -1.296  28.749  0.00  0.00     0.099 C 
BRANCH  24  25
ATOM     25  C   UNL d   1      58.793  -2.066  28.652  0.00  0.00     0.019 A 
ATOM     26  C   UNL d   1      59.596  -2.195  28.553  0.00  0.00     0.002 A 
ATOM     27  C   UNL d   1      59.878  -2.964  28.456  0.00  0.00     0.000 A 
ATOM     28  C   UNL d   1      59.358  -3.604  28.459  0.00  0.00     0.000 A 
ATOM     29  C   UNL d   1      58.555  -3.475  28.558  0.00  0.00     0.000 A 
ATOM     30  C   UNL d   1      58.273  -2.706  28.655  0.00  0.00     0.002 A 
ENDBRANCH  24  25
ENDBRANCH  23  24
ENDBRANCH  22  23
ENDBRANCH   5  22
TORSDOF 7
ENDMDL
