MODEL 1
REMARK VINA RESULT:       6.7      0.000      0.000
REMARK  7 active torsions:
REMARK  status: ('A' for Active; 'I' for Inactive)
REMARK    1  A    between atoms: C_11  and  N_3 
REMARK    2  A    between atoms: C_10  and  C_4 
REMARK    3  A    between atoms: C_16  and  C_11 
REMARK    4  A    between atoms: N_13  and  C_17 
REMARK    5  A    between atoms: C_26  and  N_14 
REMARK    6  A    between atoms: C_17  and  C_16 
REMARK    7  A    between atoms: C_28  and  C_26 
ROOT
ATOM      1  C   UNL d   1     -41.503-121.495 -52.691  0.00  0.00     0.137 A 
ATOM      2  N   UNL d   1     -41.777-121.419 -53.476  0.00  0.00    -0.259 N 
ATOM      3  N   UNL d   1     -41.391-122.300 -52.551  0.00  0.00    -0.287 N 
ATOM      4  C   UNL d   1     -41.398-120.827 -52.227  0.00  0.00     0.054 A 
ATOM      5  C   UNL d   1     -41.942-120.668 -53.782  0.00  0.00     0.266 A 
ATOM      6  C   UNL d   1     -41.831-122.172 -53.808  0.00  0.00     0.084 A 
ATOM      7  C   UNL d   1     -41.589-122.724 -53.229  0.00  0.00     0.082 A 
ATOM      8  C   UNL d   1     -41.561-120.078 -52.530  0.00  0.00     0.009 A 
ATOM      9  C   UNL d   1     -41.834-119.990 -53.310  0.00  0.00     0.061 A 
ATOM     10  O   UNL d   1     -42.214-120.585 -54.561  0.00  0.00    -0.267 OA
ATOM     11  C   UNL d   1     -42.063-122.440 -54.550  0.00  0.00     0.019 A 
ATOM     12  C   UNL d   1     -41.454-119.404 -52.061  0.00  0.00     0.000 C 
ATOM     13  C   UNL d   1     -41.589-123.521 -53.414  0.00  0.00     0.019 A 
ATOM     14  C   UNL d   1     -42.057-123.240 -54.719  0.00  0.00     0.002 A 
ATOM     15  C   UNL d   1     -41.818-123.786 -54.145  0.00  0.00     0.002 A 
ENDROOT
BRANCH   3  16
ATOM     16  C   UNL d   1     -41.155-122.849 -51.986  0.00  0.00     0.125 C 
BRANCH  16  17
ATOM     17  C   UNL d   1     -41.692-123.110 -51.417  0.00  0.00     0.231 C 
ATOM     18  O   UNL d   1     -42.470-122.841 -51.424  0.00  0.00    -0.283 OA
BRANCH  17  19
ATOM     19  C   UNL d   1     -41.450-123.643 -50.839  0.00  0.00     0.124 C 
BRANCH  19  20
ATOM     20  N   UNL d   1     -41.727-123.570 -50.068  0.00  0.00    -0.297 N 
ATOM     21  C   UNL d   1     -42.515-123.810 -49.962  0.00  0.00     0.100 A 
ATOM     22  C   UNL d   1     -42.865-123.766 -49.213  0.00  0.00     0.100 A 
ATOM     23  N   UNL d   1     -42.433-123.483 -48.567  0.00  0.00    -0.297 N 
ATOM     24  C   UNL d   1     -41.649-123.244 -48.672  0.00  0.00     0.100 A 
ATOM     25  C   UNL d   1     -41.299-123.289 -49.422  0.00  0.00     0.100 A 
BRANCH  23  26
ATOM     26  C   UNL d   1     -42.786-123.439 -47.817  0.00  0.00     0.126 C 
BRANCH  26  27
ATOM     27  C   UNL d   1     -42.715-122.755 -47.361  0.00  0.00     0.253 C 
ATOM     28  O   UNL d   1     -41.996-122.559 -47.033  0.00  0.00    -0.281 OA
ENDBRANCH  26  27
ENDBRANCH  23  26
ENDBRANCH  19  20
ENDBRANCH  17  19
ENDBRANCH  16  17
ENDBRANCH   3  16
BRANCH   4  29
ATOM     29  C   UNL d   1     -41.129-120.901 -51.456  0.00  0.00     0.125 C 
ATOM     30  N   UNL d   1     -41.199-120.283 -50.918  0.00  0.00    -0.146 N 
ENDBRANCH   4  29
TORSDOF 7
ENDMDL
MODEL 2
REMARK VINA RESULT:       8.4      1.479      4.833
REMARK  7 active torsions:
REMARK  status: ('A' for Active; 'I' for Inactive)
REMARK    1  A    between atoms: C_11  and  N_3 
REMARK    2  A    between atoms: C_10  and  C_4 
REMARK    3  A    between atoms: C_16  and  C_11 
REMARK    4  A    between atoms: N_13  and  C_17 
REMARK    5  A    between atoms: C_26  and  N_14 
REMARK    6  A    between atoms: C_17  and  C_16 
REMARK    7  A    between atoms: C_28  and  C_26 
ROOT
ATOM      1  C   UNL d   1     -42.993-122.536 -50.149  0.00  0.00     0.137 A 
ATOM      2  N   UNL d   1     -43.191-122.702 -49.355  0.00  0.00    -0.259 N 
ATOM      3  N   UNL d   1     -42.230-122.823 -50.274  0.00  0.00    -0.287 N 
ATOM      4  C   UNL d   1     -43.531-122.153 -50.634  0.00  0.00     0.054 A 
ATOM      5  C   UNL d   1     -43.931-122.477 -49.062  0.00  0.00     0.266 A 
ATOM      6  C   UNL d   1     -42.552-123.086 -49.001  0.00  0.00     0.084 A 
ATOM      7  C   UNL d   1     -41.950-123.163 -49.577  0.00  0.00     0.082 A 
ATOM      8  C   UNL d   1     -44.270-121.928 -50.344  0.00  0.00     0.009 A 
ATOM      9  C   UNL d   1     -44.477-122.088 -49.556  0.00  0.00     0.061 A 
ATOM     10  O   UNL d   1     -44.134-122.638 -48.274  0.00  0.00    -0.267 OA
ATOM     11  C   UNL d   1     -42.427-123.379 -48.244  0.00  0.00     0.019 A 
ATOM     12  C   UNL d   1     -44.812-121.541 -50.835  0.00  0.00     0.000 C 
ATOM     13  C   UNL d   1     -41.248-123.528 -49.371  0.00  0.00     0.019 A 
ATOM     14  C   UNL d   1     -41.719-123.741 -48.055  0.00  0.00     0.002 A 
ATOM     15  C   UNL d   1     -41.123-123.817 -48.625  0.00  0.00     0.002 A 
ENDROOT
BRANCH   3  16
ATOM     16  C   UNL d   1     -41.633-122.903 -50.834  0.00  0.00     0.125 C 
BRANCH  16  17
ATOM     17  C   UNL d   1     -41.742-123.401 -51.482  0.00  0.00     0.231 C 
ATOM     18  O   UNL d   1     -42.467-123.770 -51.607  0.00  0.00    -0.283 OA
BRANCH  17  19
ATOM     19  C   UNL d   1     -41.123-123.531 -52.008  0.00  0.00     0.124 C 
BRANCH  19  20
ATOM     20  N   UNL d   1     -41.197-123.309 -52.797  0.00  0.00    -0.297 N 
ATOM     21  C   UNL d   1     -41.128-122.493 -52.931  0.00  0.00     0.100 A 
ATOM     22  C   UNL d   1     -41.193-122.193 -53.701  0.00  0.00     0.100 A 
ATOM     23  N   UNL d   1     -41.325-122.704 -54.337  0.00  0.00    -0.297 N 
ATOM     24  C   UNL d   1     -41.393-123.516 -54.204  0.00  0.00     0.100 A 
ATOM     25  C   UNL d   1     -41.329-123.816 -53.434  0.00  0.00     0.100 A 
BRANCH  23  26
ATOM     26  C   UNL d   1     -41.389-122.400 -55.108  0.00  0.00     0.126 C 
BRANCH  26  27
ATOM     27  C   UNL d   1     -42.120-122.385 -55.491  0.00  0.00     0.253 C 
ATOM     28  O   UNL d   1     -42.304-121.768 -55.990  0.00  0.00    -0.281 OA
ENDBRANCH  26  27
ENDBRANCH  23  26
ENDBRANCH  19  20
ENDBRANCH  17  19
ENDBRANCH  16  17
ENDBRANCH   3  16
BRANCH   4  29
ATOM     29  C   UNL d   1     -43.338-121.990 -51.414  0.00  0.00     0.125 C 
ATOM     30  N   UNL d   1     -43.531-121.270 -51.761  0.00  0.00    -0.146 N 
ENDBRANCH   4  29
TORSDOF 7
ENDMDL
