MODEL 1
REMARK VINA RESULT:      -3.2      0.000      0.000
REMARK  2 active torsions:
REMARK  status: ('A' for Active; 'I' for Inactive)
REMARK    1  A    between atoms: N_9  and  C_3 
REMARK    2  A    between atoms: C_11  and  C_5 
ROOT
ATOM      1  N   UNL d   1      31.281  17.455 -24.321  0.00  0.00    -0.196 N 
ATOM      2  C   UNL d   1      30.845  16.785 -24.121  0.00  0.00     0.167 A 
ATOM      3  C   UNL d   1      32.085  17.488 -24.152  0.00  0.00     0.152 A 
ATOM      4  N   UNL d   1      30.772  17.988 -24.675  0.00  0.00    -0.163 NA
ATOM      5  C   UNL d   1      30.066  16.904 -24.352  0.00  0.00     0.055 A 
ATOM      6  C   UNL d   1      30.019  17.647 -24.695  0.00  0.00     0.104 A 
ATOM      7  N   UNL d   1      31.212  16.148 -23.752  0.00  0.00    -0.227 NA
ATOM      8  C   UNL d   1      32.460  16.848 -23.780  0.00  0.00     0.057 A 
ATOM      9  C   UNL d   1      32.024  16.178 -23.581  0.00  0.00     0.086 A 
ATOM     10  C   UNL d   1      29.337  17.993 -25.005  0.00  0.00     0.023 C 
ATOM     11  C   UNL d   1      32.389  15.529 -23.207  0.00  0.00     0.021 C 
ENDROOT
BRANCH   5  12
ATOM     12  C   UNL d   1      29.389  16.434 -24.297  0.00  0.00     0.004 A 
ATOM     13  C   UNL d   1      29.191  15.922 -24.918  0.00  0.00     0.000 A 
ATOM     14  C   UNL d   1      28.514  15.453 -24.863  0.00  0.00     0.000 A 
ATOM     15  C   UNL d   1      28.035  15.492 -24.193  0.00  0.00     0.000 A 
ATOM     16  C   UNL d   1      28.236  16.006 -23.571  0.00  0.00     0.000 A 
ATOM     17  C   UNL d   1      28.910  16.474 -23.627  0.00  0.00     0.000 A 
ENDBRANCH   5  12
BRANCH   3  18
ATOM     18  N   UNL d   1      32.522  18.159 -24.352  0.00  0.00    -0.289 N 
ATOM     19  C   UNL d   1      32.721  18.760 -23.825  0.00  0.00     0.082 A 
ATOM     20  C   UNL d   1      33.158  19.332 -24.233  0.00  0.00     0.021 A 
ATOM     21  C   UNL d   1      33.225  19.076 -25.015  0.00  0.00     0.021 A 
ATOM     22  C   UNL d   1      32.841  18.364 -25.097  0.00  0.00     0.082 A 
ENDBRANCH   3  18
TORSDOF 2
ENDMDL
