MODEL 1
REMARK VINA RESULT:      -2.4      0.000      0.000
REMARK  5 active torsions:
REMARK  status: ('A' for Active; 'I' for Inactive)
REMARK    1  A    between atoms: N_6  and  S_1 
REMARK    2  A    between atoms: C_16  and  S_1 
REMARK    3  A    between atoms: N_2  and  C_15 
REMARK       I    between atoms: C_9  and  N_8 
REMARK    4  A    between atoms: C_10  and  C_9 
REMARK    5  A    between atoms: C_15  and  C_10 
ROOT
ATOM      1  N   UNL d   1      32.892  22.067 -20.445  0.00  0.00    -0.226 N 
ATOM      2  N   UNL d   1      33.018  21.392 -21.940  0.00  0.00    -0.269 N 
ATOM      3  C   UNL d   1      33.081  21.046 -22.686  0.00  0.00     0.267 C 
ATOM      4  C   UNL d   1      32.956  22.563 -21.117  0.00  0.00     0.111 A 
ATOM      5  C   UNL d   1      32.892  21.248 -20.528  0.00  0.00     0.111 A 
ATOM      6  C   UNL d   1      32.955  20.910 -21.278  0.00  0.00     0.103 A 
ATOM      7  C   UNL d   1      33.019  22.225 -21.866  0.00  0.00     0.103 A 
ATOM      8  O   UNL d   1      33.144  21.525 -23.355  0.00  0.00    -0.267 OA
ENDROOT
BRANCH   3   9
ATOM      9  C   UNL d   1      33.080  20.227 -22.761  0.00  0.00     0.082 C 
BRANCH   9  10
ATOM     10  C   UNL d   1      33.163  19.888 -23.508  0.00  0.00     0.105 C 
BRANCH  10  11
ATOM     11  N   UNL d   1      33.026  19.077 -23.606  0.00  0.00    -0.228 N 
ATOM     12  N   UNL d   1      32.948  18.515 -23.008  0.00  0.00    -0.165 NA
ATOM     13  C   UNL d   1      32.816  17.777 -23.353  0.00  0.00     0.103 A 
ATOM     14  C   UNL d   1      32.707  17.059 -22.954  0.00  0.00     0.022 C 
ATOM     15  C   UNL d   1      32.812  17.879 -24.171  0.00  0.00     0.037 A 
ATOM     16  C   UNL d   1      32.941  18.682 -24.331  0.00  0.00     0.084 A 
ATOM     17  C   UNL d   1      32.700  17.289 -24.733  0.00  0.00     0.003 C 
ATOM     18  C   UNL d   1      32.978  19.021 -25.083  0.00  0.00     0.021 C 
ENDBRANCH  10  11
ENDBRANCH   9  10
ENDBRANCH   3   9
BRANCH   1  19
ATOM     19  S   UNL d   1      32.828  22.407 -19.691  0.00  0.00     0.271 S 
ATOM     20  O   UNL d   1      33.220  23.089 -19.966  0.00  0.00    -0.200 OA
ATOM     21  O   UNL d   1      32.441  21.733 -19.420  0.00  0.00    -0.200 OA
BRANCH  19  22
ATOM     22  C   UNL d   1      32.764  22.749 -18.934  0.00  0.00     0.104 A 
ATOM     23  C   UNL d   1      33.241  22.461 -18.319  0.00  0.00     0.013 A 
ATOM     24  C   UNL d   1      33.177  22.802 -17.562  0.00  0.00     0.001 A 
ATOM     25  C   UNL d   1      32.638  23.426 -17.435  0.00  0.00     0.000 A 
ATOM     26  C   UNL d   1      32.169  23.702 -18.063  0.00  0.00     0.001 A 
ATOM     27  C   UNL d   1      32.235  23.361 -18.811  0.00  0.00     0.013 A 
ENDBRANCH  19  22
ENDBRANCH   1  19
TORSDOF 5
ENDMDL
MODEL 2
REMARK VINA RESULT:      -2.4      1.858      5.883
REMARK  5 active torsions:
REMARK  status: ('A' for Active; 'I' for Inactive)
REMARK    1  A    between atoms: N_6  and  S_1 
REMARK    2  A    between atoms: C_16  and  S_1 
REMARK    3  A    between atoms: N_2  and  C_15 
REMARK       I    between atoms: C_9  and  N_8 
REMARK    4  A    between atoms: C_10  and  C_9 
REMARK    5  A    between atoms: C_15  and  C_10 
ROOT
ATOM      1  N   UNL d   1      32.637  18.842 -23.394  0.00  0.00    -0.226 N 
ATOM      2  N   UNL d   1      32.966  20.435 -23.148  0.00  0.00    -0.269 N 
ATOM      3  C   UNL d   1      33.130  21.232 -23.016  0.00  0.00     0.267 C 
ATOM      4  C   UNL d   1      32.748  19.346 -24.053  0.00  0.00     0.111 A 
ATOM      5  C   UNL d   1      32.691  19.137 -22.628  0.00  0.00     0.111 A 
ATOM      6  C   UNL d   1      32.856  19.936 -22.504  0.00  0.00     0.103 A 
ATOM      7  C   UNL d   1      32.913  20.145 -23.930  0.00  0.00     0.103 A 
ATOM      8  O   UNL d   1      33.241  21.738 -23.658  0.00  0.00    -0.267 OA
ENDROOT
BRANCH   3   9
ATOM      9  C   UNL d   1      33.182  21.520 -22.247  0.00  0.00     0.082 C 
BRANCH   9  10
ATOM     10  C   UNL d   1      32.997  22.310 -22.096  0.00  0.00     0.105 C 
BRANCH  10  11
ATOM     11  N   UNL d   1      32.850  22.553 -21.318  0.00  0.00    -0.228 N 
ATOM     12  N   UNL d   1      33.240  22.295 -20.640  0.00  0.00    -0.165 NA
ATOM     13  C   UNL d   1      32.917  22.680 -19.986  0.00  0.00     0.103 A 
ATOM     14  C   UNL d   1      33.146  22.584 -19.194  0.00  0.00     0.022 C 
ATOM     15  C   UNL d   1      32.322  23.181 -20.257  0.00  0.00     0.037 A 
ATOM     16  C   UNL d   1      32.277  23.105 -21.081  0.00  0.00     0.084 A 
ATOM     17  C   UNL d   1      31.852  23.671 -19.794  0.00  0.00     0.003 C 
ATOM     18  C   UNL d   1      31.753  23.510 -21.572  0.00  0.00     0.021 C 
ENDBRANCH  10  11
ENDBRANCH   9  10
ENDBRANCH   3   9
BRANCH   1  19
ATOM     19  S   UNL d   1      32.472  18.039 -23.519  0.00  0.00     0.271 S 
ATOM     20  O   UNL d   1      31.744  18.243 -23.868  0.00  0.00    -0.200 OA
ATOM     21  O   UNL d   1      33.192  17.837 -23.173  0.00  0.00    -0.200 OA
BRANCH  19  22
ATOM     22  C   UNL d   1      32.306  17.232 -23.643  0.00  0.00     0.104 A 
ATOM     23  C   UNL d   1      31.531  17.004 -23.834  0.00  0.00     0.013 A 
ATOM     24  C   UNL d   1      31.365  16.197 -23.959  0.00  0.00     0.001 A 
ATOM     25  C   UNL d   1      31.976  15.634 -23.890  0.00  0.00     0.000 A 
ATOM     26  C   UNL d   1      32.746  15.881 -23.699  0.00  0.00     0.001 A 
ATOM     27  C   UNL d   1      32.907  16.681 -23.576  0.00  0.00     0.013 A 
ENDBRANCH  19  22
ENDBRANCH   1  19
TORSDOF 5
ENDMDL
MODEL 3
REMARK VINA RESULT:      -1.5      3.075      6.391
REMARK  5 active torsions:
REMARK  status: ('A' for Active; 'I' for Inactive)
REMARK    1  A    between atoms: N_6  and  S_1 
REMARK    2  A    between atoms: C_16  and  S_1 
REMARK    3  A    between atoms: N_2  and  C_15 
REMARK       I    between atoms: C_9  and  N_8 
REMARK    4  A    between atoms: C_10  and  C_9 
REMARK    5  A    between atoms: C_15  and  C_10 
ROOT
ATOM      1  N   UNL d   1      30.764  17.569 -24.258  0.00  0.00    -0.226 N 
ATOM      2  N   UNL d   1      32.088  18.533 -24.109  0.00  0.00    -0.269 N 
ATOM      3  C   UNL d   1      32.751  19.018 -24.026  0.00  0.00     0.267 C 
ATOM      4  C   UNL d   1      31.254  17.701 -24.923  0.00  0.00     0.111 A 
ATOM      5  C   UNL d   1      30.940  17.918 -23.533  0.00  0.00     0.111 A 
ATOM      6  C   UNL d   1      31.604  18.402 -23.458  0.00  0.00     0.103 A 
ATOM      7  C   UNL d   1      31.919  18.184 -24.849  0.00  0.00     0.103 A 
ATOM      8  O   UNL d   1      33.241  19.155 -24.676  0.00  0.00    -0.267 OA
ENDROOT
BRANCH   3   9
ATOM      9  C   UNL d   1      32.920  19.363 -23.299  0.00  0.00     0.082 C 
BRANCH   9  10
ATOM     10  C   UNL d   1      33.186  20.143 -23.272  0.00  0.00     0.105 C 
BRANCH  10  11
ATOM     11  N   UNL d   1      33.195  20.547 -22.549  0.00  0.00    -0.228 N 
ATOM     12  N   UNL d   1      33.186  20.210 -21.797  0.00  0.00    -0.165 NA
ATOM     13  C   UNL d   1      33.200  20.814 -21.235  0.00  0.00     0.103 A 
ATOM     14  C   UNL d   1      33.197  20.722 -20.411  0.00  0.00     0.022 C 
ATOM     15  C   UNL d   1      33.218  21.532 -21.639  0.00  0.00     0.037 A 
ATOM     16  C   UNL d   1      33.215  21.371 -22.452  0.00  0.00     0.084 A 
ATOM     17  C   UNL d   1      33.236  22.280 -21.298  0.00  0.00     0.003 C 
ATOM     18  C   UNL d   1      33.229  21.937 -23.053  0.00  0.00     0.021 C 
ENDBRANCH  10  11
ENDBRANCH   9  10
ENDBRANCH   3   9
BRANCH   1  19
ATOM     19  S   UNL d   1      30.096  17.083 -24.332  0.00  0.00     0.271 S 
ATOM     20  O   UNL d   1      30.521  16.448 -24.001  0.00  0.00    -0.200 OA
ATOM     21  O   UNL d   1      29.676  17.711 -24.661  0.00  0.00    -0.200 OA
BRANCH  19  22
ATOM     22  C   UNL d   1      29.426  16.595 -24.408  0.00  0.00     0.104 A 
ATOM     23  C   UNL d   1      28.788  16.702 -23.888  0.00  0.00     0.013 A 
ATOM     24  C   UNL d   1      28.117  16.214 -23.963  0.00  0.00     0.001 A 
ATOM     25  C   UNL d   1      28.097  15.628 -24.557  0.00  0.00     0.000 A 
ATOM     26  C   UNL d   1      28.745  15.535 -25.068  0.00  0.00     0.001 A 
ATOM     27  C   UNL d   1      29.407  16.021 -24.991  0.00  0.00     0.013 A 
ENDBRANCH  19  22
ENDBRANCH   1  19
TORSDOF 5
ENDMDL
