MODEL 1
REMARK VINA RESULT:      -4.2      0.000      0.000
REMARK  5 active torsions:
REMARK  status: ('A' for Active; 'I' for Inactive)
REMARK       I    between atoms: C_4  and  N_1 
REMARK    1  A    between atoms: C_8  and  C_3 
REMARK    2  A    between atoms: C_9  and  C_4 
REMARK    3  A    between atoms: S_5  and  N_10 
REMARK    4  A    between atoms: C_11  and  C_6 
REMARK    5  A    between atoms: N_10  and  C_22 
ROOT
ATOM      1  N   UNL d   1     -39.539  14.372  20.880  0.00  0.00    -0.193 N 
ATOM      2  N   UNL d   1     -39.568  14.489  20.061  0.00  0.00    -0.163 NA
ATOM      3  C   UNL d   1     -38.765  14.143  21.072  0.00  0.00     0.090 A 
ATOM      4  C   UNL d   1     -40.170  14.469  21.402  0.00  0.00     0.303 C 
ATOM      5  C   UNL d   1     -38.821  14.334  19.750  0.00  0.00     0.103 A 
ATOM      6  C   UNL d   1     -38.329  14.120  20.377  0.00  0.00     0.040 A 
ATOM      7  O   UNL d   1     -40.050  14.330  22.210  0.00  0.00    -0.263 OA
ENDROOT
BRANCH   5   8
ATOM      8  C   UNL d   1     -38.605  14.382  18.959  0.00  0.00     0.019 A 
ATOM      9  C   UNL d   1     -38.375  15.101  18.644  0.00  0.00     0.003 A 
ATOM     10  C   UNL d   1     -38.157  15.150  17.847  0.00  0.00     0.020 A 
ATOM     11  C   UNL d   1     -38.174  14.474  17.369  0.00  0.00     0.093 A 
ATOM     12  C   UNL d   1     -38.408  13.752  17.695  0.00  0.00     0.020 A 
ATOM     13  C   UNL d   1     -38.623  13.702  18.482  0.00  0.00     0.003 A 
BRANCH  11  14
ATOM     14  N   UNL d   1     -37.956  14.531  16.577  0.00  0.00    -0.162 NA
BRANCH  14  15
ATOM     15  S   UNL d   1     -38.520  14.534  15.984  0.00  0.00     0.266 S 
ATOM     16  O   UNL d   1     -38.259  13.753  15.901  0.00  0.00    -0.203 OA
ATOM     17  O   UNL d   1     -38.971  14.222  15.366  0.00  0.00    -0.203 OA
ATOM     18  C   UNL d   1     -38.797  15.306  16.048  0.00  0.00     0.165 C 
ENDBRANCH  14  15
ENDBRANCH  11  14
ENDBRANCH   5   8
BRANCH   3  19
ATOM     19  C   UNL d   1     -38.494  13.971  21.824  0.00  0.00     0.045 A 
ATOM     20  C   UNL d   1     -38.320  13.175  22.012  0.00  0.00     0.141 A 
ATOM     21  F   UNL d   1     -38.424  12.586  21.442  0.00  0.00    -0.204 F 
ATOM     22  C   UNL d   1     -38.044  12.990  22.773  0.00  0.00     0.030 A 
ATOM     23  C   UNL d   1     -37.950  13.558  23.303  0.00  0.00     0.002 A 
ATOM     24  C   UNL d   1     -38.124  14.355  23.116  0.00  0.00     0.000 A 
ATOM     25  C   UNL d   1     -38.399  14.600  22.385  0.00  0.00     0.004 A 
ENDBRANCH   3  19
BRANCH   4  26
ATOM     26  C   UNL d   1     -40.898  14.698  21.125  0.00  0.00     0.158 A 
ATOM     27  O   UNL d   1     -41.141  15.489  20.973  0.00  0.00    -0.300 OA
ATOM     28  C   UNL d   1     -41.920  15.459  20.700  0.00  0.00     0.123 A 
ATOM     29  C   UNL d   1     -42.156  14.673  20.682  0.00  0.00     0.029 A 
ATOM     30  C   UNL d   1     -41.517  14.217  20.947  0.00  0.00     0.032 A 
ENDBRANCH   4  26
TORSDOF 5
ENDMDL
MODEL 2
REMARK VINA RESULT:      -4.0      2.765      4.832
REMARK  5 active torsions:
REMARK  status: ('A' for Active; 'I' for Inactive)
REMARK       I    between atoms: C_4  and  N_1 
REMARK    1  A    between atoms: C_8  and  C_3 
REMARK    2  A    between atoms: C_9  and  C_4 
REMARK    3  A    between atoms: S_5  and  N_10 
REMARK    4  A    between atoms: C_11  and  C_6 
REMARK    5  A    between atoms: N_10  and  C_22 
ROOT
ATOM      1  N   UNL d   1     -40.416  14.628  20.273  0.00  0.00    -0.193 N 
ATOM      2  N   UNL d   1     -41.160  14.275  20.182  0.00  0.00    -0.163 NA
ATOM      3  C   UNL d   1     -40.216  14.587  21.077  0.00  0.00     0.090 A 
ATOM      4  C   UNL d   1     -39.964  14.957  19.667  0.00  0.00     0.303 C 
ATOM      5  C   UNL d   1     -41.416  14.019  20.923  0.00  0.00     0.103 A 
ATOM      6  C   UNL d   1     -40.831  14.214  21.471  0.00  0.00     0.040 A 
ATOM      7  O   UNL d   1     -39.228  15.291  19.848  0.00  0.00    -0.263 OA
ENDROOT
BRANCH   5   8
ATOM      8  C   UNL d   1     -42.126  13.638  21.085  0.00  0.00     0.019 A 
ATOM      9  C   UNL d   1     -42.128  12.839  21.260  0.00  0.00     0.003 A 
ATOM     10  C   UNL d   1     -42.844  12.456  21.423  0.00  0.00     0.020 A 
ATOM     11  C   UNL d   1     -43.555  12.880  21.409  0.00  0.00     0.093 A 
ATOM     12  C   UNL d   1     -43.544  13.687  21.231  0.00  0.00     0.020 A 
ATOM     13  C   UNL d   1     -42.838  14.067  21.070  0.00  0.00     0.003 A 
BRANCH  11  14
ATOM     14  N   UNL d   1     -44.262  12.492  21.573  0.00  0.00    -0.162 NA
BRANCH  14  15
ATOM     15  S   UNL d   1     -44.732  12.719  22.202  0.00  0.00     0.266 S 
ATOM     16  O   UNL d   1     -44.355  12.074  22.558  0.00  0.00    -0.203 OA
ATOM     17  O   UNL d   1     -45.044  12.683  22.967  0.00  0.00    -0.203 OA
ATOM     18  C   UNL d   1     -45.120  13.364  21.872  0.00  0.00     0.165 C 
ENDBRANCH  14  15
ENDBRANCH  11  14
ENDBRANCH   5   8
BRANCH   3  19
ATOM     19  C   UNL d   1     -39.525  14.872  21.409  0.00  0.00     0.045 A 
ATOM     20  C   UNL d   1     -38.950  14.321  21.665  0.00  0.00     0.141 A 
ATOM     21  F   UNL d   1     -39.090  13.512  21.579  0.00  0.00    -0.204 F 
ATOM     22  C   UNL d   1     -38.246  14.599  22.003  0.00  0.00     0.030 A 
ATOM     23  C   UNL d   1     -38.126  15.370  22.079  0.00  0.00     0.002 A 
ATOM     24  C   UNL d   1     -38.701  15.922  21.823  0.00  0.00     0.000 A 
ATOM     25  C   UNL d   1     -39.414  15.710  21.482  0.00  0.00     0.004 A 
ENDBRANCH   3  19
BRANCH   4  26
ATOM     26  C   UNL d   1     -40.239  14.953  18.903  0.00  0.00     0.158 A 
ATOM     27  O   UNL d   1     -40.724  15.544  18.550  0.00  0.00    -0.300 OA
ATOM     28  C   UNL d   1     -40.868  15.312  17.771  0.00  0.00     0.123 A 
ATOM     29  C   UNL d   1     -40.484  14.599  17.640  0.00  0.00     0.029 A 
ATOM     30  C   UNL d   1     -40.102  14.390  18.345  0.00  0.00     0.032 A 
ENDBRANCH   4  26
TORSDOF 5
ENDMDL
MODEL 3
REMARK VINA RESULT:      -3.9      2.203      4.804
REMARK  5 active torsions:
REMARK  status: ('A' for Active; 'I' for Inactive)
REMARK       I    between atoms: C_4  and  N_1 
REMARK    1  A    between atoms: C_8  and  C_3 
REMARK    2  A    between atoms: C_9  and  C_4 
REMARK    3  A    between atoms: S_5  and  N_10 
REMARK    4  A    between atoms: C_11  and  C_6 
REMARK    5  A    between atoms: N_10  and  C_22 
ROOT
ATOM      1  N   UNL d   1     -39.389  14.318  17.825  0.00  0.00    -0.193 N 
ATOM      2  N   UNL d   1     -39.418  14.377  18.650  0.00  0.00    -0.163 NA
ATOM      3  C   UNL d   1     -38.677  13.940  17.626  0.00  0.00     0.090 A 
ATOM      4  C   UNL d   1     -39.968  14.588  17.303  0.00  0.00     0.303 C 
ATOM      5  C   UNL d   1     -38.731  14.040  18.958  0.00  0.00     0.103 A 
ATOM      6  C   UNL d   1     -38.278  13.772  18.323  0.00  0.00     0.040 A 
ATOM      7  O   UNL d   1     -39.856  14.487  16.489  0.00  0.00    -0.263 OA
ENDROOT
BRANCH   5   8
ATOM      8  C   UNL d   1     -38.535  13.981  19.754  0.00  0.00     0.019 A 
ATOM      9  C   UNL d   1     -38.492  13.245  20.108  0.00  0.00     0.003 A 
ATOM     10  C   UNL d   1     -38.294  13.186  20.910  0.00  0.00     0.020 A 
ATOM     11  C   UNL d   1     -38.140  13.869  21.352  0.00  0.00     0.093 A 
ATOM     12  C   UNL d   1     -38.185  14.609  20.986  0.00  0.00     0.020 A 
ATOM     13  C   UNL d   1     -38.380  14.669  20.194  0.00  0.00     0.003 A 
BRANCH  11  14
ATOM     14  N   UNL d   1     -37.944  13.802  22.148  0.00  0.00    -0.162 NA
BRANCH  14  15
ATOM     15  S   UNL d   1     -38.521  13.818  22.727  0.00  0.00     0.266 S 
ATOM     16  O   UNL d   1     -38.331  13.013  22.765  0.00  0.00    -0.203 OA
ATOM     17  O   UNL d   1     -39.014  13.508  23.314  0.00  0.00    -0.203 OA
ATOM     18  C   UNL d   1     -38.727  14.613  22.709  0.00  0.00     0.165 C 
ENDBRANCH  14  15
ENDBRANCH  11  14
ENDBRANCH   5   8
BRANCH   3  19
ATOM     19  C   UNL d   1     -38.427  13.770  16.867  0.00  0.00     0.045 A 
ATOM     20  C   UNL d   1     -38.426  12.972  16.617  0.00  0.00     0.141 A 
ATOM     21  F   UNL d   1     -38.676  12.380  17.136  0.00  0.00    -0.204 F 
ATOM     22  C   UNL d   1     -38.174  12.788  15.848  0.00  0.00     0.030 A 
ATOM     23  C   UNL d   1     -37.940  13.360  15.367  0.00  0.00     0.002 A 
ATOM     24  C   UNL d   1     -37.940  14.159  15.616  0.00  0.00     0.000 A 
ATOM     25  C   UNL d   1     -38.177  14.403  16.360  0.00  0.00     0.004 A 
ENDBRANCH   3  19
BRANCH   4  26
ATOM     26  C   UNL d   1     -40.638  14.949  17.588  0.00  0.00     0.158 A 
ATOM     27  O   UNL d   1     -41.357  14.562  17.792  0.00  0.00    -0.300 OA
ATOM     28  C   UNL d   1     -41.883  15.143  18.054  0.00  0.00     0.123 A 
ATOM     29  C   UNL d   1     -41.504  15.869  18.014  0.00  0.00     0.029 A 
ATOM     30  C   UNL d   1     -40.739  15.734  17.726  0.00  0.00     0.032 A 
ENDBRANCH   4  26
TORSDOF 5
ENDMDL
MODEL 4
REMARK VINA RESULT:      -3.7      2.313      5.186
REMARK  5 active torsions:
REMARK  status: ('A' for Active; 'I' for Inactive)
REMARK       I    between atoms: C_4  and  N_1 
REMARK    1  A    between atoms: C_8  and  C_3 
REMARK    2  A    between atoms: C_9  and  C_4 
REMARK    3  A    between atoms: S_5  and  N_10 
REMARK    4  A    between atoms: C_11  and  C_6 
REMARK    5  A    between atoms: N_10  and  C_22 
ROOT
ATOM      1  N   UNL d   1     -39.142  14.150  18.258  0.00  0.00    -0.193 N 
ATOM      2  N   UNL d   1     -38.773  14.008  18.985  0.00  0.00    -0.163 NA
ATOM      3  C   UNL d   1     -39.568  14.859  18.327  0.00  0.00     0.090 A 
ATOM      4  C   UNL d   1     -39.089  13.669  17.590  0.00  0.00     0.303 C 
ATOM      5  C   UNL d   1     -38.969  14.622  19.499  0.00  0.00     0.103 A 
ATOM      6  C   UNL d   1     -39.459  15.144  19.089  0.00  0.00     0.040 A 
ATOM      7  O   UNL d   1     -39.493  13.889  16.901  0.00  0.00    -0.263 OA
ENDROOT
BRANCH   5   8
ATOM      8  C   UNL d   1     -38.721  14.699  20.278  0.00  0.00     0.019 A 
ATOM      9  C   UNL d   1     -38.313  14.087  20.637  0.00  0.00     0.003 A 
ATOM     10  C   UNL d   1     -38.063  14.165  21.423  0.00  0.00     0.020 A 
ATOM     11  C   UNL d   1     -38.225  14.860  21.844  0.00  0.00     0.093 A 
ATOM     12  C   UNL d   1     -38.638  15.472  21.474  0.00  0.00     0.020 A 
ATOM     13  C   UNL d   1     -38.886  15.397  20.698  0.00  0.00     0.003 A 
BRANCH  11  14
ATOM     14  N   UNL d   1     -37.973  14.929  22.624  0.00  0.00    -0.162 NA
BRANCH  14  15
ATOM     15  S   UNL d   1     -38.483  15.185  23.211  0.00  0.00     0.266 S 
ATOM     16  O   UNL d   1     -38.177  15.920  22.985  0.00  0.00    -0.203 OA
ATOM     17  O   UNL d   1     -38.862  15.735  23.698  0.00  0.00    -0.203 OA
ATOM     18  C   UNL d   1     -38.802  14.467  23.454  0.00  0.00     0.165 C 
ENDBRANCH  14  15
ENDBRANCH  11  14
ENDBRANCH   5   8
BRANCH   3  19
ATOM     19  C   UNL d   1     -40.014  15.204  17.736  0.00  0.00     0.045 A 
ATOM     20  C   UNL d   1     -40.848  15.189  17.807  0.00  0.00     0.141 A 
ATOM     21  F   UNL d   1     -41.198  14.829  18.463  0.00  0.00    -0.204 F 
ATOM     22  C   UNL d   1     -41.311  15.536  17.212  0.00  0.00     0.030 A 
ATOM     23  C   UNL d   1     -40.966  15.874  16.595  0.00  0.00     0.002 A 
ATOM     24  C   UNL d   1     -40.131  15.890  16.524  0.00  0.00     0.000 A 
ATOM     25  C   UNL d   1     -39.622  15.565  17.076  0.00  0.00     0.004 A 
ENDBRANCH   3  19
BRANCH   4  26
ATOM     26  C   UNL d   1     -38.646  12.989  17.610  0.00  0.00     0.158 A 
ATOM     27  O   UNL d   1     -38.398  12.583  18.304  0.00  0.00    -0.300 OA
ATOM     28  C   UNL d   1     -37.963  11.924  18.062  0.00  0.00     0.123 A 
ATOM     29  C   UNL d   1     -37.940  11.919  17.241  0.00  0.00     0.029 A 
ATOM     30  C   UNL d   1     -38.364  12.580  16.978  0.00  0.00     0.032 A 
ENDBRANCH   4  26
TORSDOF 5
ENDMDL
MODEL 5
REMARK VINA RESULT:      -3.7      7.857      9.800
REMARK  5 active torsions:
REMARK  status: ('A' for Active; 'I' for Inactive)
REMARK       I    between atoms: C_4  and  N_1 
REMARK    1  A    between atoms: C_8  and  C_3 
REMARK    2  A    between atoms: C_9  and  C_4 
REMARK    3  A    between atoms: S_5  and  N_10 
REMARK    4  A    between atoms: C_11  and  C_6 
REMARK    5  A    between atoms: N_10  and  C_22 
ROOT
ATOM      1  N   UNL d   1     -48.239  13.295  22.884  0.00  0.00    -0.193 N 
ATOM      2  N   UNL d   1     -47.427  13.149  22.947  0.00  0.00    -0.163 NA
ATOM      3  C   UNL d   1     -48.636  12.593  23.078  0.00  0.00     0.090 A 
ATOM      4  C   UNL d   1     -48.583  14.013  22.667  0.00  0.00     0.303 C 
ATOM      5  C   UNL d   1     -47.322  12.364  23.177  0.00  0.00     0.103 A 
ATOM      6  C   UNL d   1     -48.070  12.025  23.256  0.00  0.00     0.040 A 
ATOM      7  O   UNL d   1     -49.409  14.070  22.630  0.00  0.00    -0.263 OA
ENDROOT
BRANCH   5   8
ATOM      8  C   UNL d   1     -46.603  11.989  23.304  0.00  0.00     0.019 A 
ATOM      9  C   UNL d   1     -45.904  12.391  23.165  0.00  0.00     0.003 A 
ATOM     10  C   UNL d   1     -45.179  12.013  23.293  0.00  0.00     0.020 A 
ATOM     11  C   UNL d   1     -45.161  11.229  23.561  0.00  0.00     0.093 A 
ATOM     12  C   UNL d   1     -45.871  10.830  23.698  0.00  0.00     0.020 A 
ATOM     13  C   UNL d   1     -46.588  11.202  23.572  0.00  0.00     0.003 A 
BRANCH  11  14
ATOM     14  N   UNL d   1     -44.436  10.860  23.685  0.00  0.00    -0.162 NA
BRANCH  14  15
ATOM     15  S   UNL d   1     -44.113  10.363  23.121  0.00  0.00     0.266 S 
ATOM     16  O   UNL d   1     -43.713  11.059  22.917  0.00  0.00    -0.203 OA
ATOM     17  O   UNL d   1     -43.633  10.155  22.481  0.00  0.00    -0.203 OA
ATOM     18  C   UNL d   1     -44.498   9.661  23.304  0.00  0.00     0.165 C 
ENDBRANCH  14  15
ENDBRANCH  11  14
ENDBRANCH   5   8
BRANCH   3  19
ATOM     19  C   UNL d   1     -49.447  12.492  23.086  0.00  0.00     0.045 A 
ATOM     20  C   UNL d   1     -49.794  12.004  22.502  0.00  0.00     0.141 A 
ATOM     21  F   UNL d   1     -49.316  11.638  21.936  0.00  0.00    -0.204 F 
ATOM     22  C   UNL d   1     -50.617  11.896  22.502  0.00  0.00     0.030 A 
ATOM     23  C   UNL d   1     -51.058  12.249  23.044  0.00  0.00     0.002 A 
ATOM     24  C   UNL d   1     -50.711  12.737  23.629  0.00  0.00     0.000 A 
ATOM     25  C   UNL d   1     -49.908  12.883  23.682  0.00  0.00     0.004 A 
ENDBRANCH   3  19
BRANCH   4  26
ATOM     26  C   UNL d   1     -48.116  14.654  22.493  0.00  0.00     0.158 A 
ATOM     27  O   UNL d   1     -48.047  15.354  22.955  0.00  0.00    -0.300 OA
ATOM     28  C   UNL d   1     -47.514  15.853  22.569  0.00  0.00     0.123 A 
ATOM     29  C   UNL d   1     -47.257  15.476  21.887  0.00  0.00     0.029 A 
ATOM     30  C   UNL d   1     -47.636  14.739  21.854  0.00  0.00     0.032 A 
ENDBRANCH   4  26
TORSDOF 5
ENDMDL
MODEL 6
REMARK VINA RESULT:      -3.1      1.876      2.018
REMARK  5 active torsions:
REMARK  status: ('A' for Active; 'I' for Inactive)
REMARK       I    between atoms: C_4  and  N_1 
REMARK    1  A    between atoms: C_8  and  C_3 
REMARK    2  A    between atoms: C_9  and  C_4 
REMARK    3  A    between atoms: S_5  and  N_10 
REMARK    4  A    between atoms: C_11  and  C_6 
REMARK    5  A    between atoms: N_10  and  C_22 
ROOT
ATOM      1  N   UNL d   1     -40.564  14.037  20.936  0.00  0.00    -0.193 N 
ATOM      2  N   UNL d   1     -40.916  14.215  20.208  0.00  0.00    -0.163 NA
ATOM      3  C   UNL d   1     -39.778  14.299  20.904  0.00  0.00     0.090 A 
ATOM      4  C   UNL d   1     -40.935  13.664  21.571  0.00  0.00     0.303 C 
ATOM      5  C   UNL d   1     -40.354  14.585  19.732  0.00  0.00     0.103 A 
ATOM      6  C   UNL d   1     -39.653  14.634  20.166  0.00  0.00     0.040 A 
ATOM      7  O   UNL d   1     -40.505  13.524  22.265  0.00  0.00    -0.263 OA
ENDROOT
BRANCH   5   8
ATOM      8  C   UNL d   1     -40.470  14.855  18.965  0.00  0.00     0.019 A 
ATOM      9  C   UNL d   1     -40.616  15.649  18.831  0.00  0.00     0.003 A 
ATOM     10  C   UNL d   1     -40.734  15.921  18.058  0.00  0.00     0.020 A 
ATOM     11  C   UNL d   1     -40.704  15.391  17.422  0.00  0.00     0.093 A 
ATOM     12  C   UNL d   1     -40.556  14.591  17.566  0.00  0.00     0.020 A 
ATOM     13  C   UNL d   1     -40.440  14.321  18.329  0.00  0.00     0.003 A 
BRANCH  11  14
ATOM     14  N   UNL d   1     -40.822  15.669  16.657  0.00  0.00    -0.162 NA
BRANCH  14  15
ATOM     15  S   UNL d   1     -41.556  15.622  16.299  0.00  0.00     0.266 S 
ATOM     16  O   UNL d   1     -41.099  15.317  15.680  0.00  0.00    -0.203 OA
ATOM     17  O   UNL d   1     -42.096  15.452  15.697  0.00  0.00    -0.203 OA
ATOM     18  C   UNL d   1     -42.032  15.922  16.899  0.00  0.00     0.165 C 
ENDBRANCH  14  15
ENDBRANCH  11  14
ENDBRANCH   5   8
BRANCH   3  19
ATOM     19  C   UNL d   1     -39.230  14.232  21.508  0.00  0.00     0.045 A 
ATOM     20  C   UNL d   1     -38.617  13.669  21.427  0.00  0.00     0.141 A 
ATOM     21  F   UNL d   1     -38.577  13.199  20.749  0.00  0.00    -0.204 F 
ATOM     22  C   UNL d   1     -38.056  13.593  22.034  0.00  0.00     0.030 A 
ATOM     23  C   UNL d   1     -38.105  14.045  22.672  0.00  0.00     0.002 A 
ATOM     24  C   UNL d   1     -38.719  14.609  22.753  0.00  0.00     0.000 A 
ATOM     25  C   UNL d   1     -39.301  14.731  22.190  0.00  0.00     0.004 A 
ENDBRANCH   3  19
BRANCH   4  26
ATOM     26  C   UNL d   1     -41.714  13.439  21.515  0.00  0.00     0.158 A 
ATOM     27  O   UNL d   1     -42.377  13.957  21.496  0.00  0.00    -0.300 OA
ATOM     28  C   UNL d   1     -43.054  13.488  21.436  0.00  0.00     0.123 A 
ATOM     29  C   UNL d   1     -42.821  12.702  21.417  0.00  0.00     0.029 A 
ATOM     30  C   UNL d   1     -41.994  12.687  21.467  0.00  0.00     0.032 A 
ENDBRANCH   4  26
TORSDOF 5
ENDMDL
MODEL 7
REMARK VINA RESULT:      -2.4      1.176      2.791
REMARK  5 active torsions:
REMARK  status: ('A' for Active; 'I' for Inactive)
REMARK       I    between atoms: C_4  and  N_1 
REMARK    1  A    between atoms: C_8  and  C_3 
REMARK    2  A    between atoms: C_9  and  C_4 
REMARK    3  A    between atoms: S_5  and  N_10 
REMARK    4  A    between atoms: C_11  and  C_6 
REMARK    5  A    between atoms: N_10  and  C_22 
ROOT
ATOM      1  N   UNL d   1     -39.925  14.128  20.788  0.00  0.00    -0.193 N 
ATOM      2  N   UNL d   1     -39.304  14.281  20.263  0.00  0.00    -0.163 NA
ATOM      3  C   UNL d   1     -40.635  14.211  20.367  0.00  0.00     0.090 A 
ATOM      4  C   UNL d   1     -39.843  13.929  21.585  0.00  0.00     0.303 C 
ATOM      5  C   UNL d   1     -39.627  14.457  19.525  0.00  0.00     0.103 A 
ATOM      6  C   UNL d   1     -40.448  14.413  19.594  0.00  0.00     0.040 A 
ATOM      7  O   UNL d   1     -40.522  13.792  22.038  0.00  0.00    -0.263 OA
ENDROOT
BRANCH   5   8
ATOM      8  C   UNL d   1     -39.206  14.643  18.844  0.00  0.00     0.019 A 
ATOM      9  C   UNL d   1     -38.833  14.050  18.423  0.00  0.00     0.003 A 
ATOM     10  C   UNL d   1     -38.409  14.237  17.737  0.00  0.00     0.020 A 
ATOM     11  C   UNL d   1     -38.363  15.023  17.478  0.00  0.00     0.093 A 
ATOM     12  C   UNL d   1     -38.743  15.616  17.910  0.00  0.00     0.020 A 
ATOM     13  C   UNL d   1     -39.162  15.432  18.588  0.00  0.00     0.003 A 
BRANCH  11  14
ATOM     14  N   UNL d   1     -37.939  15.201  16.795  0.00  0.00    -0.162 NA
BRANCH  14  15
ATOM     15  S   UNL d   1     -38.272  15.099  16.054  0.00  0.00     0.266 S 
ATOM     16  O   UNL d   1     -38.372  15.918  16.122  0.00  0.00    -0.203 OA
ATOM     17  O   UNL d   1     -38.640  15.330  15.351  0.00  0.00    -0.203 OA
ATOM     18  C   UNL d   1     -38.184  14.287  15.963  0.00  0.00     0.165 C 
ENDBRANCH  14  15
ENDBRANCH  11  14
ENDBRANCH   5   8
BRANCH   3  19
ATOM     19  C   UNL d   1     -41.385  14.109  20.677  0.00  0.00     0.045 A 
ATOM     20  C   UNL d   1     -41.805  14.785  20.934  0.00  0.00     0.141 A 
ATOM     21  F   UNL d   1     -41.458  15.532  20.872  0.00  0.00    -0.204 F 
ATOM     22  C   UNL d   1     -42.567  14.692  21.250  0.00  0.00     0.030 A 
ATOM     23  C   UNL d   1     -42.884  13.978  21.303  0.00  0.00     0.002 A 
ATOM     24  C   UNL d   1     -42.464  13.300  21.045  0.00  0.00     0.000 A 
ATOM     25  C   UNL d   1     -41.711  13.327  20.726  0.00  0.00     0.004 A 
ENDBRANCH   3  19
BRANCH   4  26
ATOM     26  C   UNL d   1     -39.105  13.869  21.917  0.00  0.00     0.158 A 
ATOM     27  O   UNL d   1     -38.669  14.497  22.268  0.00  0.00    -0.300 OA
ATOM     28  C   UNL d   1     -37.952  14.183  22.531  0.00  0.00     0.123 A 
ATOM     29  C   UNL d   1     -37.940  13.383  22.349  0.00  0.00     0.029 A 
ATOM     30  C   UNL d   1     -38.655  13.204  21.972  0.00  0.00     0.032 A 
ENDBRANCH   4  26
TORSDOF 5
ENDMDL
MODEL 8
REMARK VINA RESULT:      -2.2      4.504      6.656
REMARK  5 active torsions:
REMARK  status: ('A' for Active; 'I' for Inactive)
REMARK       I    between atoms: C_4  and  N_1 
REMARK    1  A    between atoms: C_8  and  C_3 
REMARK    2  A    between atoms: C_9  and  C_4 
REMARK    3  A    between atoms: S_5  and  N_10 
REMARK    4  A    between atoms: C_11  and  C_6 
REMARK    5  A    between atoms: N_10  and  C_22 
ROOT
ATOM      1  N   UNL d   1     -45.028  12.261  22.581  0.00  0.00    -0.193 N 
ATOM      2  N   UNL d   1     -44.238  12.282  22.335  0.00  0.00    -0.163 NA
ATOM      3  C   UNL d   1     -45.401  12.938  22.279  0.00  0.00     0.090 A 
ATOM      4  C   UNL d   1     -45.373  11.671  23.042  0.00  0.00     0.303 C 
ATOM      5  C   UNL d   1     -44.124  12.964  21.886  0.00  0.00     0.103 A 
ATOM      6  C   UNL d   1     -44.844  13.365  21.854  0.00  0.00     0.040 A 
ATOM      7  O   UNL d   1     -46.175  11.731  23.241  0.00  0.00    -0.263 OA
ENDROOT
BRANCH   5   8
ATOM      8  C   UNL d   1     -43.420  13.200  21.535  0.00  0.00     0.019 A 
ATOM      9  C   UNL d   1     -42.842  12.645  21.369  0.00  0.00     0.003 A 
ATOM     10  C   UNL d   1     -42.133  12.884  21.015  0.00  0.00     0.020 A 
ATOM     11  C   UNL d   1     -42.008  13.681  20.829  0.00  0.00     0.093 A 
ATOM     12  C   UNL d   1     -42.597  14.235  21.000  0.00  0.00     0.020 A 
ATOM     13  C   UNL d   1     -43.298  14.001  21.350  0.00  0.00     0.003 A 
BRANCH  11  14
ATOM     14  N   UNL d   1     -41.300  13.910  20.477  0.00  0.00    -0.162 NA
BRANCH  14  15
ATOM     15  S   UNL d   1     -40.742  14.340  20.893  0.00  0.00     0.266 S 
ATOM     16  O   UNL d   1     -41.029  14.947  20.409  0.00  0.00    -0.203 OA
ATOM     17  O   UNL d   1     -40.307  15.009  21.108  0.00  0.00    -0.203 OA
ATOM     18  C   UNL d   1     -40.440  13.754  21.384  0.00  0.00     0.165 C 
ENDBRANCH  14  15
ENDBRANCH  11  14
ENDBRANCH   5   8
BRANCH   3  19
ATOM     19  C   UNL d   1     -46.187  13.136  22.389  0.00  0.00     0.045 A 
ATOM     20  C   UNL d   1     -46.372  13.736  22.943  0.00  0.00     0.141 A 
ATOM     21  F   UNL d   1     -45.765  14.110  23.360  0.00  0.00    -0.204 F 
ATOM     22  C   UNL d   1     -47.166  13.944  23.063  0.00  0.00     0.030 A 
ATOM     23  C   UNL d   1     -47.731  13.581  22.660  0.00  0.00     0.002 A 
ATOM     24  C   UNL d   1     -47.547  12.981  22.107  0.00  0.00     0.000 A 
ATOM     25  C   UNL d   1     -46.785  12.731  21.944  0.00  0.00     0.004 A 
ENDBRANCH   3  19
BRANCH   4  26
ATOM     26  C   UNL d   1     -44.930  11.039  23.296  0.00  0.00     0.158 A 
ATOM     27  O   UNL d   1     -44.101  11.046  23.443  0.00  0.00    -0.300 OA
ATOM     28  C   UNL d   1     -43.889  10.287  23.690  0.00  0.00     0.123 A 
ATOM     29  C   UNL d   1     -44.564   9.821  23.698  0.00  0.00     0.029 A 
ATOM     30  C   UNL d   1     -45.197  10.297  23.453  0.00  0.00     0.032 A 
ENDBRANCH   4  26
TORSDOF 5
ENDMDL
MODEL 9
REMARK VINA RESULT:      -1.7      7.309      9.776
REMARK  5 active torsions:
REMARK  status: ('A' for Active; 'I' for Inactive)
REMARK       I    between atoms: C_4  and  N_1 
REMARK    1  A    between atoms: C_8  and  C_3 
REMARK    2  A    between atoms: C_9  and  C_4 
REMARK    3  A    between atoms: S_5  and  N_10 
REMARK    4  A    between atoms: C_11  and  C_6 
REMARK    5  A    between atoms: N_10  and  C_22 
ROOT
ATOM      1  N   UNL d   1     -48.612  13.041  23.028  0.00  0.00    -0.193 N 
ATOM      2  N   UNL d   1     -48.084  12.417  23.160  0.00  0.00    -0.163 NA
ATOM      3  C   UNL d   1     -48.165  13.708  22.822  0.00  0.00     0.090 A 
ATOM      4  C   UNL d   1     -49.433  12.996  23.092  0.00  0.00     0.303 C 
ATOM      5  C   UNL d   1     -47.318  12.696  23.037  0.00  0.00     0.103 A 
ATOM      6  C   UNL d   1     -47.373  13.493  22.829  0.00  0.00     0.040 A 
ATOM      7  O   UNL d   1     -49.887  13.673  22.942  0.00  0.00    -0.263 OA
ENDROOT
BRANCH   5   8
ATOM      8  C   UNL d   1     -46.626  12.260  23.109  0.00  0.00     0.019 A 
ATOM      9  C   UNL d   1     -45.967  12.469  22.672  0.00  0.00     0.003 A 
ATOM     10  C   UNL d   1     -45.269  12.029  22.744  0.00  0.00     0.020 A 
ATOM     11  C   UNL d   1     -45.238  11.380  23.257  0.00  0.00     0.093 A 
ATOM     12  C   UNL d   1     -45.908  11.176  23.695  0.00  0.00     0.020 A 
ATOM     13  C   UNL d   1     -46.598  11.609  23.624  0.00  0.00     0.003 A 
BRANCH  11  14
ATOM     14  N   UNL d   1     -44.540  10.948  23.323  0.00  0.00    -0.162 NA
BRANCH  14  15
ATOM     15  S   UNL d   1     -43.823  11.268  23.094  0.00  0.00     0.266 S 
ATOM     16  O   UNL d   1     -43.542  10.721  23.649  0.00  0.00    -0.203 OA
ATOM     17  O   UNL d   1     -43.002  11.363  23.093  0.00  0.00    -0.203 OA
ATOM     18  C   UNL d   1     -44.077  11.819  22.540  0.00  0.00     0.165 C 
ENDBRANCH  14  15
ENDBRANCH  11  14
ENDBRANCH   5   8
BRANCH   3  19
ATOM     19  C   UNL d   1     -48.468  14.447  22.646  0.00  0.00     0.045 A 
ATOM     20  C   UNL d   1     -48.525  14.671  21.842  0.00  0.00     0.141 A 
ATOM     21  F   UNL d   1     -48.277  14.150  21.251  0.00  0.00    -0.204 F 
ATOM     22  C   UNL d   1     -48.832  15.419  21.652  0.00  0.00     0.030 A 
ATOM     23  C   UNL d   1     -49.063  15.903  22.222  0.00  0.00     0.002 A 
ATOM     24  C   UNL d   1     -49.006  15.679  23.026  0.00  0.00     0.000 A 
ATOM     25  C   UNL d   1     -48.714  14.957  23.277  0.00  0.00     0.004 A 
ENDBRANCH   3  19
BRANCH   4  26
ATOM     26  C   UNL d   1     -49.790  12.297  23.301  0.00  0.00     0.158 A 
ATOM     27  O   UNL d   1     -49.407  11.551  23.373  0.00  0.00    -0.300 OA
ATOM     28  C   UNL d   1     -49.982  11.000  23.595  0.00  0.00     0.123 A 
ATOM     29  C   UNL d   1     -50.701  11.390  23.659  0.00  0.00     0.029 A 
ATOM     30  C   UNL d   1     -50.567  12.187  23.475  0.00  0.00     0.032 A 
ENDBRANCH   4  26
TORSDOF 5
ENDMDL
