MODEL 1
REMARK VINA RESULT:      -8.8      0.000      0.000
REMARK  5 active torsions:
REMARK  status: ('A' for Active; 'I' for Inactive)
REMARK    1  A    between atoms: C_7  and  N_1 
REMARK    2  A    between atoms: C_15  and  C_3 
REMARK    3  A    between atoms: N_4  and  C_8 
REMARK    4  A    between atoms: C_10  and  C_11 
REMARK       I    between atoms: C_11  and  N_12 
REMARK    5  A    between atoms: N_12  and  C_15 
ROOT
ATOM      1  C   UNL d   1      52.403  33.067  52.936  0.00  0.00     0.141 C 
ENDROOT
BRANCH   1   2
ATOM      2  N   UNL d   1      51.643  33.281  52.701  0.00  0.00    -0.203 NA
ATOM      3  C   UNL d   1      51.467  34.079  52.568  0.00  0.00     0.279 C 
ATOM      4  O   UNL d   1      52.038  34.640  52.670  0.00  0.00    -0.265 OA
BRANCH   3   5
ATOM      5  C   UNL d   1      50.701  34.289  52.332  0.00  0.00     0.059 A 
ATOM      6  C   UNL d   1      50.211  34.699  52.854  0.00  0.00     0.027 A 
ATOM      7  C   UNL d   1      49.463  34.902  52.621  0.00  0.00     0.127 A 
ATOM      8  C   UNL d   1      50.497  34.891  53.600  0.00  0.00     0.002 C 
ATOM      9  C   UNL d   1      49.180  34.705  51.864  0.00  0.00     0.024 A 
ATOM     10  C   UNL d   1      49.659  34.298  51.338  0.00  0.00     0.002 A 
ATOM     11  C   UNL d   1      50.410  34.092  51.569  0.00  0.00     0.005 A 
BRANCH   7  12
ATOM     12  N   UNL d   1      48.988  35.308  53.146  0.00  0.00    -0.114 N 
ATOM     13  O   UNL d   1      48.651  34.926  53.795  0.00  0.00    -0.532 OA
ATOM     14  O   UNL d   1      48.838  36.116  53.029  0.00  0.00    -0.532 OA
ENDBRANCH   7  12
ENDBRANCH   3   5
ENDBRANCH   1   2
BRANCH   1  15
ATOM     15  C   UNL d   1      52.601  32.270  53.019  0.00  0.00     0.191 A 
ATOM     16  N   UNL d   1      53.262  31.963  53.394  0.00  0.00    -0.264 N 
ATOM     17  C   UNL d   1      53.244  31.148  53.349  0.00  0.00     0.227 A 
ATOM     18  N   UNL d   1      52.554  30.933  52.934  0.00  0.00    -0.117 NA
ATOM     19  S   UNL d   1      53.799  30.627  53.652  0.00  0.00    -0.036 SA
ATOM     20  N   UNL d   1      52.153  31.631  52.729  0.00  0.00    -0.126 NA
BRANCH  16  21
ATOM     21  C   UNL d   1      53.854  32.411  53.760  0.00  0.00     0.068 A 
ATOM     22  C   UNL d   1      53.775  32.606  54.551  0.00  0.00     0.018 A 
ATOM     23  C   UNL d   1      54.369  33.054  54.913  0.00  0.00     0.001 A 
ATOM     24  C   UNL d   1      54.304  33.260  55.714  0.00  0.00     0.000 C 
ATOM     25  C   UNL d   1      55.036  33.301  54.482  0.00  0.00     0.000 A 
ATOM     26  C   UNL d   1      55.092  33.094  53.696  0.00  0.00     0.002 A 
ATOM     27  C   UNL d   1      54.510  32.649  53.321  0.00  0.00     0.018 A 
ENDBRANCH  16  21
ENDBRANCH   1  15
TORSDOF 5
ENDMDL
MODEL 2
REMARK VINA RESULT:      -7.0      1.608      2.220
REMARK  5 active torsions:
REMARK  status: ('A' for Active; 'I' for Inactive)
REMARK    1  A    between atoms: C_7  and  N_1 
REMARK    2  A    between atoms: C_15  and  C_3 
REMARK    3  A    between atoms: N_4  and  C_8 
REMARK    4  A    between atoms: C_10  and  C_11 
REMARK       I    between atoms: C_11  and  N_12 
REMARK    5  A    between atoms: N_12  and  C_15 
ROOT
ATOM      1  C   UNL d   1      52.330  34.006  53.382  0.00  0.00     0.141 C 
ENDROOT
BRANCH   1   2
ATOM      2  N   UNL d   1      51.571  34.324  53.341  0.00  0.00    -0.203 NA
ATOM      3  C   UNL d   1      51.100  34.169  52.677  0.00  0.00     0.279 C 
ATOM      4  O   UNL d   1      51.386  33.711  52.078  0.00  0.00    -0.265 OA
BRANCH   3   5
ATOM      5  C   UNL d   1      50.337  34.492  52.642  0.00  0.00     0.059 A 
ATOM      6  C   UNL d   1      49.900  34.425  51.945  0.00  0.00     0.027 A 
ATOM      7  C   UNL d   1      49.155  34.741  51.912  0.00  0.00     0.127 A 
ATOM      8  C   UNL d   1      50.233  34.040  51.301  0.00  0.00     0.002 C 
ATOM      9  C   UNL d   1      48.823  35.130  52.568  0.00  0.00     0.024 A 
ATOM     10  C   UNL d   1      49.250  35.200  53.265  0.00  0.00     0.002 A 
ATOM     11  C   UNL d   1      49.998  34.885  53.301  0.00  0.00     0.005 A 
BRANCH   7  12
ATOM     12  N   UNL d   1      48.731  34.670  51.218  0.00  0.00    -0.114 N 
ATOM     13  O   UNL d   1      48.704  35.288  50.673  0.00  0.00    -0.532 OA
ATOM     14  O   UNL d   1      48.321  33.967  51.054  0.00  0.00    -0.532 OA
ENDBRANCH   7  12
ENDBRANCH   3   5
ENDBRANCH   1   2
BRANCH   1  15
ATOM     15  C   UNL d   1      52.817  34.180  54.026  0.00  0.00     0.191 A 
ATOM     16  N   UNL d   1      53.459  33.744  54.289  0.00  0.00    -0.264 N 
ATOM     17  C   UNL d   1      53.785  34.111  54.942  0.00  0.00     0.227 A 
ATOM     18  N   UNL d   1      53.337  34.796  55.097  0.00  0.00    -0.117 NA
ATOM     19  S   UNL d   1      54.434  33.859  55.374  0.00  0.00    -0.036 SA
ATOM     20  N   UNL d   1      52.734  34.839  54.527  0.00  0.00    -0.126 NA
BRANCH  16  21
ATOM     21  C   UNL d   1      53.734  33.043  53.945  0.00  0.00     0.068 A 
ATOM     22  C   UNL d   1      53.371  32.335  54.137  0.00  0.00     0.018 A 
ATOM     23  C   UNL d   1      53.649  31.637  53.791  0.00  0.00     0.001 A 
ATOM     24  C   UNL d   1      53.292  30.912  53.975  0.00  0.00     0.000 C 
ATOM     25  C   UNL d   1      54.287  31.654  53.257  0.00  0.00     0.000 A 
ATOM     26  C   UNL d   1      54.632  32.371  53.082  0.00  0.00     0.002 A 
ATOM     27  C   UNL d   1      54.367  33.074  53.418  0.00  0.00     0.018 A 
ENDBRANCH  16  21
ENDBRANCH   1  15
TORSDOF 5
ENDMDL
MODEL 3
REMARK VINA RESULT:      -6.9      2.636      4.747
REMARK  5 active torsions:
REMARK  status: ('A' for Active; 'I' for Inactive)
REMARK    1  A    between atoms: C_7  and  N_1 
REMARK    2  A    between atoms: C_15  and  C_3 
REMARK    3  A    between atoms: N_4  and  C_8 
REMARK    4  A    between atoms: C_10  and  C_11 
REMARK       I    between atoms: C_11  and  N_12 
REMARK    5  A    between atoms: N_12  and  C_15 
ROOT
ATOM      1  C   UNL d   1      53.732  32.978  53.705  0.00  0.00     0.141 C 
ENDROOT
BRANCH   1   2
ATOM      2  N   UNL d   1      53.529  32.225  53.970  0.00  0.00    -0.203 NA
ATOM      3  C   UNL d   1      53.773  31.562  53.537  0.00  0.00     0.279 C 
ATOM      4  O   UNL d   1      54.205  31.657  52.863  0.00  0.00    -0.265 OA
BRANCH   3   5
ATOM      5  C   UNL d   1      53.567  30.806  53.809  0.00  0.00     0.059 A 
ATOM      6  C   UNL d   1      52.993  30.371  53.405  0.00  0.00     0.027 A 
ATOM      7  C   UNL d   1      52.793  29.634  53.672  0.00  0.00     0.127 A 
ATOM      8  C   UNL d   1      52.639  30.699  52.741  0.00  0.00     0.002 C 
ATOM      9  C   UNL d   1      53.156  29.307  54.346  0.00  0.00     0.024 A 
ATOM     10  C   UNL d   1      53.726  29.731  54.754  0.00  0.00     0.002 A 
ATOM     11  C   UNL d   1      53.929  30.472  54.488  0.00  0.00     0.005 A 
BRANCH   7  12
ATOM     12  N   UNL d   1      52.225  29.212  53.265  0.00  0.00    -0.114 N 
ATOM     13  O   UNL d   1      52.435  28.688  52.664  0.00  0.00    -0.532 OA
ATOM     14  O   UNL d   1      51.422  29.309  53.456  0.00  0.00    -0.532 OA
ENDBRANCH   7  12
ENDBRANCH   3   5
ENDBRANCH   1   2
BRANCH   1  15
ATOM     15  C   UNL d   1      53.627  33.632  54.198  0.00  0.00     0.191 A 
ATOM     16  N   UNL d   1      53.097  34.248  54.093  0.00  0.00    -0.264 N 
ATOM     17  C   UNL d   1      53.175  34.779  54.708  0.00  0.00     0.227 A 
ATOM     18  N   UNL d   1      53.769  34.491  55.217  0.00  0.00    -0.117 NA
ATOM     19  S   UNL d   1      52.750  35.472  54.817  0.00  0.00    -0.036 SA
ATOM     20  N   UNL d   1      54.051  33.777  54.899  0.00  0.00    -0.126 NA
BRANCH  16  21
ATOM     21  C   UNL d   1      52.567  34.320  53.461  0.00  0.00     0.068 A 
ATOM     22  C   UNL d   1      51.789  34.088  53.565  0.00  0.00     0.018 A 
ATOM     23  C   UNL d   1      51.263  34.161  52.931  0.00  0.00     0.001 A 
ATOM     24  C   UNL d   1      50.471  33.931  53.019  0.00  0.00     0.000 C 
ATOM     25  C   UNL d   1      51.519  34.466  52.200  0.00  0.00     0.000 A 
ATOM     26  C   UNL d   1      52.298  34.690  52.122  0.00  0.00     0.002 A 
ATOM     27  C   UNL d   1      52.834  34.623  52.743  0.00  0.00     0.018 A 
ENDBRANCH  16  21
ENDBRANCH   1  15
TORSDOF 5
ENDMDL
MODEL 4
REMARK VINA RESULT:      -6.8      2.637      4.626
REMARK  5 active torsions:
REMARK  status: ('A' for Active; 'I' for Inactive)
REMARK    1  A    between atoms: C_7  and  N_1 
REMARK    2  A    between atoms: C_15  and  C_3 
REMARK    3  A    between atoms: N_4  and  C_8 
REMARK    4  A    between atoms: C_10  and  C_11 
REMARK       I    between atoms: C_11  and  N_12 
REMARK    5  A    between atoms: N_12  and  C_15 
ROOT
ATOM      1  C   UNL d   1      52.406  32.626  53.192  0.00  0.00     0.141 C 
ENDROOT
BRANCH   1   2
ATOM      2  N   UNL d   1      52.372  31.803  53.202  0.00  0.00    -0.203 NA
ATOM      3  C   UNL d   1      53.073  31.368  53.275  0.00  0.00     0.279 C 
ATOM      4  O   UNL d   1      53.781  31.750  53.335  0.00  0.00    -0.265 OA
BRANCH   3   5
ATOM      5  C   UNL d   1      53.034  30.539  53.284  0.00  0.00     0.059 A 
ATOM      6  C   UNL d   1      53.214  30.132  53.979  0.00  0.00     0.027 A 
ATOM      7  C   UNL d   1      53.174  29.323  53.986  0.00  0.00     0.127 A 
ATOM      8  C   UNL d   1      53.429  30.558  54.647  0.00  0.00     0.002 C 
ATOM      9  C   UNL d   1      52.956  28.897  53.306  0.00  0.00     0.024 A 
ATOM     10  C   UNL d   1      52.775  29.294  52.611  0.00  0.00     0.002 A 
ATOM     11  C   UNL d   1      52.814  30.105  52.601  0.00  0.00     0.005 A 
BRANCH   7  12
ATOM     12  N   UNL d   1      53.354  28.930  54.678  0.00  0.00    -0.114 N 
ATOM     13  O   UNL d   1      52.831  28.933  55.315  0.00  0.00    -0.532 OA
ATOM     14  O   UNL d   1      54.073  28.520  54.746  0.00  0.00    -0.532 OA
ENDBRANCH   7  12
ENDBRANCH   3   5
ENDBRANCH   1   2
BRANCH   1  15
ATOM     15  C   UNL d   1      51.710  33.067  53.134  0.00  0.00     0.191 A 
ATOM     16  N   UNL d   1      51.623  33.870  53.272  0.00  0.00    -0.264 N 
ATOM     17  C   UNL d   1      50.845  34.083  53.151  0.00  0.00     0.227 A 
ATOM     18  N   UNL d   1      50.426  33.396  52.931  0.00  0.00    -0.117 NA
ATOM     19  S   UNL d   1      50.521  34.832  53.230  0.00  0.00    -0.036 SA
ATOM     20  N   UNL d   1      50.965  32.764  52.920  0.00  0.00    -0.126 NA
BRANCH  16  21
ATOM     21  C   UNL d   1      52.232  34.385  53.498  0.00  0.00     0.068 A 
ATOM     22  C   UNL d   1      52.415  34.461  54.292  0.00  0.00     0.018 A 
ATOM     23  C   UNL d   1      53.023  34.976  54.514  0.00  0.00     0.001 A 
ATOM     24  C   UNL d   1      53.222  35.065  55.314  0.00  0.00     0.000 C 
ATOM     25  C   UNL d   1      53.442  35.409  53.939  0.00  0.00     0.000 A 
ATOM     26  C   UNL d   1      53.241  35.316  53.155  0.00  0.00     0.002 A 
ATOM     27  C   UNL d   1      52.638  34.808  52.919  0.00  0.00     0.018 A 
ENDBRANCH  16  21
ENDBRANCH   1  15
TORSDOF 5
ENDMDL
MODEL 5
REMARK VINA RESULT:      -6.6      1.569      2.101
REMARK  5 active torsions:
REMARK  status: ('A' for Active; 'I' for Inactive)
REMARK    1  A    between atoms: C_7  and  N_1 
REMARK    2  A    between atoms: C_15  and  C_3 
REMARK    3  A    between atoms: N_4  and  C_8 
REMARK    4  A    between atoms: C_10  and  C_11 
REMARK       I    between atoms: C_11  and  N_12 
REMARK    5  A    between atoms: N_12  and  C_15 
ROOT
ATOM      1  C   UNL d   1      50.751  34.089  53.168  0.00  0.00     0.141 C 
ENDROOT
BRANCH   1   2
ATOM      2  N   UNL d   1      50.141  34.197  52.624  0.00  0.00    -0.203 NA
ATOM      3  C   UNL d   1      49.606  34.820  52.731  0.00  0.00     0.279 C 
ATOM      4  O   UNL d   1      49.684  35.315  53.363  0.00  0.00    -0.265 OA
BRANCH   3   5
ATOM      5  C   UNL d   1      48.994  34.924  52.181  0.00  0.00     0.059 A 
ATOM      6  C   UNL d   1      48.325  35.356  52.394  0.00  0.00     0.027 A 
ATOM      7  C   UNL d   1      47.728  35.457  51.856  0.00  0.00     0.127 A 
ATOM      8  C   UNL d   1      48.280  35.675  53.150  0.00  0.00     0.002 C 
ATOM      9  C   UNL d   1      47.780  35.131  51.092  0.00  0.00     0.024 A 
ATOM     10  C   UNL d   1      48.441  34.700  50.871  0.00  0.00     0.002 A 
ATOM     11  C   UNL d   1      49.041  34.598  51.409  0.00  0.00     0.005 A 
BRANCH   7  12
ATOM     12  N   UNL d   1      47.071  35.886  52.077  0.00  0.00    -0.114 N 
ATOM     13  O   UNL d   1      47.067  36.709  52.032  0.00  0.00    -0.532 OA
ATOM     14  O   UNL d   1      46.393  35.493  52.351  0.00  0.00    -0.532 OA
ENDBRANCH   7  12
ENDBRANCH   3   5
ENDBRANCH   1   2
BRANCH   1  15
ATOM     15  C   UNL d   1      51.250  33.434  53.105  0.00  0.00     0.191 A 
ATOM     16  N   UNL d   1      52.052  33.409  53.269  0.00  0.00    -0.264 N 
ATOM     17  C   UNL d   1      52.332  32.655  53.133  0.00  0.00     0.227 A 
ATOM     18  N   UNL d   1      51.690  32.189  52.876  0.00  0.00    -0.117 NA
ATOM     19  S   UNL d   1      53.102  32.391  53.228  0.00  0.00    -0.036 SA
ATOM     20  N   UNL d   1      51.016  32.674  52.858  0.00  0.00    -0.126 NA
BRANCH  16  21
ATOM     21  C   UNL d   1      52.506  34.050  53.531  0.00  0.00     0.068 A 
ATOM     22  C   UNL d   1      52.633  34.147  54.334  0.00  0.00     0.018 A 
ATOM     23  C   UNL d   1      53.087  34.788  54.591  0.00  0.00     0.001 A 
ATOM     24  C   UNL d   1      53.225  34.902  55.401  0.00  0.00     0.000 C 
ATOM     25  C   UNL d   1      53.411  35.326  54.044  0.00  0.00     0.000 A 
ATOM     26  C   UNL d   1      53.270  35.208  53.250  0.00  0.00     0.002 A 
ATOM     27  C   UNL d   1      52.820  34.574  52.978  0.00  0.00     0.018 A 
ENDBRANCH  16  21
ENDBRANCH   1  15
TORSDOF 5
ENDMDL
MODEL 6
REMARK VINA RESULT:      -6.0      2.560      5.586
REMARK  5 active torsions:
REMARK  status: ('A' for Active; 'I' for Inactive)
REMARK    1  A    between atoms: C_7  and  N_1 
REMARK    2  A    between atoms: C_15  and  C_3 
REMARK    3  A    between atoms: N_4  and  C_8 
REMARK    4  A    between atoms: C_10  and  C_11 
REMARK       I    between atoms: C_11  and  N_12 
REMARK    5  A    between atoms: N_12  and  C_15 
ROOT
ATOM      1  C   UNL d   1      49.282  34.734  52.851  0.00  0.00     0.141 C 
ENDROOT
BRANCH   1   2
ATOM      2  N   UNL d   1      50.075  34.579  52.687  0.00  0.00    -0.203 NA
ATOM      3  C   UNL d   1      50.543  34.204  53.259  0.00  0.00     0.279 C 
ATOM      4  O   UNL d   1      50.222  33.993  53.969  0.00  0.00    -0.265 OA
BRANCH   3   5
ATOM      5  C   UNL d   1      51.340  34.051  53.089  0.00  0.00     0.059 A 
ATOM      6  C   UNL d   1      51.620  33.276  53.121  0.00  0.00     0.027 A 
ATOM      7  C   UNL d   1      52.399  33.128  52.954  0.00  0.00     0.127 A 
ATOM      8  C   UNL d   1      51.101  32.671  53.320  0.00  0.00     0.002 C 
ATOM      9  C   UNL d   1      52.920  33.745  52.753  0.00  0.00     0.024 A 
ATOM     10  C   UNL d   1      52.650  34.518  52.720  0.00  0.00     0.002 A 
ATOM     11  C   UNL d   1      51.869  34.669  52.886  0.00  0.00     0.005 A 
BRANCH   7  12
ATOM     12  N   UNL d   1      52.666  32.358  52.988  0.00  0.00    -0.114 N 
ATOM     13  O   UNL d   1      52.599  31.857  52.336  0.00  0.00    -0.532 OA
ATOM     14  O   UNL d   1      53.011  32.069  53.686  0.00  0.00    -0.532 OA
ENDBRANCH   7  12
ENDBRANCH   3   5
ENDBRANCH   1   2
BRANCH   1  15
ATOM     15  C   UNL d   1      48.771  34.959  52.243  0.00  0.00     0.191 A 
ATOM     16  N   UNL d   1      48.106  35.433  52.309  0.00  0.00    -0.264 N 
ATOM     17  C   UNL d   1      47.761  35.518  51.574  0.00  0.00     0.227 A 
ATOM     18  N   UNL d   1      48.219  35.086  51.028  0.00  0.00    -0.117 NA
ATOM     19  S   UNL d   1      47.086  35.947  51.394  0.00  0.00    -0.036 SA
ATOM     20  N   UNL d   1      48.848  34.738  51.444  0.00  0.00    -0.126 NA
BRANCH  16  21
ATOM     21  C   UNL d   1      47.829  35.772  53.011  0.00  0.00     0.068 A 
ATOM     22  C   UNL d   1      47.132  35.497  53.340  0.00  0.00     0.018 A 
ATOM     23  C   UNL d   1      46.859  35.839  54.042  0.00  0.00     0.001 A 
ATOM     24  C   UNL d   1      46.155  35.572  54.388  0.00  0.00     0.000 C 
ATOM     25  C   UNL d   1      47.286  36.453  54.408  0.00  0.00     0.000 A 
ATOM     26  C   UNL d   1      47.977  36.709  54.062  0.00  0.00     0.002 A 
ATOM     27  C   UNL d   1      48.262  36.379  53.364  0.00  0.00     0.018 A 
ENDBRANCH  16  21
ENDBRANCH   1  15
TORSDOF 5
ENDMDL
