MODEL 1
REMARK VINA RESULT:      77.5      0.000      0.000
REMARK  3 active torsions:
REMARK  status: ('A' for Active; 'I' for Inactive)
REMARK    1  A    between atoms: C_5  and  S_1 
REMARK    2  A    between atoms: N_7  and  S_1 
REMARK       I    between atoms: N_2  and  C_3 
REMARK    3  A    between atoms: C_3  and  C_9 
ROOT
ATOM      1  C   UNL d   1      60.659  48.330  50.698  0.00  0.00     0.104 A 
ATOM      2  C   UNL d   1      59.583  49.239  50.465  0.00  0.00     0.059 A 
ATOM      3  C   UNL d   1      59.993  48.550  50.266  0.00  0.00     0.018 A 
ATOM      4  C   UNL d   1      60.918  48.794  51.327  0.00  0.00     0.012 A 
ATOM      5  C   UNL d   1      59.840  49.707  51.095  0.00  0.00     0.005 A 
ATOM      6  C   UNL d   1      60.508  49.483  51.525  0.00  0.00     0.001 A 
ATOM      7  C   UNL d   1      61.583  48.574  51.758  0.00  0.00     0.001 C 
ENDROOT
BRANCH   1   8
ATOM      8  S   UNL d   1      61.065  47.648  50.501  0.00  0.00     0.272 S 
ATOM      9  O   UNL d   1      60.603  47.176  51.186  0.00  0.00    -0.200 OA
ATOM     10  O   UNL d   1      61.466  48.058  49.906  0.00  0.00    -0.200 OA
BRANCH   8  11
ATOM     11  N   UNL d   1      61.445  46.927  50.347  0.00  0.00    -0.225 N 
ATOM     12  C   UNL d   1      61.206  46.251  50.740  0.00  0.00     0.118 A 
ATOM     13  C   UNL d   1      61.583  45.534  50.587  0.00  0.00     0.142 A 
ATOM     14  O   UNL d   1      62.203  45.500  50.037  0.00  0.00    -0.300 OA
ATOM     15  C   UNL d   1      62.438  46.190  49.645  0.00  0.00     0.142 A 
ATOM     16  C   UNL d   1      62.058  46.911  49.798  0.00  0.00     0.118 A 
ENDBRANCH   8  11
ENDBRANCH   1   8
BRANCH   2  17
ATOM     17  C   UNL d   1      58.916  49.466  50.038  0.00  0.00     0.280 C 
ATOM     18  N   UNL d   1      58.177  49.452  50.394  0.00  0.00    -0.195 N 
ATOM     19  N   UNL d   1      57.470  49.658  50.050  0.00  0.00    -0.163 NA
ATOM     20  C   UNL d   1      58.030  49.221  51.175  0.00  0.00     0.088 A 
ATOM     21  C   UNL d   1      56.866  49.562  50.604  0.00  0.00     0.103 A 
ATOM     22  C   UNL d   1      56.065  49.708  50.487  0.00  0.00     0.022 C 
ATOM     23  C   UNL d   1      57.215  49.291  51.300  0.00  0.00     0.040 A 
ATOM     24  C   UNL d   1      58.590  48.968  51.728  0.00  0.00     0.021 C 
ATOM     25  O   UNL d   1      58.992  49.707  49.256  0.00  0.00    -0.265 OA
ENDBRANCH   2  17
TORSDOF 3
ENDMDL
MODEL 2
REMARK VINA RESULT:      77.9      1.314      4.239
REMARK  3 active torsions:
REMARK  status: ('A' for Active; 'I' for Inactive)
REMARK    1  A    between atoms: C_5  and  S_1 
REMARK    2  A    between atoms: N_7  and  S_1 
REMARK       I    between atoms: N_2  and  C_3 
REMARK    3  A    between atoms: C_3  and  C_9 
ROOT
ATOM      1  C   UNL d   1      59.797  49.290  51.119  0.00  0.00     0.104 A 
ATOM      2  C   UNL d   1      61.149  48.955  50.808  0.00  0.00     0.059 A 
ATOM      3  C   UNL d   1      60.362  49.042  50.574  0.00  0.00     0.018 A 
ATOM      4  C   UNL d   1      60.014  49.452  51.897  0.00  0.00     0.012 A 
ATOM      5  C   UNL d   1      61.370  49.116  51.587  0.00  0.00     0.005 A 
ATOM      6  C   UNL d   1      60.801  49.365  52.131  0.00  0.00     0.001 A 
ATOM      7  C   UNL d   1      59.449  49.700  52.441  0.00  0.00     0.001 C 
ENDROOT
BRANCH   1   8
ATOM      8  S   UNL d   1      59.017  49.377  50.887  0.00  0.00     0.272 S 
ATOM      9  O   UNL d   1      58.768  49.546  51.789  0.00  0.00    -0.200 OA
ATOM     10  O   UNL d   1      59.234  49.230  50.103  0.00  0.00    -0.200 OA
BRANCH   8  11
ATOM     11  N   UNL d   1      58.213  49.475  50.712  0.00  0.00    -0.225 N 
ATOM     12  C   UNL d   1      57.979  49.588  49.936  0.00  0.00     0.118 A 
ATOM     13  C   UNL d   1      57.179  49.686  49.760  0.00  0.00     0.142 A 
ATOM     14  O   UNL d   1      56.616  49.670  50.369  0.00  0.00    -0.300 OA
ATOM     15  C   UNL d   1      56.862  49.554  51.150  0.00  0.00     0.142 A 
ATOM     16  C   UNL d   1      57.667  49.456  51.327  0.00  0.00     0.118 A 
ENDBRANCH   8  11
ENDBRANCH   1   8
BRANCH   2  17
ATOM     17  C   UNL d   1      61.721  48.707  50.268  0.00  0.00     0.280 C 
ATOM     18  N   UNL d   1      61.827  47.907  50.123  0.00  0.00    -0.195 N 
ATOM     19  N   UNL d   1      62.364  47.576  49.610  0.00  0.00    -0.163 NA
ATOM     20  C   UNL d   1      61.398  47.297  50.481  0.00  0.00     0.088 A 
ATOM     21  C   UNL d   1      62.284  46.755  49.635  0.00  0.00     0.103 A 
ATOM     22  C   UNL d   1      62.719  46.206  49.203  0.00  0.00     0.022 C 
ATOM     23  C   UNL d   1      61.684  46.584  50.175  0.00  0.00     0.040 A 
ATOM     24  C   UNL d   1      60.794  47.382  51.040  0.00  0.00     0.021 C 
ATOM     25  O   UNL d   1      62.183  49.263  49.877  0.00  0.00    -0.265 OA
ENDBRANCH   2  17
TORSDOF 3
ENDMDL
