MODEL 1
REMARK VINA RESULT:      -6.6      0.000      0.000
REMARK  4 active torsions:
REMARK  status: ('A' for Active; 'I' for Inactive)
REMARK    1  A    between atoms: C_7  and  N_1 
REMARK    2  A    between atoms: N_6  and  C_2 
REMARK    3  A    between atoms: C_10  and  N_6 
REMARK    4  A    between atoms: C_12  and  C_7 
ROOT
ATOM      1  N   UNL d   1     -41.192-122.442 -51.514  0.00  0.00    -0.239 N 
ATOM      2  C   UNL d   1     -41.320-122.709 -52.831  0.00  0.00     0.151 A 
ATOM      3  C   UNL d   1     -41.276-123.074 -52.062  0.00  0.00     0.285 A 
ATOM      4  C   UNL d   1     -41.187-121.697 -51.960  0.00  0.00     0.269 A 
ATOM      5  C   UNL d   1     -41.266-121.894 -52.750  0.00  0.00     0.086 A 
ATOM      6  O   UNL d   1     -41.307-123.751 -51.965  0.00  0.00    -0.265 OA
ATOM      7  O   UNL d   1     -41.123-121.149 -51.584  0.00  0.00    -0.267 OA
ENDROOT
BRANCH   2   8
ATOM      8  N   UNL d   1     -41.405-123.094 -53.562  0.00  0.00    -0.181 N 
ATOM      9  O   UNL d   1     -41.218-123.817 -53.460  0.00  0.00    -0.080 OA
BRANCH   8  10
ATOM     10  C   UNL d   1     -41.657-122.672 -54.226  0.00  0.00     0.090 A 
ATOM     11  C   UNL d   1     -42.433-122.382 -54.282  0.00  0.00     0.020 A 
ATOM     12  C   UNL d   1     -42.678-121.956 -54.957  0.00  0.00     0.002 A 
ATOM     13  C   UNL d   1     -42.155-121.813 -55.587  0.00  0.00     0.000 A 
ATOM     14  C   UNL d   1     -41.380-122.103 -55.529  0.00  0.00     0.002 A 
ATOM     15  C   UNL d   1     -41.129-122.528 -54.861  0.00  0.00     0.020 A 
ENDBRANCH   8  10
ENDBRANCH   2   8
BRANCH   1  16
ATOM     16  C   UNL d   1     -41.125-122.422 -50.738  0.00  0.00     0.086 C 
BRANCH  16  17
ATOM     17  C   UNL d   1     -41.732-122.681 -50.264  0.00  0.00     0.018 A 
ATOM     18  C   UNL d   1     -42.469-122.343 -50.331  0.00  0.00     0.002 A 
ATOM     19  C   UNL d   1     -43.076-122.602 -49.857  0.00  0.00     0.000 A 
ATOM     20  C   UNL d   1     -42.954-123.192 -49.320  0.00  0.00     0.000 A 
ATOM     21  C   UNL d   1     -42.205-123.535 -49.252  0.00  0.00     0.000 A 
ATOM     22  C   UNL d   1     -41.586-123.276 -49.730  0.00  0.00     0.002 A 
ENDBRANCH  16  17
ENDBRANCH   1  16
TORSDOF 4
ENDMDL
MODEL 2
REMARK VINA RESULT:      -5.4      0.640      4.213
REMARK  4 active torsions:
REMARK  status: ('A' for Active; 'I' for Inactive)
REMARK    1  A    between atoms: C_7  and  N_1 
REMARK    2  A    between atoms: N_6  and  C_2 
REMARK    3  A    between atoms: C_10  and  N_6 
REMARK    4  A    between atoms: C_12  and  C_7 
ROOT
ATOM      1  N   UNL d   1     -41.225-122.522 -53.139  0.00  0.00    -0.239 N 
ATOM      2  C   UNL d   1     -41.391-122.323 -51.814  0.00  0.00     0.151 A 
ATOM      3  C   UNL d   1     -41.280-121.918 -52.555  0.00  0.00     0.285 A 
ATOM      4  C   UNL d   1     -41.303-123.289 -52.740  0.00  0.00     0.269 A 
ATOM      5  C   UNL d   1     -41.402-123.133 -51.944  0.00  0.00     0.086 A 
ATOM      6  O   UNL d   1     -41.250-121.236 -52.612  0.00  0.00    -0.265 OA
ATOM      7  O   UNL d   1     -41.268-123.817 -53.146  0.00  0.00    -0.267 OA
ENDROOT
BRANCH   2   8
ATOM      8  N   UNL d   1     -41.478-121.975 -51.064  0.00  0.00    -0.181 N 
ATOM      9  O   UNL d   1     -41.124-121.310 -51.081  0.00  0.00    -0.080 OA
BRANCH   8  10
ATOM     10  C   UNL d   1     -41.897-122.370 -50.470  0.00  0.00     0.090 A 
ATOM     11  C   UNL d   1     -41.503-122.726 -49.832  0.00  0.00     0.020 A 
ATOM     12  C   UNL d   1     -41.934-123.122 -49.237  0.00  0.00     0.002 A 
ATOM     13  C   UNL d   1     -42.764-123.169 -49.268  0.00  0.00     0.000 A 
ATOM     14  C   UNL d   1     -43.155-122.812 -49.907  0.00  0.00     0.002 A 
ATOM     15  C   UNL d   1     -42.732-122.417 -50.503  0.00  0.00     0.020 A 
ENDBRANCH   8  10
ENDBRANCH   2   8
BRANCH   1  16
ATOM     16  C   UNL d   1     -41.123-122.502 -53.911  0.00  0.00     0.086 C 
BRANCH  16  17
ATOM     17  C   UNL d   1     -41.748-122.342 -54.406  0.00  0.00     0.018 A 
ATOM     18  C   UNL d   1     -42.006-121.575 -54.494  0.00  0.00     0.002 A 
ATOM     19  C   UNL d   1     -42.630-121.415 -54.989  0.00  0.00     0.000 A 
ATOM     20  C   UNL d   1     -42.996-122.010 -55.393  0.00  0.00     0.000 A 
ATOM     21  C   UNL d   1     -42.734-122.788 -55.303  0.00  0.00     0.000 A 
ATOM     22  C   UNL d   1     -42.101-122.956 -54.802  0.00  0.00     0.002 A 
ENDBRANCH  16  17
ENDBRANCH   1  16
TORSDOF 4
ENDMDL
