MODEL 1
REMARK VINA RESULT:      -5.2      0.000      0.000
REMARK  4 active torsions:
REMARK  status: ('A' for Active; 'I' for Inactive)
REMARK    1  A    between atoms: N_2  and  S_1 
REMARK    2  A    between atoms: C_3  and  S_1 
REMARK    3  A    between atoms: C_11  and  N_2 
REMARK    4  A    between atoms: C_6  and  C_7 
ROOT
ATOM      1  S   UNL d   1     -41.543-122.429 -51.156  0.00  0.00     0.285 S 
ATOM      2  O   UNL d   1     -41.958-121.725 -51.044  0.00  0.00    -0.198 OA
ATOM      3  O   UNL d   1     -41.128-123.133 -51.269  0.00  0.00    -0.198 OA
ENDROOT
BRANCH   1   4
ATOM      4  N   UNL d   1     -41.124-122.083 -51.777  0.00  0.00    -0.158 NA
BRANCH   4   5
ATOM      5  C   UNL d   1     -41.401-122.137 -52.552  0.00  0.00     0.094 A 
ATOM      6  C   UNL d   1     -41.936-121.581 -52.845  0.00  0.00     0.020 A 
ATOM      7  C   UNL d   1     -42.211-121.638 -53.618  0.00  0.00     0.005 A 
ATOM      8  C   UNL d   1     -41.948-122.259 -54.108  0.00  0.00     0.039 A 
ATOM      9  C   UNL d   1     -41.414-122.815 -53.815  0.00  0.00     0.005 A 
ATOM     10  C   UNL d   1     -41.136-122.761 -53.041  0.00  0.00     0.020 A 
BRANCH   8  11
ATOM     11  C   UNL d   1     -42.223-122.323 -54.893  0.00  0.00     0.196 C 
ATOM     12  O   UNL d   1     -42.924-122.722 -55.053  0.00  0.00    -0.287 OA
ATOM     13  C   UNL d   1     -41.791-121.983 -55.526  0.00  0.00     0.045 C 
ENDBRANCH   8  11
ENDBRANCH   4   5
ENDBRANCH   1   4
BRANCH   1  14
ATOM     14  C   UNL d   1     -41.963-122.775 -50.536  0.00  0.00     0.105 A 
ATOM     15  C   UNL d   1     -41.684-123.463 -50.191  0.00  0.00     0.013 A 
ATOM     16  C   UNL d   1     -42.110-123.815 -49.561  0.00  0.00     0.001 A 
ATOM     17  C   UNL d   1     -42.804-123.469 -49.293  0.00  0.00     0.000 A 
ATOM     18  C   UNL d   1     -43.087-122.773 -49.641  0.00  0.00     0.001 A 
ATOM     19  C   UNL d   1     -43.224-123.815 -48.672  0.00  0.00     0.000 C 
ATOM     20  C   UNL d   1     -42.661-122.422 -50.271  0.00  0.00     0.013 A 
ENDBRANCH   1  14
TORSDOF 4
ENDMDL
