MODEL 1
REMARK VINA RESULT:       0.9      0.000      0.000
REMARK  12 active torsions:
REMARK  status: ('A' for Active; 'I' for Inactive)
REMARK    1  A    between atoms: C_7  and  C_1 
REMARK    2  A    between atoms: C_8  and  N_2 
REMARK    3  A    between atoms: C_6  and  C_5 
REMARK    4  A    between atoms: C_9  and  C_7 
REMARK    5  A    between atoms: C_24  and  C_8 
REMARK    6  A    between atoms: C_12  and  C_9 
REMARK    7  A    between atoms: C_11  and  C_12 
REMARK    8  A    between atoms: O_27  and  C_13 
REMARK    9  A    between atoms: N_14  and  C_24 
REMARK   10  A    between atoms: O_28  and  C_18 
REMARK   11  A    between atoms: C_33  and  O_28 
REMARK   12  A    between atoms: C_35  and  C_33 
ROOT
ATOM      1  C   UNL d   1      33.140  21.049 -20.448  0.00  0.00     0.099 A 
ATOM      2  N   UNL d   1      33.199  19.989 -21.259  0.00  0.00    -0.269 N 
ATOM      3  C   UNL d   1      33.169  20.365 -19.986  0.00  0.00     0.256 A 
ATOM      4  C   UNL d   1      33.205  19.711 -20.482  0.00  0.00     0.304 A 
ATOM      5  C   UNL d   1      33.159  20.815 -21.239  0.00  0.00     0.073 A 
ATOM      6  O   UNL d   1      33.241  18.922 -20.248  0.00  0.00    -0.263 OA
ATOM      7  O   UNL d   1      33.162  20.344 -19.163  0.00  0.00    -0.281 OA
ENDROOT
BRANCH   5   8
ATOM      8  C   UNL d   1      33.141  21.311 -21.894  0.00  0.00     0.018 A 
ATOM      9  C   UNL d   1      33.027  22.113 -21.798  0.00  0.00     0.028 A 
ATOM     10  C   UNL d   1      33.009  22.609 -22.453  0.00  0.00     0.117 A 
ATOM     11  C   UNL d   1      33.108  22.290 -23.216  0.00  0.00     0.122 A 
ATOM     12  C   UNL d   1      33.223  21.479 -23.308  0.00  0.00     0.027 A 
ATOM     13  C   UNL d   1      33.240  20.983 -22.645  0.00  0.00     0.004 A 
BRANCH  10  14
ATOM     14  O   UNL d   1      32.894  23.416 -22.357  0.00  0.00    -0.326 OA
ATOM     15  C   UNL d   1      32.168  23.699 -22.076  0.00  0.00     0.181 C 
ENDBRANCH  10  14
BRANCH  11  16
ATOM     16  O   UNL d   1      33.090  22.786 -23.871  0.00  0.00    -0.303 OA
BRANCH  16  17
ATOM     17  C   UNL d   1      32.849  22.487 -24.606  0.00  0.00     0.123 C 
BRANCH  17  18
ATOM     18  C   UNL d   1      32.367  22.942 -25.096  0.00  0.00     0.027 C 
ATOM     19  C   UNL d   1      32.155  23.701 -24.865  0.00  0.00     0.002 C 
ENDBRANCH  17  18
ENDBRANCH  16  17
ENDBRANCH  11  16
ENDBRANCH   5   8
BRANCH   2  20
ATOM     20  C   UNL d   1      33.228  19.523 -21.940  0.00  0.00     0.102 C 
BRANCH  20  21
ATOM     21  C   UNL d   1      32.556  19.113 -22.191  0.00  0.00     0.100 C 
BRANCH  21  22
ATOM     22  N   UNL d   1      32.636  18.415 -22.615  0.00  0.00    -0.298 N 
ATOM     23  C   UNL d   1      32.286  18.348 -23.350  0.00  0.00     0.107 A 
ATOM     24  C   UNL d   1      32.366  17.645 -23.779  0.00  0.00     0.142 A 
ATOM     25  O   UNL d   1      32.798  17.017 -23.464  0.00  0.00    -0.300 OA
ATOM     26  C   UNL d   1      33.150  17.090 -22.721  0.00  0.00     0.142 A 
ATOM     27  C   UNL d   1      33.071  17.786 -22.297  0.00  0.00     0.107 A 
ENDBRANCH  21  22
ENDBRANCH  20  21
ENDBRANCH   2  20
BRANCH   1  28
ATOM     28  C   UNL d   1      33.100  21.819 -20.174  0.00  0.00     0.200 C 
ATOM     29  O   UNL d   1      33.010  22.446 -20.706  0.00  0.00    -0.286 OA
BRANCH  28  30
ATOM     30  C   UNL d   1      33.151  21.973 -19.361  0.00  0.00     0.044 C 
BRANCH  30  31
ATOM     31  C   UNL d   1      32.725  22.604 -19.033  0.00  0.00     0.028 C 
BRANCH  31  32
ATOM     32  C   UNL d   1      32.765  22.746 -18.230  0.00  0.00     0.100 A 
ATOM     33  O   UNL d   1      32.377  22.325 -17.643  0.00  0.00    -0.305 OA
ATOM     34  C   UNL d   1      32.573  22.656 -16.909  0.00  0.00     0.123 A 
ATOM     35  C   UNL d   1      33.084  23.284 -17.043  0.00  0.00     0.029 A 
ATOM     36  C   UNL d   1      33.206  23.344 -17.862  0.00  0.00     0.027 A 
ENDBRANCH  31  32
ENDBRANCH  30  31
ENDBRANCH  28  30
ENDBRANCH   1  28
TORSDOF 12
ENDMDL
