MODEL 1
REMARK VINA RESULT:      58.7      0.000      0.000
REMARK  10 active torsions:
REMARK  status: ('A' for Active; 'I' for Inactive)
REMARK    1  A    between atoms: C_11  and  C_1 
REMARK    2  A    between atoms: C_21  and  N_5 
REMARK    3  A    between atoms: N_20  and  C_8 
REMARK    4  A    between atoms: C_9  and  C_11 
REMARK    5  A    between atoms: C_25  and  N_20 
REMARK    6  A    between atoms: C_28  and  C_21 
REMARK    7  A    between atoms: C_22  and  C_25 
REMARK    8  A    between atoms: C_26  and  C_22 
REMARK    9  A    between atoms: O_24  and  C_26 
REMARK   10  A    between atoms: C_27  and  O_24 
ROOT
ATOM      1  C   UNL d   1      46.074 -17.725  42.085  0.00  0.00     0.093 A 
ATOM      2  N   UNL d   1      46.360 -19.012  42.655  0.00  0.00    -0.258 N 
ATOM      3  N   UNL d   1      45.790 -17.980  43.479  0.00  0.00    -0.209 NA
ATOM      4  C   UNL d   1      46.074 -18.752  43.398  0.00  0.00     0.152 A 
ATOM      5  C   UNL d   1      46.364 -18.508  41.996  0.00  0.00     0.269 A 
ATOM      6  C   UNL d   1      45.787 -17.460  42.826  0.00  0.00     0.169 A 
ATOM      7  C   UNL d   1      46.075 -19.262  44.042  0.00  0.00     0.035 A 
ATOM      8  C   UNL d   1      46.644 -19.785  42.575  0.00  0.00     0.084 A 
ATOM      9  O   UNL d   1      46.644 -18.766  41.274  0.00  0.00    -0.266 OA
ATOM     10  C   UNL d   1      46.641 -20.290  43.230  0.00  0.00     0.019 A 
ATOM     11  C   UNL d   1      46.358 -20.030  43.960  0.00  0.00     0.005 A 
ATOM     12  C   UNL d   1      45.793 -19.001  44.772  0.00  0.00     0.003 C 
ENDROOT
BRANCH   1  13
ATOM     13  C   UNL d   1      46.070 -17.213  41.445  0.00  0.00     0.019 C 
BRANCH  13  14
ATOM     14  C   UNL d   1      45.609 -17.391  40.784  0.00  0.00     0.088 A 
ATOM     15  C   UNL d   1      45.872 -17.404  40.001  0.00  0.00     0.272 A 
ATOM     16  N   UNL d   1      45.233 -17.608  39.518  0.00  0.00    -0.259 N 
ATOM     17  O   UNL d   1      46.642 -17.239  39.742  0.00  0.00    -0.266 OA
ATOM     18  C   UNL d   1      44.571 -17.723  40.011  0.00  0.00     0.153 A 
ATOM     19  S   UNL d   1      44.813 -17.587  40.789  0.00  0.00    -0.053 SA
ATOM     20  S   UNL d   1      43.821 -17.932  39.764  0.00  0.00    -0.052 SA
BRANCH  16  21
ATOM     21  C   UNL d   1      45.242 -17.686  38.700  0.00  0.00     0.084 C 
BRANCH  21  22
ATOM     22  C   UNL d   1      44.752 -17.204  38.236  0.00  0.00     0.019 C 
ATOM     23  C   UNL d   1      45.065 -16.787  37.596  0.00  0.00     0.002 C 
ENDBRANCH  21  22
ENDBRANCH  16  21
ENDBRANCH  13  14
ENDBRANCH   1  13
BRANCH   6  24
ATOM     24  N   UNL d   1      45.503 -16.691  42.908  0.00  0.00    -0.225 NA
BRANCH  24  25
ATOM     25  C   UNL d   1      45.946 -16.126  43.303  0.00  0.00     0.103 C 
BRANCH  25  26
ATOM     26  C   UNL d   1      45.681 -15.815  44.018  0.00  0.00     0.047 C 
BRANCH  26  27
ATOM     27  C   UNL d   1      45.995 -15.111  44.302  0.00  0.00     0.124 C 
BRANCH  27  28
ATOM     28  O   UNL d   1      45.765 -14.394  43.969  0.00  0.00    -0.303 OA
BRANCH  28  29
ATOM     29  C   UNL d   1      46.201 -13.705  44.124  0.00  0.00     0.123 C 
ATOM     30  C   UNL d   1      45.970 -12.988  43.786  0.00  0.00     0.029 C 
ENDBRANCH  28  29
ENDBRANCH  27  28
ENDBRANCH  26  27
ENDBRANCH  25  26
ENDBRANCH  24  25
ENDBRANCH   6  24
TORSDOF 10
ENDMDL
MODEL 2
REMARK VINA RESULT:      60.2      1.532      4.096
REMARK  10 active torsions:
REMARK  status: ('A' for Active; 'I' for Inactive)
REMARK    1  A    between atoms: C_11  and  C_1 
REMARK    2  A    between atoms: C_21  and  N_5 
REMARK    3  A    between atoms: N_20  and  C_8 
REMARK    4  A    between atoms: C_9  and  C_11 
REMARK    5  A    between atoms: C_25  and  N_20 
REMARK    6  A    between atoms: C_28  and  C_21 
REMARK    7  A    between atoms: C_22  and  C_25 
REMARK    8  A    between atoms: C_26  and  C_22 
REMARK    9  A    between atoms: O_24  and  C_26 
REMARK   10  A    between atoms: C_27  and  O_24 
ROOT
ATOM      1  C   UNL d   1      46.458 -17.469  43.524  0.00  0.00     0.093 A 
ATOM      2  N   UNL d   1      46.319 -18.705  44.244  0.00  0.00    -0.258 N 
ATOM      3  N   UNL d   1      46.126 -18.686  42.818  0.00  0.00    -0.209 NA
ATOM      4  C   UNL d   1      46.143 -19.107  43.530  0.00  0.00     0.152 A 
ATOM      5  C   UNL d   1      46.476 -17.891  44.251  0.00  0.00     0.269 A 
ATOM      6  C   UNL d   1      46.282 -17.866  42.808  0.00  0.00     0.169 A 
ATOM      7  C   UNL d   1      45.989 -19.913  43.537  0.00  0.00     0.035 A 
ATOM      8  C   UNL d   1      46.335 -19.126  44.955  0.00  0.00     0.084 A 
ATOM      9  O   UNL d   1      46.647 -17.504  44.948  0.00  0.00    -0.266 OA
ATOM     10  C   UNL d   1      46.178 -19.939  44.952  0.00  0.00     0.019 A 
ATOM     11  C   UNL d   1      46.006 -20.330  44.246  0.00  0.00     0.005 A 
ATOM     12  C   UNL d   1      45.816 -20.304  42.832  0.00  0.00     0.003 C 
ENDROOT
BRANCH   1  13
ATOM     13  C   UNL d   1      46.611 -16.664  43.513  0.00  0.00     0.019 C 
BRANCH  13  14
ATOM     14  C   UNL d   1      46.054 -16.139  43.820  0.00  0.00     0.088 A 
ATOM     15  C   UNL d   1      46.035 -15.324  43.691  0.00  0.00     0.272 A 
ATOM     16  N   UNL d   1      45.388 -15.012  44.100  0.00  0.00    -0.259 N 
ATOM     17  O   UNL d   1      46.570 -14.890  43.230  0.00  0.00    -0.266 OA
ATOM     18  C   UNL d   1      45.006 -15.644  44.486  0.00  0.00     0.153 A 
ATOM     19  S   UNL d   1      45.423 -16.335  44.308  0.00  0.00    -0.053 SA
ATOM     20  S   UNL d   1      44.339 -15.587  44.955  0.00  0.00    -0.052 SA
BRANCH  16  21
ATOM     21  C   UNL d   1      45.157 -14.224  44.127  0.00  0.00     0.084 C 
BRANCH  21  22
ATOM     22  C   UNL d   1      45.728 -13.627  44.047  0.00  0.00     0.019 C 
ATOM     23  C   UNL d   1      45.660 -12.928  44.481  0.00  0.00     0.002 C 
ENDBRANCH  21  22
ENDBRANCH  16  21
ENDBRANCH  13  14
ENDBRANCH   1  13
BRANCH   6  24
ATOM     24  N   UNL d   1      46.265 -17.449  42.098  0.00  0.00    -0.225 NA
BRANCH  24  25
ATOM     25  C   UNL d   1      46.568 -17.781  41.414  0.00  0.00     0.103 C 
BRANCH  25  26
ATOM     26  C   UNL d   1      46.080 -18.216  40.912  0.00  0.00     0.047 C 
BRANCH  26  27
ATOM     27  C   UNL d   1      45.451 -17.851  40.531  0.00  0.00     0.124 C 
BRANCH  27  28
ATOM     28  O   UNL d   1      45.582 -17.410  39.848  0.00  0.00    -0.303 OA
BRANCH  28  29
ATOM     29  C   UNL d   1      44.970 -17.302  39.298  0.00  0.00     0.123 C 
ATOM     30  C   UNL d   1      45.127 -17.364  38.491  0.00  0.00     0.029 C 
ENDBRANCH  28  29
ENDBRANCH  27  28
ENDBRANCH  26  27
ENDBRANCH  25  26
ENDBRANCH  24  25
ENDBRANCH   6  24
TORSDOF 10
ENDMDL
MODEL 3
REMARK VINA RESULT:      60.9      2.548      4.627
REMARK  10 active torsions:
REMARK  status: ('A' for Active; 'I' for Inactive)
REMARK    1  A    between atoms: C_11  and  C_1 
REMARK    2  A    between atoms: C_21  and  N_5 
REMARK    3  A    between atoms: N_20  and  C_8 
REMARK    4  A    between atoms: C_9  and  C_11 
REMARK    5  A    between atoms: C_25  and  N_20 
REMARK    6  A    between atoms: C_28  and  C_21 
REMARK    7  A    between atoms: C_22  and  C_25 
REMARK    8  A    between atoms: C_26  and  C_22 
REMARK    9  A    between atoms: O_24  and  C_26 
REMARK   10  A    between atoms: C_27  and  O_24 
ROOT
ATOM      1  C   UNL d   1      45.218 -15.950  44.781  0.00  0.00     0.093 A 
ATOM      2  N   UNL d   1      45.907 -14.700  44.620  0.00  0.00    -0.258 N 
ATOM      3  N   UNL d   1      44.479 -14.708  44.791  0.00  0.00    -0.209 NA
ATOM      4  C   UNL d   1      45.181 -14.286  44.680  0.00  0.00     0.152 A 
ATOM      5  C   UNL d   1      45.935 -15.527  44.669  0.00  0.00     0.269 A 
ATOM      6  C   UNL d   1      44.489 -15.540  44.842  0.00  0.00     0.169 A 
ATOM      7  C   UNL d   1      45.168 -13.467  44.630  0.00  0.00     0.035 A 
ATOM      8  C   UNL d   1      46.610 -14.277  44.510  0.00  0.00     0.084 A 
ATOM      9  O   UNL d   1      46.645 -15.926  44.610  0.00  0.00    -0.266 OA
ATOM     10  C   UNL d   1      46.585 -13.452  44.461  0.00  0.00     0.019 A 
ATOM     11  C   UNL d   1      45.868 -13.049  44.521  0.00  0.00     0.005 A 
ATOM     12  C   UNL d   1      44.451 -13.063  44.690  0.00  0.00     0.003 C 
ENDROOT
BRANCH   1  13
ATOM     13  C   UNL d   1      45.227 -16.768  44.832  0.00  0.00     0.019 C 
BRANCH  13  14
ATOM     14  C   UNL d   1      45.554 -17.210  44.217  0.00  0.00     0.088 A 
ATOM     15  C   UNL d   1      45.824 -17.988  44.272  0.00  0.00     0.272 A 
ATOM     16  N   UNL d   1      46.107 -18.217  43.529  0.00  0.00    -0.259 N 
ATOM     17  O   UNL d   1      45.815 -18.461  44.953  0.00  0.00    -0.266 OA
ATOM     18  C   UNL d   1      46.009 -17.570  43.013  0.00  0.00     0.153 A 
ATOM     19  S   UNL d   1      45.667 -16.954  43.445  0.00  0.00    -0.053 SA
ATOM     20  S   UNL d   1      46.215 -17.553  42.222  0.00  0.00    -0.052 SA
BRANCH  16  21
ATOM     21  C   UNL d   1      46.428 -18.946  43.329  0.00  0.00     0.084 C 
BRANCH  21  22
ATOM     22  C   UNL d   1      46.055 -19.416  42.756  0.00  0.00     0.019 C 
ATOM     23  C   UNL d   1      46.448 -20.065  42.431  0.00  0.00     0.002 C 
ENDBRANCH  21  22
ENDBRANCH  16  21
ENDBRANCH  13  14
ENDBRANCH   1  13
BRANCH   6  24
ATOM     24  N   UNL d   1      43.789 -15.959  44.952  0.00  0.00    -0.225 NA
BRANCH  24  25
ATOM     25  C   UNL d   1      43.105 -15.732  44.564  0.00  0.00     0.103 C 
BRANCH  25  26
ATOM     26  C   UNL d   1      42.650 -15.109  44.853  0.00  0.00     0.047 C 
BRANCH  26  27
ATOM     27  C   UNL d   1      41.839 -15.097  44.722  0.00  0.00     0.124 C 
BRANCH  27  28
ATOM     28  O   UNL d   1      41.394 -14.444  44.954  0.00  0.00    -0.303 OA
BRANCH  28  29
ATOM     29  C   UNL d   1      40.982 -13.999  44.387  0.00  0.00     0.123 C 
ATOM     30  C   UNL d   1      41.295 -13.909  43.629  0.00  0.00     0.029 C 
ENDBRANCH  28  29
ENDBRANCH  27  28
ENDBRANCH  26  27
ENDBRANCH  25  26
ENDBRANCH  24  25
ENDBRANCH   6  24
TORSDOF 10
ENDMDL
