MODEL 1
REMARK VINA RESULT:      46.5      0.000      0.000
REMARK  5 active torsions:
REMARK  status: ('A' for Active; 'I' for Inactive)
REMARK    1  A    between atoms: C_9  and  C_5 
REMARK    2  A    between atoms: N_14  and  C_6 
REMARK    3  A    between atoms: N_11  and  C_9 
REMARK    4  A    between atoms: C_15  and  N_11 
REMARK    5  A    between atoms: C_16  and  C_15 
ROOT
ATOM      1  N   UNL d   1     -51.713  25.356  33.359  0.00  0.00    -0.258 N 
ATOM      2  N   UNL d   1     -50.625  24.510  33.321  0.00  0.00    -0.209 NA
ATOM      3  C   UNL d   1     -51.424  24.618  33.337  0.00  0.00     0.152 A 
ATOM      4  C   UNL d   1     -51.234  26.021  33.366  0.00  0.00     0.270 A 
ATOM      5  C   UNL d   1     -50.398  25.908  33.349  0.00  0.00     0.111 A 
ATOM      6  C   UNL d   1     -50.131  25.142  33.327  0.00  0.00     0.170 A 
ATOM      7  C   UNL d   1     -51.940  23.959  33.331  0.00  0.00     0.035 A 
ATOM      8  C   UNL d   1     -52.567  25.472  33.376  0.00  0.00     0.084 A 
ATOM      9  O   UNL d   1     -51.518  26.788  33.389  0.00  0.00    -0.266 OA
ATOM     10  C   UNL d   1     -53.041  24.837  33.370  0.00  0.00     0.019 A 
ATOM     11  C   UNL d   1     -52.763  24.070  33.347  0.00  0.00     0.005 A 
ATOM     12  C   UNL d   1     -51.643  23.189  33.308  0.00  0.00     0.003 C 
ENDROOT
BRANCH   5  13
ATOM     13  C   UNL d   1     -49.872  26.565  33.356  0.00  0.00     0.107 C 
BRANCH  13  14
ATOM     14  N   UNL d   1     -49.811  27.058  34.023  0.00  0.00    -0.242 NA
BRANCH  14  15
ATOM     15  C   UNL d   1     -49.461  27.804  33.943  0.00  0.00     0.099 C 
BRANCH  15  16
ATOM     16  C   UNL d   1     -49.049  28.131  34.562  0.00  0.00     0.019 A 
ATOM     17  C   UNL d   1     -48.437  28.660  34.426  0.00  0.00     0.002 A 
ATOM     18  C   UNL d   1     -48.017  28.994  35.038  0.00  0.00     0.000 A 
ATOM     19  C   UNL d   1     -48.216  28.792  35.819  0.00  0.00     0.000 A 
ATOM     20  C   UNL d   1     -48.841  28.251  35.958  0.00  0.00     0.000 A 
ATOM     21  C   UNL d   1     -49.248  27.928  35.343  0.00  0.00     0.002 A 
ENDBRANCH  15  16
ENDBRANCH  14  15
ENDBRANCH  13  14
ENDBRANCH   5  13
BRANCH   6  22
ATOM     22  N   UNL d   1     -49.296  25.029  33.310  0.00  0.00    -0.223 NA
ATOM     23  C   UNL d   1     -48.992  24.260  33.339  0.00  0.00     0.121 C 
ENDBRANCH   6  22
TORSDOF 5
ENDMDL
