MODEL 1
REMARK VINA RESULT:      17.5      0.000      0.000
REMARK  1 active torsions:
REMARK  status: ('A' for Active; 'I' for Inactive)
REMARK    1  A    between atoms: C_7  and  C_2 
ROOT
ATOM      1  C   UNL d   1      46.307 -18.608  44.116  0.00  0.00     0.257 A 
ATOM      2  C   UNL d   1      46.143 -17.939  43.666  0.00  0.00     0.142 A 
ATOM      3  C   UNL d   1      46.475 -19.328  43.742  0.00  0.00     0.238 A 
ATOM      4  O   UNL d   1      46.147 -17.991  42.854  0.00  0.00    -0.304 OA
ATOM      5  C   UNL d   1      46.475 -19.367  42.903  0.00  0.00     0.065 A 
ATOM      6  C   UNL d   1      46.311 -18.698  42.453  0.00  0.00     0.103 A 
ATOM      7  O   UNL d   1      46.641 -20.006  44.210  0.00  0.00    -0.283 OA
ATOM      8  O   UNL d   1      46.307 -18.569  44.955  0.00  0.00    -0.281 OA
ATOM      9  C   UNL d   1      46.644 -20.092  42.527  0.00  0.00     0.005 A 
ATOM     10  C   UNL d   1      46.315 -18.750  41.641  0.00  0.00     0.025 A 
ATOM     11  C   UNL d   1      46.647 -20.140  41.706  0.00  0.00     0.000 A 
ATOM     12  C   UNL d   1      46.484 -19.475  41.265  0.00  0.00     0.002 A 
ENDROOT
BRANCH   2  13
ATOM     13  C   UNL d   1      45.972 -17.205  44.024  0.00  0.00     0.026 A 
ATOM     14  C   UNL d   1      45.361 -17.176  44.603  0.00  0.00     0.002 A 
ATOM     15  C   UNL d   1      45.196 -16.450  44.954  0.00  0.00     0.000 A 
ATOM     16  C   UNL d   1      45.603 -15.760  44.760  0.00  0.00     0.000 A 
ATOM     17  C   UNL d   1      46.201 -15.803  44.189  0.00  0.00     0.000 A 
ATOM     18  C   UNL d   1      46.384 -16.518  43.825  0.00  0.00     0.002 A 
ENDBRANCH   2  13
TORSDOF 1
ENDMDL
MODEL 2
REMARK VINA RESULT:      18.3      7.442      7.946
REMARK  1 active torsions:
REMARK  status: ('A' for Active; 'I' for Inactive)
REMARK    1  A    between atoms: C_7  and  C_2 
ROOT
ATOM      1  C   UNL d   1      44.359 -15.987  36.596  0.00  0.00     0.257 A 
ATOM      2  C   UNL d   1      43.862 -15.374  36.829  0.00  0.00     0.142 A 
ATOM      3  C   UNL d   1      45.181 -15.881  36.604  0.00  0.00     0.238 A 
ATOM      4  O   UNL d   1      44.184 -14.665  37.067  0.00  0.00    -0.304 OA
ATOM      5  C   UNL d   1      45.499 -15.144  36.851  0.00  0.00     0.065 A 
ATOM      6  C   UNL d   1      45.002 -14.531  37.084  0.00  0.00     0.103 A 
ATOM      7  O   UNL d   1      45.680 -16.512  36.364  0.00  0.00    -0.283 OA
ATOM      8  O   UNL d   1      44.041 -16.724  36.348  0.00  0.00    -0.281 OA
ATOM      9  C   UNL d   1      46.326 -15.037  36.859  0.00  0.00     0.005 A 
ATOM     10  C   UNL d   1      45.324 -13.822  37.322  0.00  0.00     0.025 A 
ATOM     11  C   UNL d   1      46.647 -14.319  37.100  0.00  0.00     0.000 A 
ATOM     12  C   UNL d   1      46.151 -13.715  37.330  0.00  0.00     0.002 A 
ENDROOT
BRANCH   2  13
ATOM     13  C   UNL d   1      43.033 -15.462  36.828  0.00  0.00     0.026 A 
ATOM     14  C   UNL d   1      42.580 -14.984  37.353  0.00  0.00     0.002 A 
ATOM     15  C   UNL d   1      41.761 -15.075  37.349  0.00  0.00     0.000 A 
ATOM     16  C   UNL d   1      41.376 -15.610  36.854  0.00  0.00     0.000 A 
ATOM     17  C   UNL d   1      41.834 -16.074  36.343  0.00  0.00     0.000 A 
ATOM     18  C   UNL d   1      42.654 -16.001  36.330  0.00  0.00     0.002 A 
ENDBRANCH   2  13
TORSDOF 1
ENDMDL
