MODEL 1
REMARK VINA RESULT:      95.7      0.000      0.000
REMARK  7 active torsions:
REMARK  status: ('A' for Active; 'I' for Inactive)
REMARK    1  A    between atoms: S_9  and  C_2 
REMARK    2  A    between atoms: C_15  and  C_5 
REMARK    3  A    between atoms: C_6  and  C_7 
REMARK       I    between atoms: C_7  and  N_8 
REMARK    4  A    between atoms: N_8  and  C_15 
REMARK    5  A    between atoms: C_14  and  S_9 
REMARK    6  A    between atoms: C_10  and  C_14 
REMARK    7  A    between atoms: C_12  and  C_10 
ROOT
ATOM      1  O   UNL d   1      61.397  46.758  50.449  0.00  0.00    -0.262 OA
ATOM      2  C   UNL d   1      61.711  47.514  50.319  0.00  0.00     0.236 A 
ATOM      3  N   UNL d   1      62.270  47.453  49.727  0.00  0.00    -0.114 NA
ATOM      4  N   UNL d   1      62.305  46.667  49.491  0.00  0.00    -0.119 NA
ATOM      5  C   UNL d   1      61.768  46.241  49.935  0.00  0.00     0.224 A 
ENDROOT
BRANCH   2   6
ATOM      6  S   UNL d   1      61.493  48.199  50.718  0.00  0.00    -0.037 SA
BRANCH   6   7
ATOM      7  C   UNL d   1      60.978  48.728  50.374  0.00  0.00     0.081 C 
BRANCH   7   8
ATOM      8  C   UNL d   1      60.557  49.272  50.840  0.00  0.00     0.202 C 
ATOM      9  O   UNL d   1      60.946  49.700  51.420  0.00  0.00    -0.286 OA
BRANCH   8  10
ATOM     10  C   UNL d   1      59.750  49.379  50.718  0.00  0.00     0.040 A 
ATOM     11  C   UNL d   1      59.224  49.264  51.339  0.00  0.00     0.004 A 
ATOM     12  C   UNL d   1      58.412  49.370  51.220  0.00  0.00     0.011 A 
ATOM     13  C   UNL d   1      58.126  49.592  50.479  0.00  0.00     0.058 A 
ATOM     14  C   UNL d   1      58.655  49.707  49.858  0.00  0.00     0.011 A 
ATOM     15 CL   UNL d   1      57.323  49.697  50.364  0.00  0.00    -0.082 Cl
ATOM     16  C   UNL d   1      59.467  49.603  49.968  0.00  0.00     0.004 A 
ENDBRANCH   8  10
ENDBRANCH   7   8
ENDBRANCH   6   7
ENDBRANCH   2   6
BRANCH   5  17
ATOM     17  C   UNL d   1      61.625  45.433  49.875  0.00  0.00     0.149 C 
BRANCH  17  18
ATOM     18  N   UNL d   1      60.862  45.152  49.772  0.00  0.00    -0.203 NA
ATOM     19  C   UNL d   1      60.714  44.341  49.807  0.00  0.00     0.281 C 
ATOM     20  O   UNL d   1      61.325  43.813  49.944  0.00  0.00    -0.265 OA
BRANCH  19  21
ATOM     21  C   UNL d   1      59.945  44.064  49.703  0.00  0.00     0.085 A 
ATOM     22  C   UNL d   1      59.451  44.013  50.348  0.00  0.00     0.145 A 
ATOM     23  F   UNL d   1      59.700  44.230  51.102  0.00  0.00    -0.204 F 
ATOM     24  C   UNL d   1      58.680  43.733  50.229  0.00  0.00     0.030 A 
ATOM     25  C   UNL d   1      58.403  43.507  49.480  0.00  0.00     0.002 A 
ATOM     26  C   UNL d   1      58.930  43.570  48.836  0.00  0.00     0.000 A 
ATOM     27  C   UNL d   1      59.700  43.850  48.955  0.00  0.00     0.007 A 
ENDBRANCH  19  21
ENDBRANCH  17  18
ENDBRANCH   5  17
TORSDOF 7
ENDMDL
MODEL 2
REMARK VINA RESULT:      98.6      3.392      6.407
REMARK  7 active torsions:
REMARK  status: ('A' for Active; 'I' for Inactive)
REMARK    1  A    between atoms: S_9  and  C_2 
REMARK    2  A    between atoms: C_15  and  C_5 
REMARK    3  A    between atoms: C_6  and  C_7 
REMARK       I    between atoms: C_7  and  N_8 
REMARK    4  A    between atoms: N_8  and  C_15 
REMARK    5  A    between atoms: C_14  and  S_9 
REMARK    6  A    between atoms: C_10  and  C_14 
REMARK    7  A    between atoms: C_12  and  C_10 
ROOT
ATOM      1  O   UNL d   1      61.861  45.251  50.321  0.00  0.00    -0.262 OA
ATOM      2  C   UNL d   1      61.820  44.545  50.753  0.00  0.00     0.236 A 
ATOM      3  N   UNL d   1      61.130  44.560  51.189  0.00  0.00    -0.114 NA
ATOM      4  N   UNL d   1      60.744  45.266  51.031  0.00  0.00    -0.119 NA
ATOM      5  C   UNL d   1      61.194  45.691  50.497  0.00  0.00     0.224 A 
ENDROOT
BRANCH   2   6
ATOM      6  S   UNL d   1      62.380  43.942  50.741  0.00  0.00    -0.037 SA
BRANCH   6   7
ATOM      7  C   UNL d   1      62.144  43.165  50.693  0.00  0.00     0.081 C 
BRANCH   7   8
ATOM      8  C   UNL d   1      62.627  42.557  50.990  0.00  0.00     0.202 C 
ATOM      9  O   UNL d   1      62.974  42.635  51.728  0.00  0.00    -0.286 OA
BRANCH   8  10
ATOM     10  C   UNL d   1      62.755  41.879  50.542  0.00  0.00     0.040 A 
ATOM     11  C   UNL d   1      62.872  41.158  50.918  0.00  0.00     0.004 A 
ATOM     12  C   UNL d   1      63.001  40.473  50.471  0.00  0.00     0.011 A 
ATOM     13  C   UNL d   1      63.012  40.510  49.647  0.00  0.00     0.058 A 
ATOM     14  C   UNL d   1      62.894  41.235  49.272  0.00  0.00     0.011 A 
ATOM     15 CL   UNL d   1      63.140  39.832  49.208  0.00  0.00    -0.082 Cl
ATOM     16  C   UNL d   1      62.765  41.922  49.710  0.00  0.00     0.004 A 
ENDBRANCH   8  10
ENDBRANCH   7   8
ENDBRANCH   6   7
ENDBRANCH   2   6
BRANCH   5  17
ATOM     17  C   UNL d   1      61.008  46.432  50.190  0.00  0.00     0.149 C 
BRANCH  17  18
ATOM     18  N   UNL d   1      60.854  47.062  50.691  0.00  0.00    -0.203 NA
ATOM     19  C   UNL d   1      61.125  47.817  50.497  0.00  0.00     0.281 C 
ATOM     20  O   UNL d   1      61.547  47.942  49.806  0.00  0.00    -0.265 OA
BRANCH  19  21
ATOM     21  C   UNL d   1      60.968  48.447  51.005  0.00  0.00     0.085 A 
ATOM     22  C   UNL d   1      60.536  49.080  50.729  0.00  0.00     0.145 A 
ATOM     23  F   UNL d   1      60.252  49.107  49.957  0.00  0.00    -0.204 F 
ATOM     24  C   UNL d   1      60.386  49.707  51.249  0.00  0.00     0.030 A 
ATOM     25  C   UNL d   1      60.660  49.706  52.033  0.00  0.00     0.002 A 
ATOM     26  C   UNL d   1      61.100  49.045  52.289  0.00  0.00     0.000 A 
ATOM     27  C   UNL d   1      61.250  48.419  51.769  0.00  0.00     0.007 A 
ENDBRANCH  19  21
ENDBRANCH  17  18
ENDBRANCH   5  17
TORSDOF 7
ENDMDL
