MODEL 1
REMARK VINA RESULT:      86.0      0.000      0.000
REMARK  4 active torsions:
REMARK  status: ('A' for Active; 'I' for Inactive)
REMARK    1  A    between atoms: C_4  and  C_1 
REMARK    2  A    between atoms: N_7  and  C_4 
REMARK    3  A    between atoms: C_10  and  C_4 
REMARK    4  A    between atoms: C_8  and  N_7 
ROOT
ATOM      1  C   UNL d   1      60.037  48.545  51.005  0.00  0.00     0.085 C 
ENDROOT
BRANCH   1   2
ATOM      2  C   UNL d   1      59.573  48.967  50.467  0.00  0.00     0.037 A 
ATOM      3  C   UNL d   1      59.815  49.387  49.798  0.00  0.00     0.083 A 
ATOM      4  N   UNL d   1      59.221  49.706  49.439  0.00  0.00    -0.245 NA
ATOM      5  C   UNL d   1      60.600  49.452  49.552  0.00  0.00     0.021 C 
ATOM      6  C   UNL d   1      58.514  49.517  49.855  0.00  0.00     0.081 A 
ATOM      7  C   UNL d   1      58.735  49.053  50.500  0.00  0.00     0.021 A 
ATOM      8  C   UNL d   1      57.713  49.708  49.725  0.00  0.00     0.019 A 
ATOM      9  C   UNL d   1      58.157  48.778  51.019  0.00  0.00     0.002 A 
ATOM     10  C   UNL d   1      57.365  48.959  50.902  0.00  0.00     0.000 A 
ATOM     11  C   UNL d   1      57.144  49.423  50.257  0.00  0.00     0.002 A 
ENDBRANCH   1   2
BRANCH   1  12
ATOM     12  N   UNL d   1      59.960  47.735  51.033  0.00  0.00    -0.227 NA
BRANCH  12  13
ATOM     13  C   UNL d   1      60.557  47.248  50.781  0.00  0.00     0.162 A 
ATOM     14  N   UNL d   1      60.926  47.371  50.062  0.00  0.00    -0.225 NA
ATOM     15  C   UNL d   1      61.553  46.849  49.810  0.00  0.00     0.101 A 
ATOM     16  C   UNL d   1      61.760  46.242  50.302  0.00  0.00     0.021 A 
ATOM     17  C   UNL d   1      61.398  46.113  51.018  0.00  0.00     0.005 A 
ATOM     18  C   UNL d   1      60.796  46.607  51.269  0.00  0.00     0.039 A 
ATOM     19  C   UNL d   1      61.643  45.477  51.489  0.00  0.00     0.000 C 
ENDBRANCH  12  13
ENDBRANCH   1  12
BRANCH   1  20
ATOM     20  C   UNL d   1      60.569  48.938  51.505  0.00  0.00     0.021 A 
ATOM     21  C   UNL d   1      60.418  48.924  52.313  0.00  0.00     0.022 A 
ATOM     22  C   UNL d   1      60.950  49.317  52.813  0.00  0.00     0.099 A 
ATOM     23  N   UNL d   1      61.609  49.708  52.493  0.00  0.00    -0.242 NA
ATOM     24  C   UNL d   1      61.735  49.707  51.687  0.00  0.00     0.099 A 
ATOM     25  C   UNL d   1      61.227  49.329  51.185  0.00  0.00     0.022 A 
ENDBRANCH   1  20
TORSDOF 4
ENDMDL
