MODEL 1
REMARK VINA RESULT:      78.4      0.000      0.000
REMARK  6 active torsions:
REMARK  status: ('A' for Active; 'I' for Inactive)
REMARK    1  A    between atoms: N_3  and  S_1 
REMARK    2  A    between atoms: C_5  and  S_1 
REMARK    3  A    between atoms: S_2  and  N_4 
REMARK    4  A    between atoms: C_6  and  S_2 
REMARK    5  A    between atoms: O_25  and  C_15 
REMARK    6  A    between atoms: O_26  and  C_16 
ROOT
ATOM      1  N   UNL d   1      14.371  14.027  -2.524  0.00  0.00    -0.228 N 
ATOM      2  N   UNL d   1      14.348  15.127  -3.756  0.00  0.00    -0.226 N 
ATOM      3  C   UNL d   1      14.049  13.824  -3.262  0.00  0.00     0.093 A 
ATOM      4  C   UNL d   1      14.037  14.367  -3.872  0.00  0.00     0.110 A 
ATOM      5  C   UNL d   1      14.681  14.781  -2.406  0.00  0.00     0.111 A 
ATOM      6  C   UNL d   1      14.670  15.336  -3.025  0.00  0.00     0.111 A 
ATOM      7  C   UNL d   1      13.738  13.064  -3.379  0.00  0.00     0.021 C 
ENDROOT
BRANCH   1   8
ATOM      8  S   UNL d   1      14.379  13.478  -1.918  0.00  0.00     0.273 S 
ATOM      9  O   UNL d   1      13.853  12.849  -1.920  0.00  0.00    -0.200 OA
ATOM     10  O   UNL d   1      14.924  13.557  -1.298  0.00  0.00    -0.200 OA
BRANCH   8  11
ATOM     11  C   UNL d   1      14.407  12.937  -1.297  0.00  0.00     0.126 A 
ATOM     12  C   UNL d   1      15.140  12.700  -0.997  0.00  0.00     0.106 A 
ATOM     13  C   UNL d   1      15.181  12.164  -0.381  0.00  0.00     0.025 A 
ATOM     14  C   UNL d   1      14.478  11.849  -0.046  0.00  0.00     0.002 A 
ATOM     15  C   UNL d   1      13.745  12.090  -0.348  0.00  0.00     0.001 A 
ATOM     16  C   UNL d   1      13.712  12.631  -0.970  0.00  0.00     0.015 A 
ATOM     17  C   UNL d   1      13.054  11.789  -0.028  0.00  0.00     0.000 C 
BRANCH  12  18
ATOM     18  O   UNL d   1      15.831  13.000  -1.317  0.00  0.00    -0.327 OA
ATOM     19  C   UNL d   1      16.432  13.260  -0.815  0.00  0.00     0.181 C 
ENDBRANCH  12  18
ENDBRANCH   8  11
ENDBRANCH   1   8
BRANCH   2  20
ATOM     20  S   UNL d   1      14.336  15.675  -4.373  0.00  0.00     0.273 S 
ATOM     21  O   UNL d   1      14.464  16.476  -4.216  0.00  0.00    -0.200 OA
ATOM     22  O   UNL d   1      14.196  15.426  -5.144  0.00  0.00    -0.200 OA
BRANCH  20  23
ATOM     23  C   UNL d   1      14.329  16.244  -4.970  0.00  0.00     0.126 A 
ATOM     24  C   UNL d   1      15.024  16.645  -5.160  0.00  0.00     0.106 A 
ATOM     25  C   UNL d   1      15.013  17.208  -5.752  0.00  0.00     0.025 A 
ATOM     26  C   UNL d   1      14.315  17.374  -6.156  0.00  0.00     0.002 A 
ATOM     27  C   UNL d   1      13.624  16.970  -5.962  0.00  0.00     0.001 A 
ATOM     28  C   UNL d   1      13.634  16.402  -5.364  0.00  0.00     0.015 A 
ATOM     29  C   UNL d   1      12.917  17.132  -6.364  0.00  0.00     0.000 C 
BRANCH  24  30
ATOM     30  O   UNL d   1      15.718  16.482  -4.760  0.00  0.00    -0.327 OA
ATOM     31  C   UNL d   1      16.443  16.674  -5.094  0.00  0.00     0.181 C 
ENDBRANCH  24  30
ENDBRANCH  20  23
ENDBRANCH   2  20
TORSDOF 6
ENDMDL
MODEL 2
REMARK VINA RESULT:      78.7      1.937      2.872
REMARK  6 active torsions:
REMARK  status: ('A' for Active; 'I' for Inactive)
REMARK    1  A    between atoms: N_3  and  S_1 
REMARK    2  A    between atoms: C_5  and  S_1 
REMARK    3  A    between atoms: S_2  and  N_4 
REMARK    4  A    between atoms: C_6  and  S_2 
REMARK    5  A    between atoms: O_25  and  C_15 
REMARK    6  A    between atoms: O_26  and  C_16 
ROOT
ATOM      1  N   UNL d   1      13.585  14.899  -4.611  0.00  0.00    -0.228 N 
ATOM      2  N   UNL d   1      13.795  16.449  -5.140  0.00  0.00    -0.226 N 
ATOM      3  C   UNL d   1      13.802  15.498  -4.079  0.00  0.00     0.093 A 
ATOM      4  C   UNL d   1      13.906  16.266  -4.339  0.00  0.00     0.110 A 
ATOM      5  C   UNL d   1      13.474  15.079  -5.407  0.00  0.00     0.111 A 
ATOM      6  C   UNL d   1      13.579  15.858  -5.675  0.00  0.00     0.111 A 
ATOM      7  C   UNL d   1      13.913  15.315  -3.277  0.00  0.00     0.021 C 
ENDROOT
BRANCH   1   8
ATOM      8  S   UNL d   1      13.482  14.133  -4.342  0.00  0.00     0.273 S 
ATOM      9  O   UNL d   1      12.890  13.957  -3.803  0.00  0.00    -0.200 OA
ATOM     10  O   UNL d   1      13.981  13.530  -4.617  0.00  0.00    -0.200 OA
BRANCH   8  11
ATOM     11  C   UNL d   1      13.400  13.354  -4.086  0.00  0.00     0.126 A 
ATOM     12  C   UNL d   1      13.304  12.751  -4.643  0.00  0.00     0.106 A 
ATOM     13  C   UNL d   1      13.221  11.975  -4.402  0.00  0.00     0.025 A 
ATOM     14  C   UNL d   1      13.232  11.781  -3.585  0.00  0.00     0.002 A 
ATOM     15  C   UNL d   1      13.328  12.388  -3.029  0.00  0.00     0.001 A 
ATOM     16  C   UNL d   1      13.411  13.169  -3.280  0.00  0.00     0.015 A 
ATOM     17  C   UNL d   1      13.340  12.210  -2.230  0.00  0.00     0.000 C 
BRANCH  12  18
ATOM     18  O   UNL d   1      13.292  12.929  -5.443  0.00  0.00    -0.327 OA
ATOM     19  C   UNL d   1      13.289  12.316  -5.995  0.00  0.00     0.181 C 
ENDBRANCH  12  18
ENDBRANCH   8  11
ENDBRANCH   1   8
BRANCH   2  20
ATOM     20  S   UNL d   1      13.900  17.224  -5.403  0.00  0.00     0.273 S 
ATOM     21  O   UNL d   1      13.867  17.395  -6.210  0.00  0.00    -0.200 OA
ATOM     22  O   UNL d   1      14.038  17.829  -4.862  0.00  0.00    -0.200 OA
BRANCH  20  23
ATOM     23  C   UNL d   1      14.002  17.990  -5.693  0.00  0.00     0.126 A 
ATOM     24  C   UNL d   1      14.762  18.295  -5.782  0.00  0.00     0.106 A 
ATOM     25  C   UNL d   1      14.859  19.053  -6.069  0.00  0.00     0.025 A 
ATOM     26  C   UNL d   1      14.204  19.510  -6.268  0.00  0.00     0.002 A 
ATOM     27  C   UNL d   1      13.446  19.200  -6.177  0.00  0.00     0.001 A 
ATOM     28  C   UNL d   1      13.348  18.434  -5.887  0.00  0.00     0.015 A 
ATOM     29  C   UNL d   1      12.781  19.654  -6.375  0.00  0.00     0.000 C 
BRANCH  24  30
ATOM     30  O   UNL d   1      15.415  17.843  -5.584  0.00  0.00    -0.327 OA
ATOM     31  C   UNL d   1      15.974  18.132  -5.058  0.00  0.00     0.181 C 
ENDBRANCH  24  30
ENDBRANCH  20  23
ENDBRANCH   2  20
TORSDOF 6
ENDMDL
MODEL 3
REMARK VINA RESULT:      79.3      1.742      5.623
REMARK  6 active torsions:
REMARK  status: ('A' for Active; 'I' for Inactive)
REMARK    1  A    between atoms: N_3  and  S_1 
REMARK    2  A    between atoms: C_5  and  S_1 
REMARK    3  A    between atoms: S_2  and  N_4 
REMARK    4  A    between atoms: C_6  and  S_2 
REMARK    5  A    between atoms: O_25  and  C_15 
REMARK    6  A    between atoms: O_26  and  C_16 
ROOT
ATOM      1  N   UNL d   1      14.035  16.443  -4.904  0.00  0.00    -0.228 N 
ATOM      2  N   UNL d   1      13.786  14.890  -4.401  0.00  0.00    -0.226 N 
ATOM      3  C   UNL d   1      13.585  15.920  -5.366  0.00  0.00     0.093 A 
ATOM      4  C   UNL d   1      13.461  15.151  -5.118  0.00  0.00     0.110 A 
ATOM      5  C   UNL d   1      14.357  16.186  -4.191  0.00  0.00     0.111 A 
ATOM      6  C   UNL d   1      14.233  15.405  -3.937  0.00  0.00     0.111 A 
ATOM      7  C   UNL d   1      13.261  16.180  -6.084  0.00  0.00     0.021 C 
ENDROOT
BRANCH   1   8
ATOM      8  S   UNL d   1      14.154  17.211  -5.159  0.00  0.00     0.273 S 
ATOM      9  O   UNL d   1      13.795  17.839  -4.773  0.00  0.00    -0.200 OA
ATOM     10  O   UNL d   1      14.642  17.357  -5.814  0.00  0.00    -0.200 OA
BRANCH   8  11
ATOM     11  C   UNL d   1      14.290  17.976  -5.435  0.00  0.00     0.126 A 
ATOM     12  C   UNL d   1      15.046  18.303  -5.371  0.00  0.00     0.106 A 
ATOM     13  C   UNL d   1      15.193  19.060  -5.641  0.00  0.00     0.025 A 
ATOM     14  C   UNL d   1      14.577  19.514  -5.987  0.00  0.00     0.002 A 
ATOM     15  C   UNL d   1      13.820  19.183  -6.050  0.00  0.00     0.001 A 
ATOM     16  C   UNL d   1      13.679  18.418  -5.775  0.00  0.00     0.015 A 
ATOM     17  C   UNL d   1      13.212  19.617  -6.385  0.00  0.00     0.000 C 
BRANCH  12  18
ATOM     18  O   UNL d   1      15.654  17.869  -5.035  0.00  0.00    -0.327 OA
ATOM     19  C   UNL d   1      16.437  18.065  -5.207  0.00  0.00     0.181 C 
ENDBRANCH  12  18
ENDBRANCH   8  11
ENDBRANCH   1   8
BRANCH   2  20
ATOM     20  S   UNL d   1      13.660  14.114  -4.152  0.00  0.00     0.273 S 
ATOM     21  O   UNL d   1      13.291  13.572  -4.655  0.00  0.00    -0.200 OA
ATOM     22  O   UNL d   1      13.901  13.877  -3.401  0.00  0.00    -0.200 OA
BRANCH  20  23
ATOM     23  C   UNL d   1      13.522  13.332  -3.928  0.00  0.00     0.126 A 
ATOM     24  C   UNL d   1      13.342  12.769  -4.502  0.00  0.00     0.106 A 
ATOM     25  C   UNL d   1      13.206  11.995  -4.276  0.00  0.00     0.025 A 
ATOM     26  C   UNL d   1      13.249  11.779  -3.483  0.00  0.00     0.002 A 
ATOM     27  C   UNL d   1      13.429  12.346  -2.913  0.00  0.00     0.001 A 
ATOM     28  C   UNL d   1      13.566  13.127  -3.141  0.00  0.00     0.015 A 
ATOM     29  C   UNL d   1      13.473  12.136  -2.112  0.00  0.00     0.000 C 
BRANCH  24  30
ATOM     30  O   UNL d   1      13.300  12.981  -5.291  0.00  0.00    -0.327 OA
ATOM     31  C   UNL d   1      13.153  12.412  -5.864  0.00  0.00     0.181 C 
ENDBRANCH  24  30
ENDBRANCH  20  23
ENDBRANCH   2  20
TORSDOF 6
ENDMDL
MODEL 4
REMARK VINA RESULT:      79.5      1.017      5.480
REMARK  6 active torsions:
REMARK  status: ('A' for Active; 'I' for Inactive)
REMARK    1  A    between atoms: N_3  and  S_1 
REMARK    2  A    between atoms: C_5  and  S_1 
REMARK    3  A    between atoms: S_2  and  N_4 
REMARK    4  A    between atoms: C_6  and  S_2 
REMARK    5  A    between atoms: O_25  and  C_15 
REMARK    6  A    between atoms: O_26  and  C_16 
ROOT
ATOM      1  N   UNL d   1      14.331  15.899  -4.169  0.00  0.00    -0.228 N 
ATOM      2  N   UNL d   1      14.235  14.534  -3.244  0.00  0.00    -0.226 N 
ATOM      3  C   UNL d   1      14.060  15.187  -4.498  0.00  0.00     0.093 A 
ATOM      4  C   UNL d   1      14.012  14.511  -4.042  0.00  0.00     0.110 A 
ATOM      5  C   UNL d   1      14.553  15.924  -3.376  0.00  0.00     0.111 A 
ATOM      6  C   UNL d   1      14.506  15.239  -2.909  0.00  0.00     0.111 A 
ATOM      7  C   UNL d   1      13.836  15.163  -5.297  0.00  0.00     0.021 C 
ENDROOT
BRANCH   1   8
ATOM      8  S   UNL d   1      14.376  16.571  -4.632  0.00  0.00     0.273 S 
ATOM      9  O   UNL d   1      13.701  17.004  -4.805  0.00  0.00    -0.200 OA
ATOM     10  O   UNL d   1      15.110  16.818  -4.930  0.00  0.00    -0.200 OA
BRANCH   8  11
ATOM     11  C   UNL d   1      14.447  17.245  -5.102  0.00  0.00     0.126 A 
ATOM     12  C   UNL d   1      15.179  17.623  -5.161  0.00  0.00     0.106 A 
ATOM     13  C   UNL d   1      15.262  18.292  -5.623  0.00  0.00     0.025 A 
ATOM     14  C   UNL d   1      14.604  18.602  -6.043  0.00  0.00     0.002 A 
ATOM     15  C   UNL d   1      13.872  18.221  -5.982  0.00  0.00     0.001 A 
ATOM     16  C   UNL d   1      13.796  17.546  -5.513  0.00  0.00     0.015 A 
ATOM     17  C   UNL d   1      13.224  18.514  -6.387  0.00  0.00     0.000 C 
BRANCH  12  18
ATOM     18  O   UNL d   1      15.827  17.330  -4.756  0.00  0.00    -0.327 OA
ATOM     19  C   UNL d   1      16.570  17.337  -5.117  0.00  0.00     0.181 C 
ENDBRANCH  12  18
ENDBRANCH   8  11
ENDBRANCH   1   8
BRANCH   2  20
ATOM     20  S   UNL d   1      14.186  13.851  -2.783  0.00  0.00     0.273 S 
ATOM     21  O   UNL d   1      13.666  13.246  -2.995  0.00  0.00    -0.200 OA
ATOM     22  O   UNL d   1      14.656  13.771  -2.112  0.00  0.00    -0.200 OA
BRANCH  20  23
ATOM     23  C   UNL d   1      14.118  13.158  -2.341  0.00  0.00     0.126 A 
ATOM     24  C   UNL d   1      13.808  12.480  -2.691  0.00  0.00     0.106 A 
ATOM     25  C   UNL d   1      13.741  11.795  -2.250  0.00  0.00     0.025 A 
ATOM     26  C   UNL d   1      13.981  11.782  -1.463  0.00  0.00     0.002 A 
ATOM     27  C   UNL d   1      14.290  12.463  -1.118  0.00  0.00     0.001 A 
ATOM     28  C   UNL d   1      14.357  13.155  -1.563  0.00  0.00     0.015 A 
ATOM     29  C   UNL d   1      14.534  12.458  -0.325  0.00  0.00     0.000 C 
BRANCH  24  30
ATOM     30  O   UNL d   1      13.569  12.490  -3.474  0.00  0.00    -0.327 OA
ATOM     31  C   UNL d   1      13.233  11.822  -3.812  0.00  0.00     0.181 C 
ENDBRANCH  24  30
ENDBRANCH  20  23
ENDBRANCH   2  20
TORSDOF 6
ENDMDL
MODEL 5
REMARK VINA RESULT:      80.1      1.031      1.683
REMARK  6 active torsions:
REMARK  status: ('A' for Active; 'I' for Inactive)
REMARK    1  A    between atoms: N_3  and  S_1 
REMARK    2  A    between atoms: C_5  and  S_1 
REMARK    3  A    between atoms: S_2  and  N_4 
REMARK    4  A    between atoms: C_6  and  S_2 
REMARK    5  A    between atoms: O_25  and  C_15 
REMARK    6  A    between atoms: O_26  and  C_16 
ROOT
ATOM      1  N   UNL d   1      14.334  14.519  -3.004  0.00  0.00    -0.228 N 
ATOM      2  N   UNL d   1      14.546  15.884  -3.908  0.00  0.00    -0.226 N 
ATOM      3  C   UNL d   1      14.582  15.225  -2.645  0.00  0.00     0.093 A 
ATOM      4  C   UNL d   1      14.687  15.902  -3.092  0.00  0.00     0.110 A 
ATOM      5  C   UNL d   1      14.194  14.499  -3.815  0.00  0.00     0.111 A 
ATOM      6  C   UNL d   1      14.300  15.185  -4.272  0.00  0.00     0.111 A 
ATOM      7  C   UNL d   1      14.723  15.244  -1.828  0.00  0.00     0.021 C 
ENDROOT
BRANCH   1   8
ATOM      8  S   UNL d   1      14.231  13.847  -2.550  0.00  0.00     0.273 S 
ATOM      9  O   UNL d   1      14.764  13.660  -1.955  0.00  0.00    -0.200 OA
ATOM     10  O   UNL d   1      13.583  13.349  -2.692  0.00  0.00    -0.200 OA
BRANCH   8  11
ATOM     11  C   UNL d   1      14.105  13.164  -2.106  0.00  0.00     0.126 A 
ATOM     12  C   UNL d   1      13.761  12.504  -2.465  0.00  0.00     0.106 A 
ATOM     13  C   UNL d   1      13.631  11.820  -2.035  0.00  0.00     0.025 A 
ATOM     14  C   UNL d   1      13.847  11.782  -1.224  0.00  0.00     0.002 A 
ATOM     15  C   UNL d   1      14.192  12.445  -0.868  0.00  0.00     0.001 A 
ATOM     16  C   UNL d   1      14.320  13.131  -1.308  0.00  0.00     0.015 A 
ATOM     17  C   UNL d   1      14.406  12.418  -0.078  0.00  0.00     0.000 C 
BRANCH  12  18
ATOM     18  O   UNL d   1      13.547  12.530  -3.255  0.00  0.00    -0.327 OA
ATOM     19  C   UNL d   1      13.436  11.826  -3.670  0.00  0.00     0.181 C 
ENDBRANCH  12  18
ENDBRANCH   8  11
ENDBRANCH   1   8
BRANCH   2  20
ATOM     20  S   UNL d   1      14.653  16.568  -4.359  0.00  0.00     0.273 S 
ATOM     21  O   UNL d   1      14.616  17.310  -3.999  0.00  0.00    -0.200 OA
ATOM     22  O   UNL d   1      14.796  16.511  -5.168  0.00  0.00    -0.200 OA
BRANCH  20  23
ATOM     23  C   UNL d   1      14.756  17.266  -4.785  0.00  0.00     0.126 A 
ATOM     24  C   UNL d   1      15.516  17.515  -4.983  0.00  0.00     0.106 A 
ATOM     25  C   UNL d   1      15.614  18.208  -5.405  0.00  0.00     0.025 A 
ATOM     26  C   UNL d   1      14.960  18.654  -5.631  0.00  0.00     0.002 A 
ATOM     27  C   UNL d   1      14.202  18.400  -5.431  0.00  0.00     0.001 A 
ATOM     28  C   UNL d   1      14.103  17.701  -5.004  0.00  0.00     0.015 A 
ATOM     29  C   UNL d   1      13.539  18.844  -5.655  0.00  0.00     0.000 C 
BRANCH  24  30
ATOM     30  O   UNL d   1      16.168  17.074  -4.760  0.00  0.00    -0.327 OA
ATOM     31  C   UNL d   1      16.890  17.186  -5.133  0.00  0.00     0.181 C 
ENDBRANCH  24  30
ENDBRANCH  20  23
ENDBRANCH   2  20
TORSDOF 6
ENDMDL
