MODEL 1
REMARK VINA RESULT:     104.0      0.000      0.000
REMARK  3 active torsions:
REMARK  status: ('A' for Active; 'I' for Inactive)
REMARK    1  A    between atoms: C_9  and  C_1 
REMARK    2  A    between atoms: C_4  and  C_5 
REMARK       I    between atoms: C_5  and  N_8 
REMARK    3  A    between atoms: N_8  and  C_16 
ROOT
ATOM      1  C   UNL d   1      61.373  46.413  50.395  0.00  0.00     0.024 A 
ATOM      2  C   UNL d   1      61.048  45.800  50.819  0.00  0.00     0.004 A 
ATOM      3  C   UNL d   1      61.946  46.280  49.825  0.00  0.00     0.004 A 
ATOM      4  C   UNL d   1      61.875  44.889  50.103  0.00  0.00     0.085 A 
ATOM      5  C   UNL d   1      62.199  45.518  49.677  0.00  0.00     0.019 A 
ATOM      6  C   UNL d   1      61.299  45.031  50.675  0.00  0.00     0.019 A 
ENDROOT
BRANCH   1   7
ATOM      7  C   UNL d   1      61.118  47.182  50.543  0.00  0.00     0.111 A 
ATOM      8  N   UNL d   1      60.636  47.639  50.044  0.00  0.00    -0.239 NA
ATOM      9  C   UNL d   1      60.517  48.377  50.409  0.00  0.00     0.088 A 
ATOM     10  C   UNL d   1      60.098  49.041  50.183  0.00  0.00     0.020 A 
ATOM     11  C   UNL d   1      60.927  48.372  51.133  0.00  0.00     0.049 A 
ATOM     12  C   UNL d   1      60.079  49.708  50.669  0.00  0.00     0.002 A 
ATOM     13  C   UNL d   1      60.484  49.707  51.388  0.00  0.00     0.001 A 
ATOM     14  C   UNL d   1      60.910  49.038  51.622  0.00  0.00     0.008 A 
ATOM     15  S   UNL d   1      61.294  47.639  51.212  0.00  0.00    -0.066 SA
ENDBRANCH   1   7
BRANCH   4  16
ATOM     16  N   UNL d   1      62.132  44.118  49.953  0.00  0.00    -0.206 NA
ATOM     17  C   UNL d   1      62.256  43.600  50.583  0.00  0.00     0.304 C 
ATOM     18  O   UNL d   1      62.127  43.841  51.354  0.00  0.00    -0.263 OA
BRANCH  17  19
ATOM     19  C   UNL d   1      62.514  42.825  50.421  0.00  0.00     0.182 A 
ATOM     20  O   UNL d   1      62.891  42.394  51.020  0.00  0.00    -0.296 OA
ATOM     21  C   UNL d   1      63.146  41.626  50.856  0.00  0.00     0.150 A 
ATOM     22  C   UNL d   1      63.028  41.294  50.109  0.00  0.00     0.149 A 
ATOM     23  O   UNL d   1      62.655  41.729  49.526  0.00  0.00    -0.299 OA
ATOM     24  C   UNL d   1      62.397  42.493  49.674  0.00  0.00     0.152 A 
ENDBRANCH  17  19
ENDBRANCH   4  16
TORSDOF 3
ENDMDL
MODEL 2
REMARK VINA RESULT:     105.5      1.998      5.662
REMARK  3 active torsions:
REMARK  status: ('A' for Active; 'I' for Inactive)
REMARK    1  A    between atoms: C_9  and  C_1 
REMARK    2  A    between atoms: C_4  and  C_5 
REMARK       I    between atoms: C_5  and  N_8 
REMARK    3  A    between atoms: N_8  and  C_16 
ROOT
ATOM      1  C   UNL d   1      61.968  44.638  50.241  0.00  0.00     0.024 A 
ATOM      2  C   UNL d   1      61.429  44.900  50.791  0.00  0.00     0.004 A 
ATOM      3  C   UNL d   1      62.238  45.129  49.643  0.00  0.00     0.004 A 
ATOM      4  C   UNL d   1      61.416  46.170  50.151  0.00  0.00     0.085 A 
ATOM      5  C   UNL d   1      61.963  45.896  49.596  0.00  0.00     0.019 A 
ATOM      6  C   UNL d   1      61.149  45.671  50.749  0.00  0.00     0.019 A 
ENDROOT
BRANCH   1   7
ATOM      7  C   UNL d   1      62.245  43.865  50.288  0.00  0.00     0.111 A 
ATOM      8  N   UNL d   1      62.410  43.367  49.642  0.00  0.00    -0.239 NA
ATOM      9  C   UNL d   1      62.677  42.639  49.943  0.00  0.00     0.088 A 
ATOM     10  C   UNL d   1      62.917  41.949  49.578  0.00  0.00     0.020 A 
ATOM     11  C   UNL d   1      62.676  42.689  50.773  0.00  0.00     0.049 A 
ATOM     12  C   UNL d   1      63.158  41.300  50.028  0.00  0.00     0.002 A 
ATOM     13  C   UNL d   1      63.158  41.346  50.852  0.00  0.00     0.001 A 
ATOM     14  C   UNL d   1      62.916  42.042  51.227  0.00  0.00     0.008 A 
ATOM     15  S   UNL d   1      62.411  43.441  50.981  0.00  0.00    -0.066 SA
ENDBRANCH   1   7
BRANCH   4  16
ATOM     16  N   UNL d   1      61.138  46.947  50.102  0.00  0.00    -0.206 NA
ATOM     17  C   UNL d   1      61.010  47.378  50.793  0.00  0.00     0.304 C 
ATOM     18  O   UNL d   1      61.155  47.045  51.526  0.00  0.00    -0.263 OA
BRANCH  17  19
ATOM     19  C   UNL d   1      60.731  48.160  50.734  0.00  0.00     0.182 A 
ATOM     20  O   UNL d   1      61.213  48.734  50.383  0.00  0.00    -0.296 OA
ATOM     21  C   UNL d   1      60.932  49.508  50.326  0.00  0.00     0.150 A 
ATOM     22  C   UNL d   1      60.184  49.707  50.614  0.00  0.00     0.149 A 
ATOM     23  O   UNL d   1      59.716  49.132  50.958  0.00  0.00    -0.299 OA
ATOM     24  C   UNL d   1      59.982  48.359  51.022  0.00  0.00     0.152 A 
ENDBRANCH  17  19
ENDBRANCH   4  16
TORSDOF 3
ENDMDL
