MODEL 1
REMARK VINA RESULT:      -4.7      0.000      0.000
REMARK  4 active torsions:
REMARK  status: ('A' for Active; 'I' for Inactive)
REMARK    1  A    between atoms: C_5  and  S_1 
REMARK    2  A    between atoms: N_8  and  S_1 
REMARK    3  A    between atoms: C_6  and  C_14 
REMARK    4  A    between atoms: C_14  and  N_8 
ROOT
ATOM      1  N   UNL d   1      57.476  -0.260  31.461  0.00  0.00    -0.155 NA
ENDROOT
BRANCH   1   2
ATOM      2  S   UNL d   1      56.867  -0.223  32.009  0.00  0.00     0.291 S 
ATOM      3  O   UNL d   1      56.689  -1.009  31.814  0.00  0.00    -0.198 OA
ATOM      4  O   UNL d   1      57.053   0.558  32.195  0.00  0.00    -0.198 OA
BRANCH   2   5
ATOM      5  C   UNL d   1      56.242  -0.189  32.571  0.00  0.00     0.135 A 
ATOM      6  S   UNL d   1      55.890  -0.839  32.941  0.00  0.00    -0.073 SA
ATOM      7  C   UNL d   1      55.289  -0.551  33.459  0.00  0.00     0.036 A 
ATOM      8  C   UNL d   1      55.280   0.284  33.399  0.00  0.00     0.008 A 
ATOM      9  C   UNL d   1      55.871   0.516  32.848  0.00  0.00     0.020 A 
ENDBRANCH   2   5
ENDBRANCH   1   2
BRANCH   1  10
ATOM     10  C   UNL d   1      57.528   0.303  30.867  0.00  0.00     0.133 C 
BRANCH  10  11
ATOM     11  C   UNL d   1      58.104   0.240  30.287  0.00  0.00     0.121 A 
ATOM     12  N   UNL d   1      58.021  -0.132  29.561  0.00  0.00    -0.219 NA
ATOM     13  C   UNL d   1      58.731  -0.065  29.152  0.00  0.00     0.180 A 
ATOM     14  S   UNL d   1      59.122  -0.250  28.455  0.00  0.00    -0.048 SA
ATOM     15  N   UNL d   1      59.264   0.358  29.634  0.00  0.00    -0.282 N 
ATOM     16  C   UNL d   1      59.888   0.053  28.503  0.00  0.00     0.057 A 
ATOM     17  C   UNL d   1      59.968   0.424  29.227  0.00  0.00     0.089 A 
ATOM     18  C   UNL d   1      58.869   0.544  30.335  0.00  0.00     0.103 A 
ENDBRANCH  10  11
ENDBRANCH   1  10
TORSDOF 4
ENDMDL
MODEL 2
REMARK VINA RESULT:      -4.3      1.282      4.470
REMARK  4 active torsions:
REMARK  status: ('A' for Active; 'I' for Inactive)
REMARK    1  A    between atoms: C_5  and  S_1 
REMARK    2  A    between atoms: N_8  and  S_1 
REMARK    3  A    between atoms: C_6  and  C_14 
REMARK    4  A    between atoms: C_14  and  N_8 
ROOT
ATOM      1  N   UNL d   1      57.449  -0.090  30.561  0.00  0.00    -0.155 NA
ENDROOT
BRANCH   1   2
ATOM      2  S   UNL d   1      58.058  -0.141  30.014  0.00  0.00     0.291 S 
ATOM      3  O   UNL d   1      58.140   0.682  30.077  0.00  0.00    -0.198 OA
ATOM      4  O   UNL d   1      57.968  -0.958  29.958  0.00  0.00    -0.198 OA
BRANCH   2   5
ATOM      5  C   UNL d   1      58.683  -0.189  29.453  0.00  0.00     0.135 A 
ATOM      6  S   UNL d   1      59.056  -0.883  29.205  0.00  0.00    -0.073 SA
ATOM      7  C   UNL d   1      59.648  -0.675  28.640  0.00  0.00     0.036 A 
ATOM      8  C   UNL d   1      59.630   0.156  28.548  0.00  0.00     0.008 A 
ATOM      9  C   UNL d   1      59.031   0.466  29.050  0.00  0.00     0.020 A 
ENDBRANCH   2   5
ENDBRANCH   1   2
BRANCH   1  10
ATOM     10  C   UNL d   1      57.620  -0.022  31.360  0.00  0.00     0.133 C 
BRANCH  10  11
ATOM     11  C   UNL d   1      57.015  -0.009  31.913  0.00  0.00     0.121 A 
ATOM     12  N   UNL d   1      56.681   0.660  32.250  0.00  0.00    -0.219 NA
ATOM     13  C   UNL d   1      56.094   0.421  32.774  0.00  0.00     0.180 A 
ATOM     14  S   UNL d   1      55.526   0.682  33.305  0.00  0.00    -0.048 SA
ATOM     15  N   UNL d   1      56.065  -0.411  32.761  0.00  0.00    -0.282 N 
ATOM     16  C   UNL d   1      55.147   0.019  33.619  0.00  0.00     0.057 A 
ATOM     17  C   UNL d   1      55.481  -0.646  33.282  0.00  0.00     0.089 A 
ATOM     18  C   UNL d   1      56.637  -0.672  32.227  0.00  0.00     0.103 A 
ENDBRANCH  10  11
ENDBRANCH   1  10
TORSDOF 4
ENDMDL
MODEL 3
REMARK VINA RESULT:      -4.2      0.954      1.191
REMARK  4 active torsions:
REMARK  status: ('A' for Active; 'I' for Inactive)
REMARK    1  A    between atoms: C_5  and  S_1 
REMARK    2  A    between atoms: N_8  and  S_1 
REMARK    3  A    between atoms: C_6  and  C_14 
REMARK    4  A    between atoms: C_14  and  N_8 
ROOT
ATOM      1  N   UNL d   1      57.049   0.093  32.235  0.00  0.00    -0.155 NA
ENDROOT
BRANCH   1   2
ATOM      2  S   UNL d   1      56.483   0.214  32.815  0.00  0.00     0.291 S 
ATOM      3  O   UNL d   1      57.040   0.677  33.217  0.00  0.00    -0.198 OA
ATOM      4  O   UNL d   1      55.936  -0.249  32.407  0.00  0.00    -0.198 OA
BRANCH   2   5
ATOM      5  C   UNL d   1      55.904   0.340  33.412  0.00  0.00     0.135 A 
ATOM      6  S   UNL d   1      56.046   0.653  34.163  0.00  0.00    -0.073 SA
ATOM      7  C   UNL d   1      55.312   0.681  34.579  0.00  0.00     0.036 A 
ATOM      8  C   UNL d   1      54.720   0.380  34.069  0.00  0.00     0.008 A 
ATOM      9  C   UNL d   1      55.081   0.165  33.341  0.00  0.00     0.020 A 
ENDBRANCH   2   5
ENDBRANCH   1   2
BRANCH   1  10
ATOM     10  C   UNL d   1      57.168   0.659  31.653  0.00  0.00     0.133 C 
BRANCH  10  11
ATOM     11  C   UNL d   1      57.728   0.539  31.066  0.00  0.00     0.121 A 
ATOM     12  N   UNL d   1      57.585   0.257  30.310  0.00  0.00    -0.219 NA
ATOM     13  C   UNL d   1      58.301   0.223  29.906  0.00  0.00     0.180 A 
ATOM     14  S   UNL d   1      58.658   0.030  29.194  0.00  0.00    -0.048 SA
ATOM     15  N   UNL d   1      58.898   0.488  30.424  0.00  0.00    -0.282 N 
ATOM     16  C   UNL d   1      59.468   0.172  29.266  0.00  0.00     0.057 A 
ATOM     17  C   UNL d   1      59.608   0.453  30.021  0.00  0.00     0.089 A 
ATOM     18  C   UNL d   1      58.538   0.682  31.140  0.00  0.00     0.103 A 
ENDBRANCH  10  11
ENDBRANCH   1  10
TORSDOF 4
ENDMDL
MODEL 4
REMARK VINA RESULT:      -2.8      9.911     10.152
REMARK  4 active torsions:
REMARK  status: ('A' for Active; 'I' for Inactive)
REMARK    1  A    between atoms: C_5  and  S_1 
REMARK    2  A    between atoms: N_8  and  S_1 
REMARK    3  A    between atoms: C_6  and  C_14 
REMARK    4  A    between atoms: C_14  and  N_8 
ROOT
ATOM      1  N   UNL d   1      59.254  -9.072  33.555  0.00  0.00    -0.155 NA
ENDROOT
BRANCH   1   2
ATOM      2  S   UNL d   1      59.602  -9.061  34.297  0.00  0.00     0.291 S 
ATOM      3  O   UNL d   1      60.280  -8.745  33.939  0.00  0.00    -0.198 OA
ATOM      4  O   UNL d   1      58.923  -9.376  34.643  0.00  0.00    -0.198 OA
BRANCH   2   5
ATOM      5  C   UNL d   1      59.962  -9.048  35.057  0.00  0.00     0.135 A 
ATOM      6  S   UNL d   1      59.959  -8.410  35.582  0.00  0.00    -0.073 SA
ATOM      7  C   UNL d   1      60.383  -8.639  36.275  0.00  0.00     0.036 A 
ATOM      8  C   UNL d   1      60.645  -9.426  36.164  0.00  0.00     0.008 A 
ATOM      9  C   UNL d   1      60.387  -9.687  35.408  0.00  0.00     0.020 A 
ENDBRANCH   2   5
ENDBRANCH   1   2
BRANCH   1  10
ATOM     10  C   UNL d   1      59.000  -9.781  33.231  0.00  0.00     0.133 C 
BRANCH  10  11
ATOM     11  C   UNL d   1      58.599  -9.789  32.515  0.00  0.00     0.121 A 
ATOM     12  N   UNL d   1      57.785  -9.798  32.417  0.00  0.00    -0.219 NA
ATOM     13  C   UNL d   1      57.623  -9.805  31.610  0.00  0.00     0.180 A 
ATOM     14  S   UNL d   1      57.025  -9.814  31.049  0.00  0.00    -0.048 SA
ATOM     15  N   UNL d   1      58.350  -9.800  31.203  0.00  0.00    -0.282 N 
ATOM     16  C   UNL d   1      57.375  -9.815  30.302  0.00  0.00     0.057 A 
ATOM     17  C   UNL d   1      58.186  -9.807  30.403  0.00  0.00     0.089 A 
ATOM     18  C   UNL d   1      58.951  -9.791  31.769  0.00  0.00     0.103 A 
ENDBRANCH  10  11
ENDBRANCH   1  10
TORSDOF 4
ENDMDL
MODEL 5
REMARK VINA RESULT:      -2.4      9.838     10.373
REMARK  4 active torsions:
REMARK  status: ('A' for Active; 'I' for Inactive)
REMARK    1  A    between atoms: C_5  and  S_1 
REMARK    2  A    between atoms: N_8  and  S_1 
REMARK    3  A    between atoms: C_6  and  C_14 
REMARK    4  A    between atoms: C_14  and  N_8 
ROOT
ATOM      1  N   UNL d   1      58.591  -9.814  33.036  0.00  0.00    -0.155 NA
ENDROOT
BRANCH   1   2
ATOM      2  S   UNL d   1      58.321  -9.814  32.261  0.00  0.00     0.291 S 
ATOM      3  O   UNL d   1      57.550  -9.813  32.566  0.00  0.00    -0.198 OA
ATOM      4  O   UNL d   1      59.092  -9.815  31.970  0.00  0.00    -0.198 OA
BRANCH   2   5
ATOM      5  C   UNL d   1      58.039  -9.814  31.469  0.00  0.00     0.135 A 
ATOM      6  S   UNL d   1      57.246  -9.811  31.238  0.00  0.00    -0.073 SA
ATOM      7  C   UNL d   1      57.218  -9.812  30.395  0.00  0.00     0.036 A 
ATOM      8  C   UNL d   1      58.007  -9.816  30.115  0.00  0.00     0.008 A 
ATOM      9  C   UNL d   1      58.524  -9.818  30.778  0.00  0.00     0.020 A 
ENDBRANCH   2   5
ENDBRANCH   1   2
BRANCH   1  10
ATOM     10  C   UNL d   1      59.354  -9.565  33.204  0.00  0.00     0.133 C 
BRANCH  10  11
ATOM     11  C   UNL d   1      59.539  -9.269  33.946  0.00  0.00     0.121 A 
ATOM     12  N   UNL d   1      60.057  -8.654  34.106  0.00  0.00    -0.219 NA
ATOM     13  C   UNL d   1      60.078  -8.539  34.920  0.00  0.00     0.180 A 
ATOM     14  S   UNL d   1      60.407  -8.092  35.524  0.00  0.00    -0.048 SA
ATOM     15  N   UNL d   1      59.563  -9.093  35.270  0.00  0.00    -0.282 N 
ATOM     16  C   UNL d   1      60.101  -8.364  36.241  0.00  0.00     0.057 A 
ATOM     17  C   UNL d   1      59.585  -8.977  36.078  0.00  0.00     0.089 A 
ATOM     18  C   UNL d   1      59.232  -9.542  34.661  0.00  0.00     0.103 A 
ENDBRANCH  10  11
ENDBRANCH   1  10
TORSDOF 4
ENDMDL
