MODEL 1
REMARK VINA RESULT:      19.3      0.000      0.000
REMARK  2 active torsions:
REMARK  status: ('A' for Active; 'I' for Inactive)
REMARK    1  A    between atoms: C_10  and  C_3 
REMARK    2  A    between atoms: O_20  and  C_16 
ROOT
ATOM      1  C   UNL d   1      45.942 -17.150  43.531  0.00  0.00     0.203 A 
ATOM      2  C   UNL d   1      46.119 -17.948  43.390  0.00  0.00     0.101 A 
ATOM      3  C   UNL d   1      45.909 -16.854  44.310  0.00  0.00     0.064 A 
ATOM      4  C   UNL d   1      46.265 -18.456  44.040  0.00  0.00     0.109 A 
ATOM      5  C   UNL d   1      46.057 -17.368  44.955  0.00  0.00     0.126 A 
ATOM      6  C   UNL d   1      46.150 -18.238  42.622  0.00  0.00     0.204 A 
ATOM      7  O   UNL d   1      46.235 -18.169  44.817  0.00  0.00    -0.305 OA
ATOM      8  C   UNL d   1      46.442 -19.255  43.898  0.00  0.00     0.067 A 
ATOM      9  C   UNL d   1      46.325 -19.030  42.486  0.00  0.00     0.084 A 
ATOM     10  O   UNL d   1      45.796 -16.644  42.896  0.00  0.00    -0.286 OA
ATOM     11  C   UNL d   1      46.471 -19.537  43.121  0.00  0.00     0.201 A 
ATOM     12  O   UNL d   1      46.004 -17.732  41.987  0.00  0.00    -0.286 OA
ATOM     13  O   UNL d   1      46.647 -20.329  42.985  0.00  0.00    -0.286 OA
ENDROOT
BRANCH   3  14
ATOM     14  C   UNL d   1      45.734 -16.061  44.446  0.00  0.00     0.005 A 
ATOM     15  C   UNL d   1      46.277 -15.481  44.225  0.00  0.00     0.002 A 
ATOM     16  C   UNL d   1      46.102 -14.688  44.361  0.00  0.00     0.024 A 
ATOM     17  C   UNL d   1      45.394 -14.474  44.714  0.00  0.00     0.094 A 
ATOM     18  C   UNL d   1      44.850 -15.067  44.935  0.00  0.00     0.024 A 
ATOM     19  C   UNL d   1      45.026 -15.859  44.799  0.00  0.00     0.002 A 
BRANCH  17  20
ATOM     20  O   UNL d   1      45.219 -13.682  44.851  0.00  0.00    -0.328 OA
ATOM     21  C   UNL d   1      45.508 -13.096  44.337  0.00  0.00     0.181 C 
ENDBRANCH  17  20
ENDBRANCH   3  14
TORSDOF 2
ENDMDL
