MODEL 1
REMARK VINA RESULT:      49.1      0.000      0.000
REMARK  6 active torsions:
REMARK  status: ('A' for Active; 'I' for Inactive)
REMARK    1  A    between atoms: N_5  and  C_1 
REMARK       I    between atoms: C_9  and  N_5 
REMARK    2  A    between atoms: C_20  and  C_6 
REMARK    3  A    between atoms: C_17  and  C_9 
REMARK    4  A    between atoms: C_12  and  C_10 
REMARK    5  A    between atoms: C_11  and  S_13 
REMARK    6  A    between atoms: S_13  and  C_17 
ROOT
ATOM      1  N   UNL d   1      58.999  49.620  49.937  0.00  0.00    -0.148 NA
ATOM      2  N   UNL d   1      59.739  49.620  50.301  0.00  0.00    -0.141 NA
ATOM      3  C   UNL d   1      58.310  49.663  50.397  0.00  0.00     0.104 A 
ATOM      4  C   UNL d   1      59.804  49.660  51.116  0.00  0.00     0.133 A 
ATOM      5  C   UNL d   1      58.372  49.704  51.221  0.00  0.00     0.023 A 
ATOM      6  C   UNL d   1      59.112  49.703  51.580  0.00  0.00     0.029 A 
ENDROOT
BRANCH   4   7
ATOM      7  S   UNL d   1      60.544  49.659  51.480  0.00  0.00    -0.061 SA
BRANCH   7   8
ATOM      8  C   UNL d   1      61.210  49.415  51.066  0.00  0.00     0.099 C 
BRANCH   8   9
ATOM      9  C   UNL d   1      61.385  48.608  51.015  0.00  0.00     0.288 C 
ATOM     10  N   UNL d   1      61.168  48.184  50.344  0.00  0.00    -0.181 NA
ATOM     11  O   UNL d   1      61.774  48.230  51.632  0.00  0.00    -0.265 OA
BRANCH  10  12
ATOM     12  C   UNL d   1      61.340  47.386  50.291  0.00  0.00     0.219 A 
ATOM     13  S   UNL d   1      61.114  46.800  50.832  0.00  0.00    -0.026 SA
ATOM     14  C   UNL d   1      61.401  46.086  50.564  0.00  0.00     0.135 A 
ATOM     15  N   UNL d   1      61.804  46.220  49.859  0.00  0.00    -0.139 NA
ATOM     16  N   UNL d   1      61.764  47.019  49.696  0.00  0.00    -0.121 NA
BRANCH  14  17
ATOM     17  C   UNL d   1      61.304  45.353  50.935  0.00  0.00     0.028 C 
ATOM     18  C   UNL d   1      60.556  45.036  51.039  0.00  0.00     0.002 C 
ENDBRANCH  14  17
ENDBRANCH  10  12
ENDBRANCH   8   9
ENDBRANCH   7   8
ENDBRANCH   4   7
BRANCH   3  19
ATOM     19  C   UNL d   1      57.570  49.664  50.034  0.00  0.00     0.039 A 
ATOM     20  C   UNL d   1      57.519  49.664  49.221  0.00  0.00     0.101 A 
ATOM     21  N   UNL d   1      56.787  49.665  48.856  0.00  0.00    -0.242 NA
ATOM     22  C   UNL d   1      56.095  49.665  49.319  0.00  0.00     0.099 A 
ATOM     23  C   UNL d   1      56.150  49.665  50.135  0.00  0.00     0.021 A 
ATOM     24  C   UNL d   1      56.888  49.664  50.507  0.00  0.00     0.005 A 
ENDBRANCH   3  19
TORSDOF 6
ENDMDL
