MODEL 1
REMARK VINA RESULT:      68.4      0.000      0.000
REMARK  8 active torsions:
REMARK  status: ('A' for Active; 'I' for Inactive)
REMARK    1  A    between atoms: C_7  and  C_3 
REMARK    2  A    between atoms: C_9  and  C_4 
REMARK    3  A    between atoms: O_13  and  C_7 
REMARK    4  A    between atoms: O_15  and  C_12 
REMARK    5  A    between atoms: C_26  and  O_13 
REMARK    6  A    between atoms: O_25  and  C_14 
REMARK    7  A    between atoms: C_16  and  O_15 
REMARK    8  A    between atoms: C_28  and  O_25 
ROOT
ATOM      1  N   UNL d   1     -58.628 -98.850 -44.002  0.00  0.00    -0.254 N 
ATOM      2  C   UNL d   1     -58.211 -98.794 -43.292  0.00  0.00     0.182 A 
ATOM      3  C   UNL d   1     -57.400 -98.858 -44.725  0.00  0.00     0.097 A 
ATOM      4  C   UNL d   1     -58.225 -98.883 -44.719  0.00  0.00     0.075 A 
ATOM      5  N   UNL d   1     -57.388 -98.769 -43.302  0.00  0.00    -0.222 NA
ATOM      6  C   UNL d   1     -56.979 -98.801 -44.017  0.00  0.00     0.090 A 
ATOM      7  C   UNL d   1     -59.454 -98.875 -43.998  0.00  0.00     0.267 A 
ATOM      8  S   UNL d   1     -58.613 -98.762 -42.583  0.00  0.00    -0.049 SA
ATOM      9  C   UNL d   1     -59.853 -98.843 -43.274  0.00  0.00     0.068 A 
ATOM     10  O   UNL d   1     -59.875 -98.932 -44.706  0.00  0.00    -0.267 OA
ATOM     11  C   UNL d   1     -59.433 -98.786 -42.567  0.00  0.00     0.043 A 
ATOM     12  C   UNL d   1     -56.160 -98.777 -44.026  0.00  0.00     0.021 C 
ENDROOT
BRANCH   4  13
ATOM     13  C   UNL d   1     -58.645 -98.939 -45.427  0.00  0.00     0.019 A 
ATOM     14  C   UNL d   1     -58.247 -99.105 -46.126  0.00  0.00     0.028 A 
ATOM     15  C   UNL d   1     -58.667 -99.162 -46.833  0.00  0.00     0.123 A 
ATOM     16  C   UNL d   1     -59.493 -99.051 -46.838  0.00  0.00     0.126 A 
ATOM     17  C   UNL d   1     -59.890 -98.884 -46.129  0.00  0.00     0.027 A 
ATOM     18  C   UNL d   1     -59.465 -98.828 -45.424  0.00  0.00     0.004 A 
BRANCH  15  19
ATOM     19  O   UNL d   1     -58.273 -99.328 -47.536  0.00  0.00    -0.303 OA
BRANCH  19  20
ATOM     20  C   UNL d   1     -57.779 -98.762 -47.877  0.00  0.00     0.123 C 
ATOM     21  C   UNL d   1     -57.644 -98.768 -48.690  0.00  0.00     0.029 C 
ENDBRANCH  19  20
ENDBRANCH  15  19
BRANCH  16  22
ATOM     22  O   UNL d   1     -59.917 -99.107 -47.543  0.00  0.00    -0.271 OA
BRANCH  22  23
ATOM     23  C   UNL d   1     -59.522 -99.238 -48.252  0.00  0.00     0.300 C 
ATOM     24  O   UNL d   1     -59.812 -99.795 -48.786  0.00  0.00    -0.259 OA
ATOM     25  C   UNL d   1     -58.838 -98.816 -48.428  0.00  0.00     0.074 C 
ENDBRANCH  22  23
ENDBRANCH  16  22
ENDBRANCH   4  13
BRANCH   3  26
ATOM     26  C   UNL d   1     -56.997 -98.890 -45.443  0.00  0.00     0.303 C 
ATOM     27  O   UNL d   1     -57.410 -98.870 -46.158  0.00  0.00    -0.259 OA
BRANCH  26  28
ATOM     28  O   UNL d   1     -56.172 -98.944 -45.443  0.00  0.00    -0.273 OA
BRANCH  28  29
ATOM     29  C   UNL d   1     -55.790 -99.430 -44.892  0.00  0.00     0.103 C 
ATOM     30  C   UNL d   1     -56.091-100.175 -44.712  0.00  0.00     0.027 C 
ATOM     31  C   UNL d   1     -55.102 -99.166 -44.520  0.00  0.00     0.027 C 
ENDBRANCH  28  29
ENDBRANCH  26  28
ENDBRANCH   3  26
TORSDOF 8
ENDMDL
