MODEL 1
REMARK VINA RESULT:      -5.6      0.000      0.000
REMARK  3 active torsions:
REMARK  status: ('A' for Active; 'I' for Inactive)
REMARK    1  A    between atoms: C_11  and  C_3 
REMARK       I    between atoms: C_7  and  N_9 
REMARK    2  A    between atoms: C_8  and  C_7 
REMARK    3  A    between atoms: N_9  and  C_13 
ROOT
ATOM      1  C   UNL d   1      59.022  -1.410  29.078  0.00  0.00     0.021 A 
ATOM      2  C   UNL d   1      58.126  -0.653  29.893  0.00  0.00     0.085 A 
ATOM      3  C   UNL d   1      58.587  -1.327  29.774  0.00  0.00     0.021 A 
ATOM      4  C   UNL d   1      58.996  -0.820  28.501  0.00  0.00     0.002 A 
ATOM      5  C   UNL d   1      58.533  -0.146  28.621  0.00  0.00     0.002 A 
ATOM      6  C   UNL d   1      58.098  -0.063  29.317  0.00  0.00     0.019 A 
ENDROOT
BRANCH   2   7
ATOM      7  N   UNL d   1      57.693  -0.570  30.586  0.00  0.00    -0.207 NA
ATOM      8  C   UNL d   1      57.905  -0.007  31.139  0.00  0.00     0.297 C 
ATOM      9  O   UNL d   1      58.563   0.485  31.003  0.00  0.00    -0.264 OA
BRANCH   8  10
ATOM     10  C   UNL d   1      57.471   0.076  31.835  0.00  0.00     0.139 A 
ATOM     11  N   UNL d   1      56.781  -0.350  31.945  0.00  0.00    -0.241 NA
ATOM     12  C   UNL d   1      56.346  -0.267  32.641  0.00  0.00     0.082 A 
ATOM     13  C   UNL d   1      55.651  -0.699  32.747  0.00  0.00     0.019 A 
ATOM     14  C   UNL d   1      56.601   0.243  33.228  0.00  0.00     0.018 A 
ATOM     15  C   UNL d   1      55.216  -0.615  33.443  0.00  0.00     0.002 A 
ATOM     16  C   UNL d   1      55.476  -0.100  34.034  0.00  0.00     0.000 A 
ATOM     17  C   UNL d   1      56.166   0.327  33.924  0.00  0.00     0.002 A 
ATOM     18  C   UNL d   1      57.302   0.681  33.125  0.00  0.00     0.003 A 
ATOM     19  C   UNL d   1      57.737   0.598  32.429  0.00  0.00     0.024 A 
ENDBRANCH   8  10
ENDBRANCH   2   7
BRANCH   1  20
ATOM     20  C   UNL d   1      59.485  -2.084  28.958  0.00  0.00     0.101 A 
ATOM     21  N   UNL d   1      60.302  -2.171  29.050  0.00  0.00    -0.221 NA
ATOM     22  C   UNL d   1      60.486  -2.940  28.865  0.00  0.00     0.179 A 
ATOM     23  N   UNL d   1      59.795  -3.336  28.657  0.00  0.00    -0.282 N 
ATOM     24  S   UNL d   1      61.107  -3.471  28.806  0.00  0.00    -0.048 SA
ATOM     25  C   UNL d   1      59.170  -2.802  28.715  0.00  0.00     0.101 A 
ATOM     26  C   UNL d   1      60.002  -4.121  28.470  0.00  0.00     0.089 A 
ATOM     27  C   UNL d   1      60.805  -4.196  28.563  0.00  0.00     0.057 A 
ENDBRANCH   1  20
TORSDOF 3
ENDMDL
