MODEL 1
REMARK VINA RESULT:      -8.5      0.000      0.000
REMARK  8 active torsions:
REMARK  status: ('A' for Active; 'I' for Inactive)
REMARK    1  A    between atoms: C_5  and  C_1 
REMARK    2  A    between atoms: N_6  and  C_2 
REMARK    3  A    between atoms: C_7  and  C_5 
REMARK    4  A    between atoms: C_8  and  C_5 
REMARK    5  A    between atoms: O_12  and  C_7 
REMARK    6  A    between atoms: C_14  and  O_12 
REMARK    7  A    between atoms: C_19  and  C_14 
REMARK    8  A    between atoms: C_20  and  C_19 
ROOT
ATOM      1  C   UNL d   1      53.159  32.540  53.568  0.00  0.00     0.122 A 
ATOM      2  C   UNL d   1      53.796  32.283  54.020  0.00  0.00     0.166 A 
ATOM      3  N   UNL d   1      53.965  31.473  54.061  0.00  0.00    -0.225 NA
ATOM      4  N   UNL d   1      52.690  31.997  53.157  0.00  0.00    -0.241 NA
ATOM      5  C   UNL d   1      53.500  30.932  53.654  0.00  0.00     0.101 A 
ATOM      6  C   UNL d   1      52.861  31.195  53.201  0.00  0.00     0.099 A 
ATOM      7  C   UNL d   1      53.671  30.130  53.697  0.00  0.00     0.021 A 
ATOM      8  C   UNL d   1      52.397  30.654  52.793  0.00  0.00     0.021 A 
ATOM      9  C   UNL d   1      52.560  29.847  52.830  0.00  0.00     0.002 A 
ATOM     10  C   UNL d   1      53.202  29.587  53.286  0.00  0.00     0.002 A 
ENDROOT
BRANCH   1  11
ATOM     11  C   UNL d   1      52.983  33.354  53.522  0.00  0.00     0.105 C 
BRANCH  11  12
ATOM     12  C   UNL d   1      52.279  33.643  53.833  0.00  0.00     0.303 C 
ATOM     13  O   UNL d   1      52.240  33.883  54.619  0.00  0.00    -0.259 OA
BRANCH  12  14
ATOM     14  O   UNL d   1      51.607  33.693  53.351  0.00  0.00    -0.271 OA
BRANCH  14  15
ATOM     15  C   UNL d   1      50.798  33.609  53.258  0.00  0.00     0.126 C 
BRANCH  15  16
ATOM     16  C   UNL d   1      50.377  34.172  52.840  0.00  0.00     0.025 C 
ATOM     17  C   UNL d   1      50.088  34.831  53.228  0.00  0.00     0.002 C 
BRANCH  16  18
ATOM     18  C   UNL d   1      50.248  34.072  52.031  0.00  0.00     0.002 C 
ATOM     19  C   UNL d   1      49.601  34.432  51.667  0.00  0.00     0.000 C 
ENDBRANCH  16  18
ENDBRANCH  15  16
ENDBRANCH  14  15
ENDBRANCH  12  14
ENDBRANCH  11  12
BRANCH  11  20
ATOM     20  C   UNL d   1      53.523  33.876  53.160  0.00  0.00     0.129 C 
ATOM     21  N   UNL d   1      53.288  34.411  52.404  0.00  0.00    -0.146 N 
ENDBRANCH  11  20
ENDBRANCH   1  11
BRANCH   2  22
ATOM     22  N   UNL d   1      54.268  32.825  54.433  0.00  0.00    -0.288 N 
ATOM     23  C   UNL d   1      54.905  33.179  54.050  0.00  0.00     0.082 A 
ATOM     24  C   UNL d   1      55.376  33.721  54.466  0.00  0.00     0.019 A 
ATOM     25  C   UNL d   1      55.205  33.903  55.258  0.00  0.00     0.003 A 
ATOM     26  C   UNL d   1      54.563  33.542  55.633  0.00  0.00     0.019 A 
ATOM     27  C   UNL d   1      54.097  33.006  55.224  0.00  0.00     0.082 A 
ENDBRANCH   2  22
TORSDOF 8
ENDMDL
MODEL 2
REMARK VINA RESULT:      -8.1      1.274      3.616
REMARK  8 active torsions:
REMARK  status: ('A' for Active; 'I' for Inactive)
REMARK    1  A    between atoms: C_5  and  C_1 
REMARK    2  A    between atoms: N_6  and  C_2 
REMARK    3  A    between atoms: C_7  and  C_5 
REMARK    4  A    between atoms: C_8  and  C_5 
REMARK    5  A    between atoms: O_12  and  C_7 
REMARK    6  A    between atoms: C_14  and  O_12 
REMARK    7  A    between atoms: C_19  and  C_14 
REMARK    8  A    between atoms: C_20  and  C_19 
ROOT
ATOM      1  C   UNL d   1      52.967  32.958  53.282  0.00  0.00     0.122 A 
ATOM      2  C   UNL d   1      52.980  33.468  53.926  0.00  0.00     0.166 A 
ATOM      3  N   UNL d   1      52.382  34.035  54.009  0.00  0.00    -0.225 NA
ATOM      4  N   UNL d   1      52.364  33.009  52.719  0.00  0.00    -0.241 NA
ATOM      5  C   UNL d   1      51.782  34.087  53.450  0.00  0.00     0.101 A 
ATOM      6  C   UNL d   1      51.773  33.573  52.804  0.00  0.00     0.099 A 
ATOM      7  C   UNL d   1      51.190  34.650  53.535  0.00  0.00     0.021 A 
ATOM      8  C   UNL d   1      51.173  33.625  52.246  0.00  0.00     0.021 A 
ATOM      9  C   UNL d   1      50.575  34.187  52.322  0.00  0.00     0.002 A 
ATOM     10  C   UNL d   1      50.587  34.702  52.973  0.00  0.00     0.002 A 
ENDROOT
BRANCH   1  11
ATOM     11  C   UNL d   1      53.566  32.384  53.193  0.00  0.00     0.105 C 
BRANCH  11  12
ATOM     12  C   UNL d   1      53.375  31.619  52.963  0.00  0.00     0.303 C 
ATOM     13  O   UNL d   1      53.067  31.474  52.214  0.00  0.00    -0.259 OA
BRANCH  12  14
ATOM     14  O   UNL d   1      53.494  30.990  53.490  0.00  0.00    -0.271 OA
BRANCH  14  15
ATOM     15  C   UNL d   1      53.743  30.223  53.628  0.00  0.00     0.126 C 
BRANCH  15  16
ATOM     16  C   UNL d   1      53.237  29.689  53.987  0.00  0.00     0.025 C 
ATOM     17  C   UNL d   1      52.599  29.395  53.568  0.00  0.00     0.002 C 
BRANCH  16  18
ATOM     18  C   UNL d   1      53.373  29.453  54.765  0.00  0.00     0.002 C 
ATOM     19  C   UNL d   1      53.376  28.651  54.960  0.00  0.00     0.000 C 
ENDBRANCH  16  18
ENDBRANCH  15  16
ENDBRANCH  14  15
ENDBRANCH  12  14
ENDBRANCH  11  12
BRANCH  11  20
ATOM     20  C   UNL d   1      54.361  32.589  53.337  0.00  0.00     0.129 C 
ATOM     21  N   UNL d   1      55.047  32.470  52.683  0.00  0.00    -0.146 N 
ENDBRANCH  11  20
ENDBRANCH   1  11
BRANCH   2  22
ATOM     22  N   UNL d   1      53.583  33.419  54.492  0.00  0.00    -0.288 N 
ATOM     23  C   UNL d   1      54.267  33.866  54.392  0.00  0.00     0.082 A 
ATOM     24  C   UNL d   1      54.870  33.815  54.961  0.00  0.00     0.019 A 
ATOM     25  C   UNL d   1      54.782  33.320  55.621  0.00  0.00     0.003 A 
ATOM     26  C   UNL d   1      54.091  32.875  55.712  0.00  0.00     0.019 A 
ATOM     27  C   UNL d   1      53.495  32.924  55.152  0.00  0.00     0.082 A 
ENDBRANCH   2  22
TORSDOF 8
ENDMDL
MODEL 3
REMARK VINA RESULT:      -8.1      1.265      4.161
REMARK  8 active torsions:
REMARK  status: ('A' for Active; 'I' for Inactive)
REMARK    1  A    between atoms: C_5  and  C_1 
REMARK    2  A    between atoms: N_6  and  C_2 
REMARK    3  A    between atoms: C_7  and  C_5 
REMARK    4  A    between atoms: C_8  and  C_5 
REMARK    5  A    between atoms: O_12  and  C_7 
REMARK    6  A    between atoms: C_14  and  O_12 
REMARK    7  A    between atoms: C_19  and  C_14 
REMARK    8  A    between atoms: C_20  and  C_19 
ROOT
ATOM      1  C   UNL d   1      52.672  32.865  53.704  0.00  0.00     0.122 A 
ATOM      2  C   UNL d   1      52.520  33.663  53.577  0.00  0.00     0.166 A 
ATOM      3  N   UNL d   1      52.982  34.232  53.964  0.00  0.00    -0.225 NA
ATOM      4  N   UNL d   1      53.279  32.630  54.213  0.00  0.00    -0.241 NA
ATOM      5  C   UNL d   1      53.585  34.000  54.470  0.00  0.00     0.101 A 
ATOM      6  C   UNL d   1      53.734  33.197  54.595  0.00  0.00     0.099 A 
ATOM      7  C   UNL d   1      54.040  34.567  54.852  0.00  0.00     0.021 A 
ATOM      8  C   UNL d   1      54.337  32.965  55.101  0.00  0.00     0.021 A 
ATOM      9  C   UNL d   1      54.800  33.526  55.490  0.00  0.00     0.002 A 
ATOM     10  C   UNL d   1      54.647  34.332  55.361  0.00  0.00     0.002 A 
ENDROOT
BRANCH   1  11
ATOM     11  C   UNL d   1      52.211  32.287  53.318  0.00  0.00     0.105 C 
BRANCH  11  12
ATOM     12  C   UNL d   1      52.573  31.702  52.869  0.00  0.00     0.303 C 
ATOM     13  O   UNL d   1      52.805  31.856  52.094  0.00  0.00    -0.259 OA
BRANCH  12  14
ATOM     14  O   UNL d   1      52.705  30.953  53.200  0.00  0.00    -0.271 OA
BRANCH  14  15
ATOM     15  C   UNL d   1      52.771  30.142  53.107  0.00  0.00     0.126 C 
BRANCH  15  16
ATOM     16  C   UNL d   1      53.271  29.717  53.595  0.00  0.00     0.025 C 
ATOM     17  C   UNL d   1      54.077  29.729  53.455  0.00  0.00     0.002 C 
BRANCH  16  18
ATOM     18  C   UNL d   1      52.961  29.282  54.222  0.00  0.00     0.002 C 
ATOM     19  C   UNL d   1      53.454  28.804  54.680  0.00  0.00     0.000 C 
ENDBRANCH  16  18
ENDBRANCH  15  16
ENDBRANCH  14  15
ENDBRANCH  12  14
ENDBRANCH  11  12
BRANCH  11  20
ATOM     20  C   UNL d   1      51.381  32.304  53.387  0.00  0.00     0.129 C 
ATOM     21  N   UNL d   1      50.869  31.526  53.602  0.00  0.00    -0.146 N 
ENDBRANCH  11  20
ENDBRANCH   1  11
BRANCH   2  22
ATOM     22  N   UNL d   1      51.912  33.902  53.067  0.00  0.00    -0.288 N 
ATOM     23  C   UNL d   1      51.155  34.018  53.368  0.00  0.00     0.082 A 
ATOM     24  C   UNL d   1      50.548  34.257  52.855  0.00  0.00     0.019 A 
ATOM     25  C   UNL d   1      50.705  34.378  52.049  0.00  0.00     0.003 A 
ATOM     26  C   UNL d   1      51.469  34.259  51.756  0.00  0.00     0.019 A 
ATOM     27  C   UNL d   1      52.069  34.023  52.261  0.00  0.00     0.082 A 
ENDBRANCH   2  22
TORSDOF 8
ENDMDL
MODEL 4
REMARK VINA RESULT:      -6.4      1.332      2.809
REMARK  8 active torsions:
REMARK  status: ('A' for Active; 'I' for Inactive)
REMARK    1  A    between atoms: C_5  and  C_1 
REMARK    2  A    between atoms: N_6  and  C_2 
REMARK    3  A    between atoms: C_7  and  C_5 
REMARK    4  A    between atoms: C_8  and  C_5 
REMARK    5  A    between atoms: O_12  and  C_7 
REMARK    6  A    between atoms: C_14  and  O_12 
REMARK    7  A    between atoms: C_19  and  C_14 
REMARK    8  A    between atoms: C_20  and  C_19 
ROOT
ATOM      1  C   UNL d   1      53.297  31.979  53.607  0.00  0.00     0.122 A 
ATOM      2  C   UNL d   1      52.564  31.924  53.238  0.00  0.00     0.166 A 
ATOM      3  N   UNL d   1      52.231  31.178  53.102  0.00  0.00    -0.225 NA
ATOM      4  N   UNL d   1      53.700  31.296  53.840  0.00  0.00    -0.241 NA
ATOM      5  C   UNL d   1      52.631  30.499  53.333  0.00  0.00     0.101 A 
ATOM      6  C   UNL d   1      53.367  30.558  53.703  0.00  0.00     0.099 A 
ATOM      7  C   UNL d   1      52.298  29.760  53.196  0.00  0.00     0.021 A 
ATOM      8  C   UNL d   1      53.766  29.879  53.935  0.00  0.00     0.021 A 
ATOM      9  C   UNL d   1      53.441  29.133  53.802  0.00  0.00     0.002 A 
ATOM     10  C   UNL d   1      52.701  29.078  53.430  0.00  0.00     0.002 A 
ENDROOT
BRANCH   1  11
ATOM     11  C   UNL d   1      53.637  32.727  53.747  0.00  0.00     0.105 C 
BRANCH  11  12
ATOM     12  C   UNL d   1      53.662  33.033  54.509  0.00  0.00     0.303 C 
ATOM     13  O   UNL d   1      53.648  32.530  55.160  0.00  0.00    -0.259 OA
BRANCH  12  14
ATOM     14  O   UNL d   1      53.703  33.853  54.621  0.00  0.00    -0.271 OA
BRANCH  14  15
ATOM     15  C   UNL d   1      53.988  34.495  55.042  0.00  0.00     0.126 C 
BRANCH  15  16
ATOM     16  C   UNL d   1      53.518  35.158  55.139  0.00  0.00     0.025 C 
ATOM     17  C   UNL d   1      53.005  35.200  55.773  0.00  0.00     0.002 C 
BRANCH  16  18
ATOM     18  C   UNL d   1      53.567  35.778  54.597  0.00  0.00     0.002 C 
ATOM     19  C   UNL d   1      53.147  36.476  54.726  0.00  0.00     0.000 C 
ENDBRANCH  16  18
ENDBRANCH  15  16
ENDBRANCH  14  15
ENDBRANCH  12  14
ENDBRANCH  11  12
BRANCH  11  20
ATOM     20  C   UNL d   1      53.953  33.165  53.113  0.00  0.00     0.129 C 
ATOM     21  N   UNL d   1      54.886  33.167  52.906  0.00  0.00    -0.146 N 
ENDBRANCH  11  20
ENDBRANCH   1  11
BRANCH   2  22
ATOM     22  N   UNL d   1      52.157  32.606  53.003  0.00  0.00    -0.288 N 
ATOM     23  C   UNL d   1      52.409  33.016  52.334  0.00  0.00     0.082 A 
ATOM     24  C   UNL d   1      51.999  33.699  52.100  0.00  0.00     0.019 A 
ATOM     25  C   UNL d   1      51.345  33.965  52.537  0.00  0.00     0.003 A 
ATOM     26  C   UNL d   1      51.101  33.547  53.207  0.00  0.00     0.019 A 
ATOM     27  C   UNL d   1      51.504  32.872  53.440  0.00  0.00     0.082 A 
ENDBRANCH   2  22
TORSDOF 8
ENDMDL
MODEL 5
REMARK VINA RESULT:      -6.1      0.976      2.931
REMARK  8 active torsions:
REMARK  status: ('A' for Active; 'I' for Inactive)
REMARK    1  A    between atoms: C_5  and  C_1 
REMARK    2  A    between atoms: N_6  and  C_2 
REMARK    3  A    between atoms: C_7  and  C_5 
REMARK    4  A    between atoms: C_8  and  C_5 
REMARK    5  A    between atoms: O_12  and  C_7 
REMARK    6  A    between atoms: C_14  and  O_12 
REMARK    7  A    between atoms: C_19  and  C_14 
REMARK    8  A    between atoms: C_20  and  C_19 
ROOT
ATOM      1  C   UNL d   1      52.900  32.690  53.786  0.00  0.00     0.122 A 
ATOM      2  C   UNL d   1      53.458  32.103  53.927  0.00  0.00     0.166 A 
ATOM      3  N   UNL d   1      54.119  32.275  54.396  0.00  0.00    -0.225 NA
ATOM      4  N   UNL d   1      52.996  33.445  54.108  0.00  0.00    -0.241 NA
ATOM      5  C   UNL d   1      54.216  33.024  54.716  0.00  0.00     0.101 A 
ATOM      6  C   UNL d   1      53.653  33.611  54.572  0.00  0.00     0.099 A 
ATOM      7  C   UNL d   1      54.873  33.190  55.180  0.00  0.00     0.021 A 
ATOM      8  C   UNL d   1      53.749  34.361  54.893  0.00  0.00     0.021 A 
ATOM      9  C   UNL d   1      54.405  34.538  55.360  0.00  0.00     0.002 A 
ATOM     10  C   UNL d   1      54.968  33.946  55.502  0.00  0.00     0.002 A 
ENDROOT
BRANCH   1  11
ATOM     11  C   UNL d   1      52.232  32.524  53.315  0.00  0.00     0.105 C 
BRANCH  11  12
ATOM     12  C   UNL d   1      52.069  32.983  52.653  0.00  0.00     0.303 C 
ATOM     13  O   UNL d   1      52.491  32.872  51.956  0.00  0.00    -0.259 OA
BRANCH  12  14
ATOM     14  O   UNL d   1      51.475  33.560  52.689  0.00  0.00    -0.271 OA
BRANCH  14  15
ATOM     15  C   UNL d   1      51.200  34.303  52.483  0.00  0.00     0.126 C 
BRANCH  15  16
ATOM     16  C   UNL d   1      50.398  34.422  52.371  0.00  0.00     0.025 C 
ATOM     17  C   UNL d   1      50.059  34.232  51.651  0.00  0.00     0.002 C 
BRANCH  16  18
ATOM     18  C   UNL d   1      49.939  34.732  52.981  0.00  0.00     0.002 C 
ATOM     19  C   UNL d   1      49.231  35.121  52.812  0.00  0.00     0.000 C 
ENDBRANCH  16  18
ENDBRANCH  15  16
ENDBRANCH  14  15
ENDBRANCH  12  14
ENDBRANCH  11  12
BRANCH  11  20
ATOM     20  C   UNL d   1      51.728  31.892  53.517  0.00  0.00     0.129 C 
ATOM     21  N   UNL d   1      50.798  32.014  53.694  0.00  0.00    -0.146 N 
ENDBRANCH  11  20
ENDBRANCH   1  11
BRANCH   2  22
ATOM     22  N   UNL d   1      53.365  31.345  53.606  0.00  0.00    -0.288 N 
ATOM     23  C   UNL d   1      53.595  31.206  52.827  0.00  0.00     0.082 A 
ATOM     24  C   UNL d   1      53.501  30.445  52.508  0.00  0.00     0.019 A 
ATOM     25  C   UNL d   1      53.179  29.834  52.970  0.00  0.00     0.003 A 
ATOM     26  C   UNL d   1      52.951  29.985  53.750  0.00  0.00     0.019 A 
ATOM     27  C   UNL d   1      53.043  30.735  54.067  0.00  0.00     0.082 A 
ENDBRANCH   2  22
TORSDOF 8
ENDMDL
