MODEL 1
REMARK VINA RESULT:      -6.3      0.000      0.000
REMARK  5 active torsions:
REMARK  status: ('A' for Active; 'I' for Inactive)
REMARK    1  A    between atoms: N_15  and  C_6 
REMARK    2  A    between atoms: N_14  and  C_18 
REMARK    3  A    between atoms: C_24  and  N_15 
REMARK    4  A    between atoms: C_18  and  C_19 
REMARK    5  A    between atoms: C_19  and  C_24 
ROOT
ATOM      1  N   UNL d   1     -48.293  13.659  22.954  0.00  0.00    -0.183 N 
ATOM      2  C   UNL d   1     -49.109  13.742  23.042  0.00  0.00     0.169 A 
ATOM      3  C   UNL d   1     -49.577  13.097  23.205  0.00  0.00     0.073 A 
ATOM      4  C   UNL d   1     -49.223  12.368  23.280  0.00  0.00     0.185 A 
ATOM      5  N   UNL d   1     -48.407  12.285  23.192  0.00  0.00    -0.142 NA
ATOM      6  C   UNL d   1     -47.842  14.315  22.792  0.00  0.00     0.218 A 
ATOM      7  N   UNL d   1     -49.453  14.479  22.965  0.00  0.00    -0.226 NA
ATOM      8  C   UNL d   1     -50.384  13.179  23.292  0.00  0.00     0.007 A 
ATOM      9  N   UNL d   1     -49.683  11.705  23.445  0.00  0.00    -0.225 NA
ATOM     10  C   UNL d   1     -48.178  15.046  22.714  0.00  0.00     0.071 A 
ATOM     11  C   UNL d   1     -50.852  12.534  23.455  0.00  0.00     0.019 A 
ATOM     12  C   UNL d   1     -48.994  15.129  22.802  0.00  0.00     0.087 A 
ATOM     13  C   UNL d   1     -50.499  11.788  23.533  0.00  0.00     0.083 A 
ATOM     14  C   UNL d   1     -50.727  13.919  23.214  0.00  0.00     0.000 C 
ATOM     15  C   UNL d   1     -49.348  15.896  22.721  0.00  0.00     0.021 C 
ATOM     16  C   UNL d   1     -50.958  11.141  23.695  0.00  0.00     0.021 C 
ENDROOT
BRANCH   6  17
ATOM     17  N   UNL d   1     -47.000  14.221  22.703  0.00  0.00    -0.380 NA
BRANCH  17  18
ATOM     18  C   UNL d   1     -46.171  14.223  22.564  0.00  0.00     0.164 C 
BRANCH  18  19
ATOM     19  C   UNL d   1     -45.741  13.501  22.592  0.00  0.00     0.054 C 
BRANCH  19  20
ATOM     20  C   UNL d   1     -45.307  13.239  21.899  0.00  0.00     0.083 C 
BRANCH  20  21
ATOM     21  N   UNL d   1     -44.618  12.756  21.984  0.00  0.00    -0.299 N 
ATOM     22  C   UNL d   1     -43.929  12.916  21.504  0.00  0.00     0.107 A 
ATOM     23  C   UNL d   1     -43.232  12.435  21.582  0.00  0.00     0.142 A 
ATOM     24  O   UNL d   1     -43.224  11.793  22.141  0.00  0.00    -0.300 OA
ATOM     25  C   UNL d   1     -43.905  11.636  22.615  0.00  0.00     0.142 A 
ATOM     26  C   UNL d   1     -44.602  12.117  22.537  0.00  0.00     0.107 A 
ENDBRANCH  20  21
ENDBRANCH  19  20
ENDBRANCH  18  19
ENDBRANCH  17  18
ENDBRANCH   6  17
TORSDOF 5
ENDMDL
MODEL 2
REMARK VINA RESULT:      -6.2      2.274      4.525
REMARK  5 active torsions:
REMARK  status: ('A' for Active; 'I' for Inactive)
REMARK    1  A    between atoms: N_15  and  C_6 
REMARK    2  A    between atoms: N_14  and  C_18 
REMARK    3  A    between atoms: C_24  and  N_15 
REMARK    4  A    between atoms: C_18  and  C_19 
REMARK    5  A    between atoms: C_19  and  C_24 
ROOT
ATOM      1  N   UNL d   1     -44.590  12.567  22.267  0.00  0.00    -0.183 N 
ATOM      2  C   UNL d   1     -45.156  12.203  22.743  0.00  0.00     0.169 A 
ATOM      3  C   UNL d   1     -45.891  12.537  22.845  0.00  0.00     0.073 A 
ATOM      4  C   UNL d   1     -46.056  13.239  22.468  0.00  0.00     0.185 A 
ATOM      5  N   UNL d   1     -45.489  13.603  21.991  0.00  0.00    -0.142 NA
ATOM      6  C   UNL d   1     -43.862  12.218  22.177  0.00  0.00     0.218 A 
ATOM      7  N   UNL d   1     -44.979  11.498  23.117  0.00  0.00    -0.226 NA
ATOM      8  C   UNL d   1     -46.451  12.176  23.317  0.00  0.00     0.007 A 
ATOM      9  N   UNL d   1     -46.795  13.590  22.561  0.00  0.00    -0.225 NA
ATOM     10  C   UNL d   1     -43.682  11.521  22.545  0.00  0.00     0.071 A 
ATOM     11  C   UNL d   1     -47.185  12.511  23.418  0.00  0.00     0.019 A 
ATOM     12  C   UNL d   1     -44.248  11.156  23.021  0.00  0.00     0.087 A 
ATOM     13  C   UNL d   1     -47.361  13.225  23.038  0.00  0.00     0.083 A 
ATOM     14  C   UNL d   1     -46.272  11.469  23.691  0.00  0.00     0.000 C 
ATOM     15  C   UNL d   1     -44.062  10.425  23.409  0.00  0.00     0.021 C 
ATOM     16  C   UNL d   1     -48.090  13.564  23.134  0.00  0.00     0.021 C 
ENDROOT
BRANCH   6  17
ATOM     17  N   UNL d   1     -43.283  12.601  21.683  0.00  0.00    -0.380 NA
BRANCH  17  18
ATOM     18  C   UNL d   1     -42.756  12.924  21.113  0.00  0.00     0.164 C 
BRANCH  18  19
ATOM     19  C   UNL d   1     -42.164  13.470  21.355  0.00  0.00     0.054 C 
BRANCH  19  20
ATOM     20  C   UNL d   1     -41.635  13.808  20.770  0.00  0.00     0.083 C 
BRANCH  20  21
ATOM     21  N   UNL d   1     -41.093  14.421  20.986  0.00  0.00    -0.299 N 
ATOM     22  C   UNL d   1     -41.311  15.239  20.866  0.00  0.00     0.107 A 
ATOM     23  C   UNL d   1     -40.773  15.861  21.080  0.00  0.00     0.142 A 
ATOM     24  O   UNL d   1     -40.016  15.665  21.416  0.00  0.00    -0.300 OA
ATOM     25  C   UNL d   1     -39.801  14.857  21.535  0.00  0.00     0.142 A 
ATOM     26  C   UNL d   1     -40.339  14.235  21.320  0.00  0.00     0.107 A 
ENDBRANCH  20  21
ENDBRANCH  19  20
ENDBRANCH  18  19
ENDBRANCH  17  18
ENDBRANCH   6  17
TORSDOF 5
ENDMDL
MODEL 3
REMARK VINA RESULT:      -5.9      0.930      2.161
REMARK  5 active torsions:
REMARK  status: ('A' for Active; 'I' for Inactive)
REMARK    1  A    between atoms: N_15  and  C_6 
REMARK    2  A    between atoms: N_14  and  C_18 
REMARK    3  A    between atoms: C_24  and  N_15 
REMARK    4  A    between atoms: C_18  and  C_19 
REMARK    5  A    between atoms: C_19  and  C_24 
ROOT
ATOM      1  N   UNL d   1     -48.065  13.707  23.005  0.00  0.00    -0.183 N 
ATOM      2  C   UNL d   1     -48.840  13.543  23.236  0.00  0.00     0.169 A 
ATOM      3  C   UNL d   1     -49.400  14.132  23.257  0.00  0.00     0.073 A 
ATOM      4  C   UNL d   1     -49.181  14.886  23.046  0.00  0.00     0.185 A 
ATOM      5  N   UNL d   1     -48.406  15.050  22.815  0.00  0.00    -0.142 NA
ATOM      6  C   UNL d   1     -47.520  13.105  22.991  0.00  0.00     0.218 A 
ATOM      7  N   UNL d   1     -49.049  12.781  23.447  0.00  0.00    -0.226 NA
ATOM      8  C   UNL d   1     -50.167  13.970  23.486  0.00  0.00     0.007 A 
ATOM      9  N   UNL d   1     -49.737  15.494  23.061  0.00  0.00    -0.225 NA
ATOM     10  C   UNL d   1     -47.721  12.350  23.198  0.00  0.00     0.071 A 
ATOM     11  C   UNL d   1     -50.727  14.559  23.506  0.00  0.00     0.019 A 
ATOM     12  C   UNL d   1     -48.496  12.186  23.429  0.00  0.00     0.087 A 
ATOM     13  C   UNL d   1     -50.512  15.330  23.292  0.00  0.00     0.083 A 
ATOM     14  C   UNL d   1     -50.375  13.205  23.696  0.00  0.00     0.000 C 
ATOM     15  C   UNL d   1     -48.709  11.394  23.647  0.00  0.00     0.021 C 
ATOM     16  C   UNL d   1     -51.064  15.922  23.311  0.00  0.00     0.021 C 
ENDROOT
BRANCH   6  17
ATOM     17  N   UNL d   1     -46.722  13.283  22.751  0.00  0.00    -0.380 NA
BRANCH  17  18
ATOM     18  C   UNL d   1     -45.941  13.545  22.580  0.00  0.00     0.164 C 
BRANCH  18  19
ATOM     19  C   UNL d   1     -45.366  12.994  22.310  0.00  0.00     0.054 C 
BRANCH  19  20
ATOM     20  C   UNL d   1     -44.797  13.233  21.714  0.00  0.00     0.083 C 
BRANCH  20  21
ATOM     21  N   UNL d   1     -44.024  12.890  21.698  0.00  0.00    -0.299 N 
ATOM     22  C   UNL d   1     -43.405  13.264  21.242  0.00  0.00     0.107 A 
ATOM     23  C   UNL d   1     -42.625  12.926  21.221  0.00  0.00     0.142 A 
ATOM     24  O   UNL d   1     -42.464  12.213  21.656  0.00  0.00    -0.300 OA
ATOM     25  C   UNL d   1     -43.076  11.843  22.106  0.00  0.00     0.142 A 
ATOM     26  C   UNL d   1     -43.856  12.182  22.127  0.00  0.00     0.107 A 
ENDBRANCH  20  21
ENDBRANCH  19  20
ENDBRANCH  18  19
ENDBRANCH  17  18
ENDBRANCH   6  17
TORSDOF 5
ENDMDL
MODEL 4
REMARK VINA RESULT:      -5.6      4.087      8.383
REMARK  5 active torsions:
REMARK  status: ('A' for Active; 'I' for Inactive)
REMARK    1  A    between atoms: N_15  and  C_6 
REMARK    2  A    between atoms: N_14  and  C_18 
REMARK    3  A    between atoms: C_24  and  N_15 
REMARK    4  A    between atoms: C_18  and  C_19 
REMARK    5  A    between atoms: C_19  and  C_24 
ROOT
ATOM      1  N   UNL d   1     -41.056  14.245  19.871  0.00  0.00    -0.183 N 
ATOM      2  C   UNL d   1     -40.498  14.805  19.633  0.00  0.00     0.169 A 
ATOM      3  C   UNL d   1     -40.221  14.816  18.869  0.00  0.00     0.073 A 
ATOM      4  C   UNL d   1     -40.505  14.264  18.343  0.00  0.00     0.185 A 
ATOM      5  N   UNL d   1     -41.062  13.704  18.580  0.00  0.00    -0.142 NA
ATOM      6  C   UNL d   1     -41.321  14.250  20.639  0.00  0.00     0.218 A 
ATOM      7  N   UNL d   1     -40.221  15.354  20.170  0.00  0.00    -0.226 NA
ATOM      8  C   UNL d   1     -39.669  15.370  18.635  0.00  0.00     0.007 A 
ATOM      9  N   UNL d   1     -40.233  14.262  17.565  0.00  0.00    -0.225 NA
ATOM     10  C   UNL d   1     -41.050  14.791  21.174  0.00  0.00     0.071 A 
ATOM     11  C   UNL d   1     -39.392  15.381  17.870  0.00  0.00     0.019 A 
ATOM     12  C   UNL d   1     -40.492  15.351  20.936  0.00  0.00     0.087 A 
ATOM     13  C   UNL d   1     -39.676  14.822  17.328  0.00  0.00     0.083 A 
ATOM     14  C   UNL d   1     -39.392  15.921  19.174  0.00  0.00     0.000 C 
ATOM     15  C   UNL d   1     -40.206  15.921  21.497  0.00  0.00     0.021 C 
ATOM     16  C   UNL d   1     -39.404  14.827  16.565  0.00  0.00     0.021 C 
ENDROOT
BRANCH   6  17
ATOM     17  N   UNL d   1     -41.897  13.668  20.875  0.00  0.00    -0.380 NA
BRANCH  17  18
ATOM     18  C   UNL d   1     -42.382  13.039  21.152  0.00  0.00     0.164 C 
BRANCH  18  19
ATOM     19  C   UNL d   1     -43.163  13.201  21.418  0.00  0.00     0.054 C 
BRANCH  19  20
ATOM     20  C   UNL d   1     -43.725  12.556  21.502  0.00  0.00     0.083 C 
BRANCH  20  21
ATOM     21  N   UNL d   1     -44.430  12.660  21.956  0.00  0.00    -0.299 N 
ATOM     22  C   UNL d   1     -44.920  13.348  21.822  0.00  0.00     0.107 A 
ATOM     23  C   UNL d   1     -45.631  13.461  22.275  0.00  0.00     0.142 A 
ATOM     24  O   UNL d   1     -45.853  12.885  22.861  0.00  0.00    -0.300 OA
ATOM     25  C   UNL d   1     -45.368  12.206  22.992  0.00  0.00     0.142 A 
ATOM     26  C   UNL d   1     -44.657  12.093  22.540  0.00  0.00     0.107 A 
ENDBRANCH  20  21
ENDBRANCH  19  20
ENDBRANCH  18  19
ENDBRANCH  17  18
ENDBRANCH   6  17
TORSDOF 5
ENDMDL
MODEL 5
REMARK VINA RESULT:      -4.5      7.971      9.895
REMARK  5 active torsions:
REMARK  status: ('A' for Active; 'I' for Inactive)
REMARK    1  A    between atoms: N_15  and  C_6 
REMARK    2  A    between atoms: N_14  and  C_18 
REMARK    3  A    between atoms: C_24  and  N_15 
REMARK    4  A    between atoms: C_18  and  C_19 
REMARK    5  A    between atoms: C_19  and  C_24 
ROOT
ATOM      1  N   UNL d   1     -39.200  14.940  20.079  0.00  0.00    -0.183 N 
ATOM      2  C   UNL d   1     -39.528  14.787  20.820  0.00  0.00     0.169 A 
ATOM      3  C   UNL d   1     -39.138  14.318  21.358  0.00  0.00     0.073 A 
ATOM      4  C   UNL d   1     -38.418  14.002  21.149  0.00  0.00     0.185 A 
ATOM      5  N   UNL d   1     -38.090  14.155  20.408  0.00  0.00    -0.142 NA
ATOM      6  C   UNL d   1     -39.605  15.411  19.555  0.00  0.00     0.218 A 
ATOM      7  N   UNL d   1     -40.252  15.109  21.018  0.00  0.00    -0.226 NA
ATOM      8  C   UNL d   1     -39.463  14.166  22.091  0.00  0.00     0.007 A 
ATOM      9  N   UNL d   1     -38.010  13.524  21.683  0.00  0.00    -0.225 NA
ATOM     10  C   UNL d   1     -40.322  15.732  19.746  0.00  0.00     0.071 A 
ATOM     11  C   UNL d   1     -39.072  13.697  22.629  0.00  0.00     0.019 A 
ATOM     12  C   UNL d   1     -40.650  15.579  20.488  0.00  0.00     0.087 A 
ATOM     13  C   UNL d   1     -38.338  13.371  22.424  0.00  0.00     0.083 A 
ATOM     14  C   UNL d   1     -40.189  14.490  22.288  0.00  0.00     0.000 C 
ATOM     15  C   UNL d   1     -41.402  15.915  20.690  0.00  0.00     0.021 C 
ATOM     16  C   UNL d   1     -37.944  12.904  22.954  0.00  0.00     0.021 C 
ENDROOT
BRANCH   6  17
ATOM     17  N   UNL d   1     -39.259  15.564  18.792  0.00  0.00    -0.380 NA
BRANCH  17  18
ATOM     18  C   UNL d   1     -38.868  15.799  18.085  0.00  0.00     0.164 C 
BRANCH  18  19
ATOM     19  C   UNL d   1     -38.602  15.214  17.543  0.00  0.00     0.054 C 
BRANCH  19  20
ATOM     20  C   UNL d   1     -38.798  15.289  16.710  0.00  0.00     0.083 C 
BRANCH  20  21
ATOM     21  N   UNL d   1     -38.513  14.721  16.151  0.00  0.00    -0.299 N 
ATOM     22  C   UNL d   1     -38.345  14.966  15.349  0.00  0.00     0.107 A 
ATOM     23  C   UNL d   1     -38.059  14.402  14.781  0.00  0.00     0.142 A 
ATOM     24  O   UNL d   1     -37.940  13.593  15.015  0.00  0.00    -0.300 OA
ATOM     25  C   UNL d   1     -38.106  13.352  15.807  0.00  0.00     0.142 A 
ATOM     26  C   UNL d   1     -38.392  13.915  16.375  0.00  0.00     0.107 A 
ENDBRANCH  20  21
ENDBRANCH  19  20
ENDBRANCH  18  19
ENDBRANCH  17  18
ENDBRANCH   6  17
TORSDOF 5
ENDMDL
MODEL 6
REMARK VINA RESULT:      -4.2      2.176      5.850
REMARK  5 active torsions:
REMARK  status: ('A' for Active; 'I' for Inactive)
REMARK    1  A    between atoms: N_15  and  C_6 
REMARK    2  A    between atoms: N_14  and  C_18 
REMARK    3  A    between atoms: C_24  and  N_15 
REMARK    4  A    between atoms: C_18  and  C_19 
REMARK    5  A    between atoms: C_19  and  C_24 
ROOT
ATOM      1  N   UNL d   1     -45.521  12.982  22.560  0.00  0.00    -0.183 N 
ATOM      2  C   UNL d   1     -44.911  12.427  22.555  0.00  0.00     0.169 A 
ATOM      3  C   UNL d   1     -44.207  12.586  22.180  0.00  0.00     0.073 A 
ATOM      4  C   UNL d   1     -44.117  13.305  21.810  0.00  0.00     0.185 A 
ATOM      5  N   UNL d   1     -44.727  13.861  21.815  0.00  0.00    -0.142 NA
ATOM      6  C   UNL d   1     -46.217  12.804  22.939  0.00  0.00     0.218 A 
ATOM      7  N   UNL d   1     -45.013  11.708  22.930  0.00  0.00    -0.226 NA
ATOM      8  C   UNL d   1     -43.603  12.037  22.176  0.00  0.00     0.007 A 
ATOM      9  N   UNL d   1     -43.410  13.483  21.426  0.00  0.00    -0.225 NA
ATOM     10  C   UNL d   1     -46.322  12.095  23.312  0.00  0.00     0.071 A 
ATOM     11  C   UNL d   1     -42.899  12.198  21.801  0.00  0.00     0.019 A 
ATOM     12  C   UNL d   1     -45.712  11.539  23.307  0.00  0.00     0.087 A 
ATOM     13  C   UNL d   1     -42.799  12.927  21.421  0.00  0.00     0.083 A 
ATOM     14  C   UNL d   1     -43.707  11.317  22.553  0.00  0.00     0.000 C 
ATOM     15  C   UNL d   1     -45.821  10.794  23.698  0.00  0.00     0.021 C 
ATOM     16  C   UNL d   1     -42.102  13.094  21.046  0.00  0.00     0.021 C 
ENDROOT
BRANCH   6  17
ATOM     17  N   UNL d   1     -46.842  13.383  22.940  0.00  0.00    -0.380 NA
BRANCH  17  18
ATOM     18  C   UNL d   1     -47.413  13.994  23.030  0.00  0.00     0.164 C 
BRANCH  18  19
ATOM     19  C   UNL d   1     -48.145  13.944  22.619  0.00  0.00     0.054 C 
BRANCH  19  20
ATOM     20  C   UNL d   1     -48.828  14.370  22.918  0.00  0.00     0.083 C 
BRANCH  20  21
ATOM     21  N   UNL d   1     -49.573  14.316  22.520  0.00  0.00    -0.299 N 
ATOM     22  C   UNL d   1     -49.724  13.659  21.995  0.00  0.00     0.107 A 
ATOM     23  C   UNL d   1     -50.469  13.598  21.591  0.00  0.00     0.142 A 
ATOM     24  O   UNL d   1     -51.064  14.194  21.713  0.00  0.00    -0.300 OA
ATOM     25  C   UNL d   1     -50.914  14.843  22.232  0.00  0.00     0.142 A 
ATOM     26  C   UNL d   1     -50.169  14.904  22.636  0.00  0.00     0.107 A 
ENDBRANCH  20  21
ENDBRANCH  19  20
ENDBRANCH  18  19
ENDBRANCH  17  18
ENDBRANCH   6  17
TORSDOF 5
ENDMDL
MODEL 7
REMARK VINA RESULT:      -4.1      8.454     10.413
REMARK  5 active torsions:
REMARK  status: ('A' for Active; 'I' for Inactive)
REMARK    1  A    between atoms: N_15  and  C_6 
REMARK    2  A    between atoms: N_14  and  C_18 
REMARK    3  A    between atoms: C_24  and  N_15 
REMARK    4  A    between atoms: C_18  and  C_19 
REMARK    5  A    between atoms: C_19  and  C_24 
ROOT
ATOM      1  N   UNL d   1     -39.019  14.900  18.825  0.00  0.00    -0.183 N 
ATOM      2  C   UNL d   1     -39.573  14.920  19.435  0.00  0.00     0.169 A 
ATOM      3  C   UNL d   1     -39.398  14.609  20.165  0.00  0.00     0.073 A 
ATOM      4  C   UNL d   1     -38.665  14.276  20.282  0.00  0.00     0.185 A 
ATOM      5  N   UNL d   1     -38.111  14.255  19.671  0.00  0.00    -0.142 NA
ATOM      6  C   UNL d   1     -39.213  15.216  18.102  0.00  0.00     0.218 A 
ATOM      7  N   UNL d   1     -40.307  15.257  19.307  0.00  0.00    -0.226 NA
ATOM      8  C   UNL d   1     -39.946  14.629  20.770  0.00  0.00     0.007 A 
ATOM      9  N   UNL d   1     -38.472  13.956  21.016  0.00  0.00    -0.225 NA
ATOM     10  C   UNL d   1     -39.937  15.551  17.970  0.00  0.00     0.071 A 
ATOM     11  C   UNL d   1     -39.771  14.317  21.500  0.00  0.00     0.019 A 
ATOM     12  C   UNL d   1     -40.491  15.571  18.581  0.00  0.00     0.087 A 
ATOM     13  C   UNL d   1     -39.026  13.976  21.627  0.00  0.00     0.083 A 
ATOM     14  C   UNL d   1     -40.681  14.967  20.639  0.00  0.00     0.000 C 
ATOM     15  C   UNL d   1     -41.252  15.922  18.444  0.00  0.00     0.021 C 
ATOM     16  C   UNL d   1     -38.844  13.664  22.351  0.00  0.00     0.021 C 
ENDROOT
BRANCH   6  17
ATOM     17  N   UNL d   1     -38.635  15.191  17.476  0.00  0.00    -0.380 NA
BRANCH  17  18
ATOM     18  C   UNL d   1     -38.130  15.094  16.811  0.00  0.00     0.164 C 
BRANCH  18  19
ATOM     19  C   UNL d   1     -38.421  14.717  16.118  0.00  0.00     0.054 C 
BRANCH  19  20
ATOM     20  C   UNL d   1     -37.982  14.062  15.776  0.00  0.00     0.083 C 
BRANCH  20  21
ATOM     21  N   UNL d   1     -37.968  13.948  14.938  0.00  0.00    -0.299 N 
ATOM     22  C   UNL d   1     -37.957  14.628  14.421  0.00  0.00     0.107 A 
ATOM     23  C   UNL d   1     -37.943  14.523  13.577  0.00  0.00     0.142 A 
ATOM     24  O   UNL d   1     -37.940  13.737  13.251  0.00  0.00    -0.300 OA
ATOM     25  C   UNL d   1     -37.951  13.066  13.763  0.00  0.00     0.142 A 
ATOM     26  C   UNL d   1     -37.965  13.171  14.607  0.00  0.00     0.107 A 
ENDBRANCH  20  21
ENDBRANCH  19  20
ENDBRANCH  18  19
ENDBRANCH  17  18
ENDBRANCH   6  17
TORSDOF 5
ENDMDL
MODEL 8
REMARK VINA RESULT:      -3.8      1.259      2.508
REMARK  5 active torsions:
REMARK  status: ('A' for Active; 'I' for Inactive)
REMARK    1  A    between atoms: N_15  and  C_6 
REMARK    2  A    between atoms: N_14  and  C_18 
REMARK    3  A    between atoms: C_24  and  N_15 
REMARK    4  A    between atoms: C_18  and  C_19 
REMARK    5  A    between atoms: C_19  and  C_24 
ROOT
ATOM      1  N   UNL d   1     -47.164  13.348  22.848  0.00  0.00    -0.183 N 
ATOM      2  C   UNL d   1     -47.889  13.063  23.118  0.00  0.00     0.169 A 
ATOM      3  C   UNL d   1     -48.550  13.535  23.110  0.00  0.00     0.073 A 
ATOM      4  C   UNL d   1     -48.483  14.296  22.830  0.00  0.00     0.185 A 
ATOM      5  N   UNL d   1     -47.758  14.582  22.560  0.00  0.00    -0.142 NA
ATOM      6  C   UNL d   1     -46.514  12.861  22.863  0.00  0.00     0.218 A 
ATOM      7  N   UNL d   1     -47.945  12.297  23.397  0.00  0.00    -0.226 NA
ATOM      8  C   UNL d   1     -49.268  13.252  23.378  0.00  0.00     0.007 A 
ATOM      9  N   UNL d   1     -49.144  14.788  22.816  0.00  0.00    -0.225 NA
ATOM     10  C   UNL d   1     -46.564  12.103  23.138  0.00  0.00     0.071 A 
ATOM     11  C   UNL d   1     -49.929  13.726  23.370  0.00  0.00     0.019 A 
ATOM     12  C   UNL d   1     -47.289  11.817  23.409  0.00  0.00     0.087 A 
ATOM     13  C   UNL d   1     -49.869  14.502  23.086  0.00  0.00     0.083 A 
ATOM     14  C   UNL d   1     -49.322  12.484  23.658  0.00  0.00     0.000 C 
ATOM     15  C   UNL d   1     -47.344  11.021  23.698  0.00  0.00     0.021 C 
ATOM     16  C   UNL d   1     -50.523  14.978  23.076  0.00  0.00     0.021 C 
ENDROOT
BRANCH   6  17
ATOM     17  N   UNL d   1     -45.769  13.164  22.582  0.00  0.00    -0.380 NA
BRANCH  17  18
ATOM     18  C   UNL d   1     -45.076  13.455  22.205  0.00  0.00     0.164 C 
BRANCH  18  19
ATOM     19  C   UNL d   1     -44.410  12.950  22.110  0.00  0.00     0.054 C 
BRANCH  19  20
ATOM     20  C   UNL d   1     -44.011  12.913  21.351  0.00  0.00     0.083 C 
BRANCH  20  21
ATOM     21  N   UNL d   1     -43.177  13.044  21.299  0.00  0.00    -0.299 N 
ATOM     22  C   UNL d   1     -42.646  12.574  21.776  0.00  0.00     0.107 A 
ATOM     23  C   UNL d   1     -41.806  12.699  21.731  0.00  0.00     0.142 A 
ATOM     24  O   UNL d   1     -41.497  13.295  21.208  0.00  0.00    -0.300 OA
ATOM     25  C   UNL d   1     -42.022  13.759  20.737  0.00  0.00     0.142 A 
ATOM     26  C   UNL d   1     -42.862  13.634  20.783  0.00  0.00     0.107 A 
ENDBRANCH  20  21
ENDBRANCH  19  20
ENDBRANCH  18  19
ENDBRANCH  17  18
ENDBRANCH   6  17
TORSDOF 5
ENDMDL
MODEL 9
REMARK VINA RESULT:      -3.7      1.800      2.907
REMARK  5 active torsions:
REMARK  status: ('A' for Active; 'I' for Inactive)
REMARK    1  A    between atoms: N_15  and  C_6 
REMARK    2  A    between atoms: N_14  and  C_18 
REMARK    3  A    between atoms: C_24  and  N_15 
REMARK    4  A    between atoms: C_18  and  C_19 
REMARK    5  A    between atoms: C_19  and  C_24 
ROOT
ATOM      1  N   UNL d   1     -45.887  12.716  22.475  0.00  0.00    -0.183 N 
ATOM      2  C   UNL d   1     -46.600  13.038  22.738  0.00  0.00     0.169 A 
ATOM      3  C   UNL d   1     -47.208  12.555  22.979  0.00  0.00     0.073 A 
ATOM      4  C   UNL d   1     -47.100  11.749  22.955  0.00  0.00     0.185 A 
ATOM      5  N   UNL d   1     -46.387  11.428  22.693  0.00  0.00    -0.142 NA
ATOM      6  C   UNL d   1     -45.290  13.215  22.239  0.00  0.00     0.218 A 
ATOM      7  N   UNL d   1     -46.697  13.849  22.757  0.00  0.00    -0.226 NA
ATOM      8  C   UNL d   1     -47.914  12.873  23.238  0.00  0.00     0.007 A 
ATOM      9  N   UNL d   1     -47.707  11.247  23.196  0.00  0.00    -0.225 NA
ATOM     10  C   UNL d   1     -45.381  14.017  22.256  0.00  0.00     0.071 A 
ATOM     11  C   UNL d   1     -48.523  12.390  23.479  0.00  0.00     0.019 A 
ATOM     12  C   UNL d   1     -46.094  14.339  22.518  0.00  0.00     0.087 A 
ATOM     13  C   UNL d   1     -48.420  11.568  23.459  0.00  0.00     0.083 A 
ATOM     14  C   UNL d   1     -48.010  13.687  23.257  0.00  0.00     0.000 C 
ATOM     15  C   UNL d   1     -46.193  15.181  22.537  0.00  0.00     0.021 C 
ATOM     16  C   UNL d   1     -49.021  11.082  23.697  0.00  0.00     0.021 C 
ENDROOT
BRANCH   6  17
ATOM     17  N   UNL d   1     -44.557  12.875  21.969  0.00  0.00    -0.380 NA
BRANCH  17  18
ATOM     18  C   UNL d   1     -43.784  12.608  21.770  0.00  0.00     0.164 C 
BRANCH  18  19
ATOM     19  C   UNL d   1     -43.180  13.169  21.605  0.00  0.00     0.054 C 
BRANCH  19  20
ATOM     20  C   UNL d   1     -42.415  12.897  21.325  0.00  0.00     0.083 C 
BRANCH  20  21
ATOM     21  N   UNL d   1     -41.799  13.453  21.156  0.00  0.00    -0.299 N 
ATOM     22  C   UNL d   1     -41.163  13.560  21.716  0.00  0.00     0.107 A 
ATOM     23  C   UNL d   1     -40.540  14.116  21.555  0.00  0.00     0.142 A 
ATOM     24  O   UNL d   1     -40.554  14.565  20.832  0.00  0.00    -0.300 OA
ATOM     25  C   UNL d   1     -41.183  14.458  20.279  0.00  0.00     0.142 A 
ATOM     26  C   UNL d   1     -41.806  13.902  20.440  0.00  0.00     0.107 A 
ENDBRANCH  20  21
ENDBRANCH  19  20
ENDBRANCH  18  19
ENDBRANCH  17  18
ENDBRANCH   6  17
TORSDOF 5
ENDMDL
