MODEL 1
REMARK VINA RESULT:      82.2      0.000      0.000
REMARK  10 active torsions:
REMARK  status: ('A' for Active; 'I' for Inactive)
REMARK    1  A    between atoms: C_11  and  C_1 
REMARK    2  A    between atoms: C_21  and  N_5 
REMARK    3  A    between atoms: N_20  and  C_8 
REMARK    4  A    between atoms: C_9  and  C_11 
REMARK    5  A    between atoms: C_25  and  N_20 
REMARK    6  A    between atoms: C_28  and  C_21 
REMARK    7  A    between atoms: C_22  and  C_25 
REMARK    8  A    between atoms: C_26  and  C_22 
REMARK    9  A    between atoms: O_24  and  C_26 
REMARK   10  A    between atoms: C_27  and  O_24 
ROOT
ATOM      1  C   UNL d   1      60.350  49.073  51.260  0.00  0.00     0.093 A 
ATOM      2  N   UNL d   1      60.321  49.350  52.670  0.00  0.00    -0.258 N 
ATOM      3  N   UNL d   1      59.092  49.336  51.921  0.00  0.00    -0.209 NA
ATOM      4  C   UNL d   1      59.487  49.434  52.641  0.00  0.00     0.152 A 
ATOM      5  C   UNL d   1      60.758  49.171  51.988  0.00  0.00     0.269 A 
ATOM      6  C   UNL d   1      59.517  49.155  51.226  0.00  0.00     0.169 A 
ATOM      7  C   UNL d   1      59.067  49.611  53.323  0.00  0.00     0.035 A 
ATOM      8  C   UNL d   1      60.716  49.448  53.390  0.00  0.00     0.084 A 
ATOM      9  O   UNL d   1      61.569  49.091  52.021  0.00  0.00    -0.266 OA
ATOM     10  C   UNL d   1      60.283  49.627  54.071  0.00  0.00     0.019 A 
ATOM     11  C   UNL d   1      59.462  49.708  54.038  0.00  0.00     0.005 A 
ATOM     12  C   UNL d   1      58.247  49.692  53.290  0.00  0.00     0.003 C 
ENDROOT
BRANCH   1  13
ATOM     13  C   UNL d   1      60.766  48.896  50.577  0.00  0.00     0.019 C 
BRANCH  13  14
ATOM     14  C   UNL d   1      61.000  48.118  50.433  0.00  0.00     0.088 A 
ATOM     15  C   UNL d   1      61.539  47.874  49.857  0.00  0.00     0.272 A 
ATOM     16  N   UNL d   1      61.612  47.052  49.903  0.00  0.00    -0.259 N 
ATOM     17  O   UNL d   1      61.940  48.367  49.323  0.00  0.00    -0.266 OA
ATOM     18  C   UNL d   1      61.112  46.789  50.515  0.00  0.00     0.153 A 
ATOM     19  S   UNL d   1      60.738  47.453  50.835  0.00  0.00    -0.053 SA
ATOM     20  S   UNL d   1      61.011  46.013  50.751  0.00  0.00    -0.052 SA
BRANCH  16  21
ATOM     21  C   UNL d   1      62.090  46.575  49.434  0.00  0.00     0.084 C 
BRANCH  21  22
ATOM     22  C   UNL d   1      61.935  45.761  49.386  0.00  0.00     0.019 C 
ATOM     23  C   UNL d   1      62.482  45.255  49.030  0.00  0.00     0.002 C 
ENDBRANCH  21  22
ENDBRANCH  16  21
ENDBRANCH  13  14
ENDBRANCH   1  13
BRANCH   6  24
ATOM     24  N   UNL d   1      59.122  49.058  50.511  0.00  0.00    -0.225 NA
BRANCH  24  25
ATOM     25  C   UNL d   1      58.818  49.707  50.114  0.00  0.00     0.103 C 
BRANCH  25  26
ATOM     26  C   UNL d   1      58.155  49.627  49.632  0.00  0.00     0.047 C 
BRANCH  26  27
ATOM     27  C   UNL d   1      57.458  49.319  49.939  0.00  0.00     0.124 C 
BRANCH  27  28
ATOM     28  O   UNL d   1      56.743  49.707  49.809  0.00  0.00    -0.303 OA
BRANCH  28  29
ATOM     29  C   UNL d   1      56.041  49.271  49.733  0.00  0.00     0.123 C 
ATOM     30  C   UNL d   1      56.053  48.453  49.835  0.00  0.00     0.029 C 
ENDBRANCH  28  29
ENDBRANCH  27  28
ENDBRANCH  26  27
ENDBRANCH  25  26
ENDBRANCH  24  25
ENDBRANCH   6  24
TORSDOF 10
ENDMDL
