MODEL 1
REMARK VINA RESULT:      12.6      0.000      0.000
REMARK  1 active torsions:
REMARK  status: ('A' for Active; 'I' for Inactive)
REMARK    1  A    between atoms: C_4  and  C_1 
ROOT
ATOM      1  C   UNL d   1      58.465  49.702  50.620  0.00  0.00     0.024 A 
ATOM      2  C   UNL d   1      57.899  49.706  51.220  0.00  0.00     0.002 A 
ATOM      3  C   UNL d   1      58.236  49.699  49.831  0.00  0.00     0.002 A 
ATOM      4  C   UNL d   1      57.104  49.708  51.031  0.00  0.00     0.000 A 
ATOM      5  C   UNL d   1      57.433  49.701  49.636  0.00  0.00     0.000 A 
ATOM      6  C   UNL d   1      56.871  49.705  50.240  0.00  0.00     0.000 A 
ATOM      7  C   UNL d   1      56.062  49.707  50.051  0.00  0.00     0.000 C 
ENDROOT
BRANCH   1   8
ATOM      8  C   UNL d   1      59.268  49.700  50.815  0.00  0.00     0.111 A 
ATOM      9  N   UNL d   1      59.501  49.694  51.606  0.00  0.00    -0.237 NA
ATOM     10  C   UNL d   1      60.873  49.696  51.203  0.00  0.00     0.106 A 
ATOM     11  C   UNL d   1      60.640  49.702  50.411  0.00  0.00     0.058 A 
ATOM     12  S   UNL d   1      59.837  49.703  50.217  0.00  0.00    -0.066 SA
ENDBRANCH   1   8
TORSDOF 1
ENDMDL
