MODEL 1
REMARK VINA RESULT:      -0.4      0.000      0.000
REMARK  4 active torsions:
REMARK  status: ('A' for Active; 'I' for Inactive)
REMARK    1  A    between atoms: N_4  and  C_1 
REMARK    2  A    between atoms: N_9  and  N_4 
REMARK    3  A    between atoms: C_8  and  C_7 
REMARK    4  A    between atoms: C_10  and  N_9 
ROOT
ATOM      1  N   UNL d   1     -42.162-121.978 -50.700  0.00  0.00    -0.146 NA
ENDROOT
BRANCH   1   2
ATOM      2  C   UNL d   1     -42.533-122.338 -50.056  0.00  0.00     0.122 A 
ATOM      3  C   UNL d   1     -43.344-122.331 -49.865  0.00  0.00     0.101 A 
ATOM      4  N   UNL d   1     -43.472-122.746 -49.195  0.00  0.00    -0.244 NA
ATOM      5  C   UNL d   1     -43.917-121.968 -50.280  0.00  0.00     0.022 C 
ATOM      6  C   UNL d   1     -42.764-123.032 -48.932  0.00  0.00     0.083 A 
ATOM      7  C   UNL d   1     -42.155-122.779 -49.471  0.00  0.00     0.039 A 
ATOM      8  C   UNL d   1     -42.538-123.484 -48.293  0.00  0.00     0.019 A 
ATOM      9  C   UNL d   1     -41.352-122.996 -49.339  0.00  0.00     0.003 A 
ATOM     10  C   UNL d   1     -41.155-123.461 -48.672  0.00  0.00     0.000 A 
ATOM     11  C   UNL d   1     -41.762-123.693 -48.165  0.00  0.00     0.002 A 
ENDBRANCH   1   2
BRANCH   1  12
ATOM     12  N   UNL d   1     -42.006-122.420 -51.391  0.00  0.00    -0.148 NA
BRANCH  12  13
ATOM     13  C   UNL d   1     -41.706-122.073 -52.093  0.00  0.00     0.109 A 
ATOM     14  C   UNL d   1     -41.522-122.526 -52.741  0.00  0.00     0.084 A 
ATOM     15  C   UNL d   1     -41.228-122.170 -53.426  0.00  0.00     0.008 A 
ATOM     16  C   UNL d   1     -41.124-121.325 -53.437  0.00  0.00     0.000 A 
ATOM     17  C   UNL d   1     -41.321-120.875 -52.754  0.00  0.00     0.002 A 
ATOM     18  C   UNL d   1     -41.613-121.278 -52.090  0.00  0.00     0.021 A 
BRANCH  14  19
ATOM     19  C   UNL d   1     -41.627-123.336 -52.716  0.00  0.00     0.212 C 
ATOM     20  O   UNL d   1     -41.124-123.817 -52.285  0.00  0.00    -0.644 OA
ATOM     21  O   UNL d   1     -42.245-123.707 -53.125  0.00  0.00    -0.644 OA
ENDBRANCH  14  19
ENDBRANCH  12  13
ENDBRANCH   1  12
TORSDOF 4
ENDMDL
MODEL 2
REMARK VINA RESULT:       1.7      1.298      2.011
REMARK  4 active torsions:
REMARK  status: ('A' for Active; 'I' for Inactive)
REMARK    1  A    between atoms: N_4  and  C_1 
REMARK    2  A    between atoms: N_9  and  N_4 
REMARK    3  A    between atoms: C_8  and  C_7 
REMARK    4  A    between atoms: C_10  and  N_9 
ROOT
ATOM      1  N   UNL d   1     -42.292-122.315 -52.161  0.00  0.00    -0.146 NA
ENDROOT
BRANCH   1   2
ATOM      2  C   UNL d   1     -42.183-122.759 -51.474  0.00  0.00     0.122 A 
ATOM      3  C   UNL d   1     -41.642-123.380 -51.348  0.00  0.00     0.101 A 
ATOM      4  N   UNL d   1     -41.716-123.663 -50.605  0.00  0.00    -0.244 NA
ATOM      5  C   UNL d   1     -41.123-123.660 -51.881  0.00  0.00     0.022 C 
ATOM      6  C   UNL d   1     -42.295-123.245 -50.228  0.00  0.00     0.083 A 
ATOM      7  C   UNL d   1     -42.603-122.664 -50.770  0.00  0.00     0.039 A 
ATOM      8  C   UNL d   1     -42.618-123.272 -49.481  0.00  0.00     0.019 A 
ATOM      9  C   UNL d   1     -43.219-122.143 -50.531  0.00  0.00     0.003 A 
ATOM     10  C   UNL d   1     -43.528-122.198 -49.755  0.00  0.00     0.000 A 
ATOM     11  C   UNL d   1     -43.213-122.767 -49.249  0.00  0.00     0.002 A 
ENDBRANCH   1   2
BRANCH   1  12
ATOM     12  N   UNL d   1     -42.048-122.620 -52.898  0.00  0.00    -0.148 NA
BRANCH  12  13
ATOM     13  C   UNL d   1     -42.085-122.176 -53.608  0.00  0.00     0.109 A 
ATOM     14  C   UNL d   1     -42.101-122.540 -54.332  0.00  0.00     0.084 A 
ATOM     15  C   UNL d   1     -42.136-122.088 -55.023  0.00  0.00     0.008 A 
ATOM     16  C   UNL d   1     -42.156-121.240 -54.958  0.00  0.00     0.000 A 
ATOM     17  C   UNL d   1     -42.139-120.882 -54.196  0.00  0.00     0.002 A 
ATOM     18  C   UNL d   1     -42.103-121.378 -53.532  0.00  0.00     0.021 A 
BRANCH  14  19
ATOM     19  C   UNL d   1     -42.081-123.355 -54.380  0.00  0.00     0.212 C 
ATOM     20  O   UNL d   1     -42.720-123.810 -54.145  0.00  0.00    -0.644 OA
ATOM     21  O   UNL d   1     -41.417-123.759 -54.667  0.00  0.00    -0.644 OA
ENDBRANCH  14  19
ENDBRANCH  12  13
ENDBRANCH   1  12
TORSDOF 4
ENDMDL
