MODEL 1
REMARK VINA RESULT:      -3.3      0.000      0.000
REMARK  4 active torsions:
REMARK  status: ('A' for Active; 'I' for Inactive)
REMARK    1  A    between atoms: S_9  and  C_1 
REMARK       I    between atoms: N_4  and  C_5 
REMARK    2  A    between atoms: C_5  and  C_13 
REMARK    3  A    between atoms: C_8  and  C_10 
REMARK    4  A    between atoms: C_13  and  S_9 
ROOT
ATOM      1  N   UNL d   1      32.712  18.466 -22.926  0.00  0.00    -0.272 N 
ATOM      2  C   UNL d   1      32.950  18.938 -22.344  0.00  0.00     0.271 C 
ATOM      3  C   UNL d   1      32.211  17.517 -24.144  0.00  0.00     0.062 A 
ATOM      4  C   UNL d   1      32.411  18.773 -23.595  0.00  0.00     0.083 A 
ATOM      5  C   UNL d   1      32.748  17.632 -22.901  0.00  0.00     0.083 A 
ATOM      6  O   UNL d   1      33.241  18.631 -21.696  0.00  0.00    -0.266 OA
ATOM      7  C   UNL d   1      32.158  18.325 -24.209  0.00  0.00     0.024 A 
ATOM      8  C   UNL d   1      32.507  17.143 -23.490  0.00  0.00     0.024 A 
ENDROOT
BRANCH   2   9
ATOM      9  C   UNL d   1      32.904  19.757 -22.393  0.00  0.00     0.098 C 
BRANCH   9  10
ATOM     10  S   UNL d   1      33.156  20.195 -21.716  0.00  0.00    -0.056 SA
BRANCH  10  11
ATOM     11  C   UNL d   1      32.957  20.982 -21.676  0.00  0.00     0.141 A 
ATOM     12  N   UNL d   1      33.100  21.528 -22.254  0.00  0.00    -0.232 NA
ATOM     13  C   UNL d   1      32.775  22.246 -21.908  0.00  0.00     0.088 A 
ATOM     14  C   UNL d   1      32.772  23.042 -22.295  0.00  0.00     0.020 A 
ATOM     15  C   UNL d   1      32.461  22.103 -21.158  0.00  0.00     0.049 A 
ATOM     16  C   UNL d   1      32.433  23.675 -21.874  0.00  0.00     0.002 A 
ATOM     17  C   UNL d   1      32.096  23.538 -21.078  0.00  0.00     0.001 A 
ATOM     18  C   UNL d   1      32.120  22.772 -20.752  0.00  0.00     0.008 A 
ATOM     19  S   UNL d   1      32.574  21.326 -21.018  0.00  0.00    -0.060 SA
ENDBRANCH  10  11
ENDBRANCH   9  10
ENDBRANCH   2   9
BRANCH   3  20
ATOM     20  C   UNL d   1      31.938  17.034 -24.806  0.00  0.00     0.297 C 
ATOM     21  O   UNL d   1      32.449  16.484 -25.094  0.00  0.00    -0.264 OA
ATOM     22  N   UNL d   1      31.200  17.171 -25.080  0.00  0.00    -0.102 N 
ENDBRANCH   3  20
TORSDOF 4
ENDMDL
MODEL 2
REMARK VINA RESULT:      -3.0      1.768      5.362
REMARK  4 active torsions:
REMARK  status: ('A' for Active; 'I' for Inactive)
REMARK    1  A    between atoms: S_9  and  C_1 
REMARK       I    between atoms: N_4  and  C_5 
REMARK    2  A    between atoms: C_5  and  C_13 
REMARK    3  A    between atoms: C_8  and  C_10 
REMARK    4  A    between atoms: C_13  and  S_9 
ROOT
ATOM      1  N   UNL d   1      33.071  20.680 -22.292  0.00  0.00    -0.272 N 
ATOM      2  C   UNL d   1      33.103  20.209 -22.920  0.00  0.00     0.271 C 
ATOM      3  C   UNL d   1      32.998  21.629 -20.977  0.00  0.00     0.062 A 
ATOM      4  C   UNL d   1      32.930  20.379 -21.570  0.00  0.00     0.083 A 
ATOM      5  C   UNL d   1      33.176  21.508 -22.319  0.00  0.00     0.083 A 
ATOM      6  O   UNL d   1      33.240  20.510 -23.620  0.00  0.00    -0.266 OA
ATOM      7  C   UNL d   1      32.890  20.827 -20.907  0.00  0.00     0.024 A 
ATOM      8  C   UNL d   1      33.144  21.996 -21.683  0.00  0.00     0.024 A 
ENDROOT
BRANCH   2   9
ATOM      9  C   UNL d   1      32.996  19.395 -22.867  0.00  0.00     0.098 C 
BRANCH   9  10
ATOM     10  S   UNL d   1      32.955  18.967 -23.595  0.00  0.00    -0.056 SA
BRANCH  10  11
ATOM     11  C   UNL d   1      32.779  18.175 -23.561  0.00  0.00     0.141 A 
ATOM     12  N   UNL d   1      33.236  17.611 -23.208  0.00  0.00    -0.232 NA
ATOM     13  C   UNL d   1      32.780  16.896 -23.346  0.00  0.00     0.088 A 
ATOM     14  C   UNL d   1      33.011  16.084 -23.079  0.00  0.00     0.020 A 
ATOM     15  C   UNL d   1      32.087  17.056 -23.765  0.00  0.00     0.049 A 
ATOM     16  C   UNL d   1      32.497  15.455 -23.264  0.00  0.00     0.002 A 
ATOM     17  C   UNL d   1      31.760  15.611 -23.708  0.00  0.00     0.001 A 
ATOM     18  C   UNL d   1      31.582  16.391 -23.939  0.00  0.00     0.008 A 
ATOM     19  S   UNL d   1      32.089  17.843 -23.896  0.00  0.00    -0.060 SA
ENDBRANCH  10  11
ENDBRANCH   9  10
ENDBRANCH   2   9
BRANCH   3  20
ATOM     20  C   UNL d   1      32.955  22.112 -20.263  0.00  0.00     0.297 C 
ATOM     21  O   UNL d   1      32.631  22.844 -20.334  0.00  0.00    -0.264 OA
ATOM     22  N   UNL d   1      33.239  21.793 -19.586  0.00  0.00    -0.102 N 
ENDBRANCH   3  20
TORSDOF 4
ENDMDL
MODEL 3
REMARK VINA RESULT:      -2.7      1.389      1.836
REMARK  4 active torsions:
REMARK  status: ('A' for Active; 'I' for Inactive)
REMARK    1  A    between atoms: S_9  and  C_1 
REMARK       I    between atoms: N_4  and  C_5 
REMARK    2  A    between atoms: C_5  and  C_13 
REMARK    3  A    between atoms: C_8  and  C_10 
REMARK    4  A    between atoms: C_13  and  S_9 
ROOT
ATOM      1  N   UNL d   1      31.935  17.522 -23.841  0.00  0.00    -0.272 N 
ATOM      2  C   UNL d   1      32.593  17.855 -23.569  0.00  0.00     0.271 C 
ATOM      3  C   UNL d   1      30.561  16.862 -24.400  0.00  0.00     0.062 A 
ATOM      4  C   UNL d   1      31.266  17.947 -23.905  0.00  0.00     0.083 A 
ATOM      5  C   UNL d   1      31.875  16.725 -24.081  0.00  0.00     0.083 A 
ATOM      6  O   UNL d   1      33.240  17.434 -23.510  0.00  0.00    -0.266 OA
ATOM      7  C   UNL d   1      30.577  17.644 -24.178  0.00  0.00     0.024 A 
ATOM      8  C   UNL d   1      31.207  16.377 -24.359  0.00  0.00     0.024 A 
ENDROOT
BRANCH   2   9
ATOM      9  C   UNL d   1      32.627  18.644 -23.340  0.00  0.00     0.098 C 
BRANCH   9  10
ATOM     10  S   UNL d   1      33.221  18.853 -22.777  0.00  0.00    -0.056 SA
BRANCH  10  11
ATOM     11  C   UNL d   1      33.223  19.613 -22.490  0.00  0.00     0.141 A 
ATOM     12  N   UNL d   1      33.232  20.282 -22.943  0.00  0.00    -0.232 NA
ATOM     13  C   UNL d   1      33.230  20.903 -22.348  0.00  0.00     0.088 A 
ATOM     14  C   UNL d   1      33.237  21.772 -22.517  0.00  0.00     0.020 A 
ATOM     15  C   UNL d   1      33.220  20.589 -21.585  0.00  0.00     0.049 A 
ATOM     16  C   UNL d   1      33.233  22.292 -21.867  0.00  0.00     0.002 A 
ATOM     17  C   UNL d   1      33.223  21.973 -21.053  0.00  0.00     0.001 A 
ATOM     18  C   UNL d   1      33.217  21.148 -20.940  0.00  0.00     0.008 A 
ATOM     19  S   UNL d   1      33.216  19.796 -21.675  0.00  0.00    -0.060 SA
ENDBRANCH  10  11
ENDBRANCH   9  10
ENDBRANCH   2   9
BRANCH   3  20
ATOM     20  C   UNL d   1      29.818  16.535 -24.694  0.00  0.00     0.297 C 
ATOM     21  O   UNL d   1      29.148  16.950 -24.539  0.00  0.00    -0.264 OA
ATOM     22  N   UNL d   1      29.855  15.845 -25.097  0.00  0.00    -0.102 N 
ENDBRANCH   3  20
TORSDOF 4
ENDMDL
MODEL 4
REMARK VINA RESULT:      -2.2      1.908      5.440
REMARK  4 active torsions:
REMARK  status: ('A' for Active; 'I' for Inactive)
REMARK    1  A    between atoms: S_9  and  C_1 
REMARK       I    between atoms: N_4  and  C_5 
REMARK    2  A    between atoms: C_5  and  C_13 
REMARK    3  A    between atoms: C_8  and  C_10 
REMARK    4  A    between atoms: C_13  and  S_9 
ROOT
ATOM      1  N   UNL d   1      33.044  21.891 -21.619  0.00  0.00    -0.272 N 
ATOM      2  C   UNL d   1      33.097  21.515 -22.307  0.00  0.00     0.271 C 
ATOM      3  C   UNL d   1      32.935  22.639 -20.182  0.00  0.00     0.062 A 
ATOM      4  C   UNL d   1      33.015  21.480 -20.938  0.00  0.00     0.083 A 
ATOM      5  C   UNL d   1      33.015  22.721 -21.536  0.00  0.00     0.083 A 
ATOM      6  O   UNL d   1      33.125  21.922 -22.965  0.00  0.00    -0.266 OA
ATOM      7  C   UNL d   1      32.961  21.827 -20.218  0.00  0.00     0.024 A 
ATOM      8  C   UNL d   1      32.961  23.112 -20.837  0.00  0.00     0.024 A 
ENDROOT
BRANCH   2   9
ATOM      9  C   UNL d   1      33.124  20.695 -22.362  0.00  0.00     0.098 C 
BRANCH   9  10
ATOM     10  S   UNL d   1      33.201  20.366 -23.136  0.00  0.00    -0.056 SA
BRANCH  10  11
ATOM     11  C   UNL d   1      33.109  19.563 -23.220  0.00  0.00     0.141 A 
ATOM     12  N   UNL d   1      32.914  19.053 -22.626  0.00  0.00    -0.232 NA
ATOM     13  C   UNL d   1      32.898  18.297 -23.036  0.00  0.00     0.088 A 
ATOM     14  C   UNL d   1      32.712  17.517 -22.659  0.00  0.00     0.020 A 
ATOM     15  C   UNL d   1      33.079  18.384 -23.836  0.00  0.00     0.049 A 
ATOM     16  C   UNL d   1      32.723  16.841 -23.146  0.00  0.00     0.002 A 
ATOM     17  C   UNL d   1      32.913  16.919 -23.996  0.00  0.00     0.001 A 
ATOM     18  C   UNL d   1      33.082  17.673 -24.308  0.00  0.00     0.008 A 
ATOM     19  S   UNL d   1      33.209  19.163 -23.947  0.00  0.00    -0.060 SA
ENDBRANCH  10  11
ENDBRANCH   9  10
ENDBRANCH   2   9
BRANCH   3  20
ATOM     20  C   UNL d   1      32.877  23.012 -19.406  0.00  0.00     0.297 C 
ATOM     21  O   UNL d   1      32.467  23.702 -19.361  0.00  0.00    -0.264 OA
ATOM     22  N   UNL d   1      33.236  22.644 -18.793  0.00  0.00    -0.102 N 
ENDBRANCH   3  20
TORSDOF 4
ENDMDL
MODEL 5
REMARK VINA RESULT:      -1.8      2.943      6.095
REMARK  4 active torsions:
REMARK  status: ('A' for Active; 'I' for Inactive)
REMARK    1  A    between atoms: S_9  and  C_1 
REMARK       I    between atoms: N_4  and  C_5 
REMARK    2  A    between atoms: C_5  and  C_13 
REMARK    3  A    between atoms: C_8  and  C_10 
REMARK    4  A    between atoms: C_13  and  S_9 
ROOT
ATOM      1  N   UNL d   1      32.906  22.993 -19.140  0.00  0.00    -0.272 N 
ATOM      2  C   UNL d   1      32.932  22.993 -19.925  0.00  0.00     0.271 C 
ATOM      3  C   UNL d   1      32.864  22.962 -17.517  0.00  0.00     0.062 A 
ATOM      4  C   UNL d   1      33.174  22.367 -18.729  0.00  0.00     0.083 A 
ATOM      5  C   UNL d   1      32.606  23.620 -18.678  0.00  0.00     0.083 A 
ATOM      6  O   UNL d   1      32.668  23.606 -20.318  0.00  0.00    -0.266 OA
ATOM      7  C   UNL d   1      33.164  22.330 -17.929  0.00  0.00     0.024 A 
ATOM      8  C   UNL d   1      32.576  23.628 -17.876  0.00  0.00     0.024 A 
ENDROOT
BRANCH   2   9
ATOM      9  C   UNL d   1      33.232  22.361 -20.358  0.00  0.00     0.098 C 
BRANCH   9  10
ATOM     10  S   UNL d   1      32.933  22.258 -21.141  0.00  0.00    -0.056 SA
BRANCH  10  11
ATOM     11  C   UNL d   1      32.994  21.522 -21.478  0.00  0.00     0.141 A 
ATOM     12  N   UNL d   1      32.976  20.822 -21.076  0.00  0.00    -0.232 NA
ATOM     13  C   UNL d   1      33.063  20.247 -21.709  0.00  0.00     0.088 A 
ATOM     14  C   UNL d   1      33.082  19.368 -21.600  0.00  0.00     0.020 A 
ATOM     15  C   UNL d   1      33.128  20.615 -22.444  0.00  0.00     0.049 A 
ATOM     16  C   UNL d   1      33.170  18.897 -22.281  0.00  0.00     0.002 A 
ATOM     17  C   UNL d   1      33.241  19.274 -23.067  0.00  0.00     0.001 A 
ATOM     18  C   UNL d   1      33.218  20.105 -23.122  0.00  0.00     0.008 A 
ATOM     19  S   UNL d   1      33.086  21.399 -22.300  0.00  0.00    -0.060 SA
ENDBRANCH  10  11
ENDBRANCH   9  10
ENDBRANCH   2   9
BRANCH   3  20
ATOM     20  C   UNL d   1      32.853  22.922 -16.655  0.00  0.00     0.297 C 
ATOM     21  O   UNL d   1      32.461  22.305 -16.321  0.00  0.00    -0.264 OA
ATOM     22  N   UNL d   1      33.234  23.502 -16.255  0.00  0.00    -0.102 N 
ENDBRANCH   3  20
TORSDOF 4
ENDMDL
MODEL 6
REMARK VINA RESULT:      -1.6      2.549      3.788
REMARK  4 active torsions:
REMARK  status: ('A' for Active; 'I' for Inactive)
REMARK    1  A    between atoms: S_9  and  C_1 
REMARK       I    between atoms: N_4  and  C_5 
REMARK    2  A    between atoms: C_5  and  C_13 
REMARK    3  A    between atoms: C_8  and  C_10 
REMARK    4  A    between atoms: C_13  and  S_9 
ROOT
ATOM      1  N   UNL d   1      30.680  16.145 -23.578  0.00  0.00    -0.272 N 
ATOM      2  C   UNL d   1      31.458  16.246 -23.529  0.00  0.00     0.271 C 
ATOM      3  C   UNL d   1      29.072  15.961 -23.700  0.00  0.00     0.062 A 
ATOM      4  C   UNL d   1      30.246  16.598 -24.066  0.00  0.00     0.083 A 
ATOM      5  C   UNL d   1      30.250  15.578 -23.142  0.00  0.00     0.083 A 
ATOM      6  O   UNL d   1      31.873  15.801 -23.051  0.00  0.00    -0.266 OA
ATOM      7  C   UNL d   1      29.452  16.525 -24.143  0.00  0.00     0.024 A 
ATOM      8  C   UNL d   1      29.456  15.469 -23.186  0.00  0.00     0.024 A 
ENDROOT
BRANCH   2   9
ATOM      9  C   UNL d   1      31.859  16.813 -23.970  0.00  0.00     0.098 C 
BRANCH   9  10
ATOM     10  S   UNL d   1      32.509  17.199 -23.594  0.00  0.00    -0.056 SA
BRANCH  10  11
ATOM     11  C   UNL d   1      32.670  17.967 -23.807  0.00  0.00     0.141 A 
ATOM     12  N   UNL d   1      32.720  18.239 -24.565  0.00  0.00    -0.232 NA
ATOM     13  C   UNL d   1      32.899  19.072 -24.447  0.00  0.00     0.088 A 
ATOM     14  C   UNL d   1      33.018  19.665 -25.093  0.00  0.00     0.020 A 
ATOM     15  C   UNL d   1      32.946  19.259 -23.644  0.00  0.00     0.049 A 
ATOM     16  C   UNL d   1      33.187  20.450 -24.871  0.00  0.00     0.002 A 
ATOM     17  C   UNL d   1      33.241  20.661 -24.025  0.00  0.00     0.001 A 
ATOM     18  C   UNL d   1      33.121  20.071 -23.449  0.00  0.00     0.008 A 
ATOM     19  S   UNL d   1      32.806  18.578 -23.253  0.00  0.00    -0.060 SA
ENDBRANCH  10  11
ENDBRANCH   9  10
ENDBRANCH   2   9
BRANCH   3  20
ATOM     20  C   UNL d   1      28.216  15.882 -23.783  0.00  0.00     0.297 C 
ATOM     21  O   UNL d   1      27.759  16.246 -23.231  0.00  0.00    -0.264 OA
ATOM     22  N   UNL d   1      27.945  15.454 -24.403  0.00  0.00    -0.102 N 
ENDBRANCH   3  20
TORSDOF 4
ENDMDL
