MODEL 1
REMARK VINA RESULT:      40.9      0.000      0.000
REMARK  3 active torsions:
REMARK  status: ('A' for Active; 'I' for Inactive)
REMARK    1  A    between atoms: C_2  and  N_1 
REMARK    2  A    between atoms: N_8  and  C_3 
REMARK       I    between atoms: C_9  and  N_8 
REMARK    3  A    between atoms: C_10  and  C_9 
ROOT
ATOM      1  N   UNL d   1     -56.224 -99.138 -44.790  0.00  0.00    -0.189 N 
ATOM      2  C   UNL d   1     -55.599 -99.594 -44.497  0.00  0.00     0.171 A 
ATOM      3  N   UNL d   1     -55.974 -98.769 -45.479  0.00  0.00    -0.162 NA
ATOM      4  C   UNL d   1     -54.970 -99.494 -45.021  0.00  0.00     0.060 A 
ATOM      5  C   UNL d   1     -55.191 -98.996 -45.617  0.00  0.00     0.105 A 
ATOM      6  C   UNL d   1     -54.713 -98.756 -46.253  0.00  0.00     0.023 C 
ENDROOT
BRANCH   1   7
ATOM      7  C   UNL d   1     -56.985 -99.047 -44.466  0.00  0.00     0.197 A 
ATOM      8  N   UNL d   1     -57.661 -98.997 -44.936  0.00  0.00    -0.221 NA
ATOM      9  C   UNL d   1     -58.314 -98.910 -44.423  0.00  0.00     0.090 A 
ATOM     10  C   UNL d   1     -59.110 -98.834 -44.550  0.00  0.00     0.020 A 
ATOM     11  C   UNL d   1     -58.012 -98.910 -43.654  0.00  0.00     0.050 A 
ATOM     12  C   UNL d   1     -59.634 -98.755 -43.918  0.00  0.00     0.002 A 
ATOM     13  C   UNL d   1     -59.335 -98.756 -43.163  0.00  0.00     0.001 A 
ATOM     14  C   UNL d   1     -58.527 -98.833 -43.022  0.00  0.00     0.008 A 
ATOM     15  S   UNL d   1     -57.197 -98.995 -43.693  0.00  0.00    -0.047 SA
ENDBRANCH   1   7
BRANCH   2  16
ATOM     16  N   UNL d   1     -55.603-100.060 -43.813  0.00  0.00    -0.189 NA
ATOM     17  C   UNL d   1     -55.231-100.785 -43.824  0.00  0.00     0.281 C 
ATOM     18  O   UNL d   1     -54.857-101.046 -44.510  0.00  0.00    -0.265 OA
BRANCH  17  19
ATOM     19  C   UNL d   1     -55.232-101.254 -43.144  0.00  0.00     0.058 A 
ATOM     20  C   UNL d   1     -55.230-101.731 -42.457  0.00  0.00     0.005 A 
ATOM     21  C   UNL d   1     -54.779-101.944 -43.116  0.00  0.00     0.005 A 
ENDBRANCH  17  19
ENDBRANCH   2  16
TORSDOF 3
ENDMDL
