MODEL 1
REMARK VINA RESULT:      59.0      0.000      0.000
REMARK  5 active torsions:
REMARK  status: ('A' for Active; 'I' for Inactive)
REMARK    1  A    between atoms: C_12  and  N_1 
REMARK    2  A    between atoms: N_7  and  C_5 
REMARK    3  A    between atoms: C_10  and  N_7 
REMARK    4  A    between atoms: O_14  and  C_13 
REMARK    5  A    between atoms: C_19  and  O_14 
ROOT
ATOM      1  N   UNL d   1     -54.741-100.942 -40.647  0.00  0.00    -0.212 N 
ATOM      2  C   UNL d   1     -54.732-101.373 -41.351  0.00  0.00     0.170 A 
ATOM      3  C   UNL d   1     -54.728-100.837 -41.978  0.00  0.00     0.093 A 
ATOM      4  N   UNL d   1     -54.743-100.135 -40.840  0.00  0.00    -0.162 NA
ATOM      5  C   UNL d   1     -54.719-101.111 -42.761  0.00  0.00     0.169 A 
ATOM      6  C   UNL d   1     -54.735-100.076 -41.665  0.00  0.00     0.127 A 
ATOM      7  N   UNL d   1     -54.726-102.191 -41.497  0.00  0.00    -0.205 NA
ATOM      8  N   UNL d   1     -54.713-101.928 -42.906  0.00  0.00    -0.205 NA
ATOM      9  C   UNL d   1     -54.717-102.459 -42.275  0.00  0.00     0.202 A 
ENDROOT
BRANCH   5  10
ATOM     10  N   UNL d   1     -54.715-100.586 -43.386  0.00  0.00    -0.225 NA
BRANCH  10  11
ATOM     11  C   UNL d   1     -54.848-100.852 -44.146  0.00  0.00     0.106 A 
ATOM     12  C   UNL d   1     -54.974-100.316 -44.766  0.00  0.00     0.118 A 
ATOM     13  C   UNL d   1     -55.107-100.579 -45.525  0.00  0.00     0.026 A 
ATOM     14  C   UNL d   1     -55.116-101.402 -45.679  0.00  0.00     0.002 A 
ATOM     15  C   UNL d   1     -54.994-101.931 -45.080  0.00  0.00     0.002 A 
ATOM     16  C   UNL d   1     -54.859-101.661 -44.306  0.00  0.00     0.021 A 
BRANCH  12  17
ATOM     17  O   UNL d   1     -54.963 -99.506 -44.606  0.00  0.00    -0.304 OA
BRANCH  17  18
ATOM     18  C   UNL d   1     -55.665 -99.117 -44.396  0.00  0.00     0.123 C 
ATOM     19  C   UNL d   1     -56.156 -98.815 -44.983  0.00  0.00     0.029 C 
ENDBRANCH  17  18
ENDBRANCH  12  17
ENDBRANCH  10  11
ENDBRANCH   5  10
BRANCH   1  20
ATOM     20  C   UNL d   1     -54.748-101.258 -39.883  0.00  0.00     0.085 A 
ATOM     21  C   UNL d   1     -54.789-100.751 -39.229  0.00  0.00     0.019 A 
ATOM     22  C   UNL d   1     -54.796-101.063 -38.468  0.00  0.00     0.002 A 
ATOM     23  C   UNL d   1     -54.760-101.887 -38.356  0.00  0.00     0.000 A 
ATOM     24  C   UNL d   1     -54.719-102.388 -39.004  0.00  0.00     0.002 A 
ATOM     25  C   UNL d   1     -54.712-102.082 -39.770  0.00  0.00     0.019 A 
ENDBRANCH   1  20
TORSDOF 5
ENDMDL
