MODEL 1
REMARK VINA RESULT:      -2.7      0.000      0.000
REMARK  4 active torsions:
REMARK  status: ('A' for Active; 'I' for Inactive)
REMARK    1  A    between atoms: C_2  and  C_1 
REMARK       I    between atoms: N_3  and  C_1 
REMARK    2  A    between atoms: C_14  and  N_3 
REMARK    3  A    between atoms: C_6  and  S_7 
REMARK    4  A    between atoms: S_7  and  C_15 
ROOT
ATOM      1  C   UNL d   1      60.053   0.140  28.957  0.00  0.00     0.279 C 
ATOM      2  N   UNL d   1      59.755   0.681  29.501  0.00  0.00    -0.208 NA
ATOM      3  O   UNL d   1      60.690   0.351  28.467  0.00  0.00    -0.265 OA
ENDROOT
BRANCH   1   4
ATOM      4  C   UNL d   1      59.721  -0.615  28.897  0.00  0.00     0.059 A 
ATOM      5  C   UNL d   1      60.120  -1.268  29.221  0.00  0.00     0.025 A 
ATOM      6  C   UNL d   1      59.781  -2.025  29.157  0.00  0.00     0.099 A 
ATOM      7  N   UNL d   1      60.183  -2.677  29.483  0.00  0.00    -0.241 NA
ATOM      8  C   UNL d   1      59.059  -2.130  28.777  0.00  0.00     0.099 A 
ATOM      9  C   UNL d   1      59.848  -3.433  29.420  0.00  0.00     0.120 A 
ATOM     10  C   UNL d   1      59.114  -3.535  29.034  0.00  0.00     0.120 A 
ATOM     11  N   UNL d   1      58.727  -2.881  28.715  0.00  0.00    -0.241 NA
ATOM     12  C   UNL d   1      58.664  -1.480  28.455  0.00  0.00     0.021 A 
ATOM     13  C   UNL d   1      58.992  -0.721  28.513  0.00  0.00     0.006 A 
ENDBRANCH   1   4
BRANCH   2  14
ATOM     14  C   UNL d   1      59.123   0.470  29.986  0.00  0.00     0.085 A 
ATOM     15  C   UNL d   1      59.270   0.170  30.739  0.00  0.00     0.020 A 
ATOM     16  C   UNL d   1      58.642  -0.042  31.225  0.00  0.00     0.008 A 
ATOM     17  C   UNL d   1      57.867   0.046  30.957  0.00  0.00     0.034 A 
ATOM     18  C   UNL d   1      57.727   0.347  30.204  0.00  0.00     0.008 A 
ATOM     19  C   UNL d   1      58.355   0.558  29.719  0.00  0.00     0.020 A 
BRANCH  17  20
ATOM     20  S   UNL d   1      57.239  -0.165  31.443  0.00  0.00    -0.028 SA
BRANCH  20  21
ATOM     21  C   UNL d   1      56.611  -0.378  31.928  0.00  0.00     0.309 C 
ATOM     22  F   UNL d   1      56.458  -1.174  32.074  0.00  0.00    -0.165 F 
ATOM     23  F   UNL d   1      56.139   0.204  32.266  0.00  0.00    -0.165 F 
ENDBRANCH  20  21
ENDBRANCH  17  20
ENDBRANCH   2  14
TORSDOF 4
ENDMDL
