MODEL 1
REMARK VINA RESULT:      84.9      0.000      0.000
REMARK  4 active torsions:
REMARK  status: ('A' for Active; 'I' for Inactive)
REMARK    1  A    between atoms: S_5  and  C_2 
REMARK    2  A    between atoms: C_14  and  S_5 
REMARK    3  A    between atoms: N_11  and  C_8 
REMARK    4  A    between atoms: C_15  and  N_11 
ROOT
ATOM      1  C   UNL d   1      59.086  49.319  51.245  0.00  0.00     0.197 A 
ATOM      2  C   UNL d   1      58.264  49.380  51.254  0.00  0.00     0.227 A 
ATOM      3  N   UNL d   1      59.368  49.519  51.996  0.00  0.00    -0.192 N 
ATOM      4  N   UNL d   1      59.618  49.106  50.647  0.00  0.00    -0.206 NA
ATOM      5  N   UNL d   1      58.032  49.620  52.018  0.00  0.00    -0.115 NA
ATOM      6  N   UNL d   1      58.721  49.705  52.474  0.00  0.00    -0.058 NA
ATOM      7  C   UNL d   1      60.436  49.092  50.797  0.00  0.00     0.166 A 
ATOM      8  C   UNL d   1      60.709  49.293  51.551  0.00  0.00     0.054 A 
ATOM      9  C   UNL d   1      60.185  49.506  52.152  0.00  0.00     0.089 A 
ATOM     10  C   UNL d   1      61.524  49.281  51.709  0.00  0.00     0.005 A 
ATOM     11  C   UNL d   1      60.461  49.706  52.903  0.00  0.00     0.019 A 
ATOM     12  C   UNL d   1      61.802  49.481  52.458  0.00  0.00     0.000 A 
ATOM     13  C   UNL d   1      61.269  49.694  53.056  0.00  0.00     0.002 A 
ENDROOT
BRANCH   2  14
ATOM     14  S   UNL d   1      57.752  49.233  50.625  0.00  0.00     0.231 S 
ATOM     15  O   UNL d   1      58.192  49.708  50.117  0.00  0.00    -0.215 OA
ATOM     16  O   UNL d   1      57.312  48.756  51.138  0.00  0.00    -0.215 OA
BRANCH  14  17
ATOM     17  C   UNL d   1      57.213  49.054  50.032  0.00  0.00     0.090 A 
ATOM     18  C   UNL d   1      56.578  49.557  49.891  0.00  0.00     0.011 A 
ATOM     19  C   UNL d   1      56.035  49.387  49.301  0.00  0.00     0.001 A 
ATOM     20  C   UNL d   1      56.129  48.699  48.845  0.00  0.00     0.000 A 
ATOM     21  C   UNL d   1      56.769  48.195  48.990  0.00  0.00     0.001 A 
ATOM     22  C   UNL d   1      57.307  48.371  49.580  0.00  0.00     0.011 A 
ENDBRANCH  14  17
ENDBRANCH   2  14
BRANCH   7  23
ATOM     23  N   UNL d   1      60.966  48.880  50.201  0.00  0.00    -0.227 NA
BRANCH  23  24
ATOM     24  C   UNL d   1      61.212  48.098  50.126  0.00  0.00     0.083 A 
ATOM     25  C   UNL d   1      60.873  47.510  50.596  0.00  0.00     0.019 A 
ATOM     26  C   UNL d   1      61.119  46.728  50.520  0.00  0.00     0.002 A 
ATOM     27  C   UNL d   1      60.780  46.141  50.989  0.00  0.00     0.000 C 
ATOM     28  C   UNL d   1      61.709  46.528  49.972  0.00  0.00     0.000 A 
ATOM     29  C   UNL d   1      62.047  47.127  49.501  0.00  0.00     0.002 A 
ATOM     30  C   UNL d   1      61.798  47.903  49.581  0.00  0.00     0.019 A 
ENDBRANCH  23  24
ENDBRANCH   7  23
TORSDOF 4
ENDMDL
