MODEL 1
REMARK VINA RESULT:      39.4      0.000      0.000
REMARK  7 active torsions:
REMARK  status: ('A' for Active; 'I' for Inactive)
REMARK    1  A    between atoms: C_6  and  N_1 
REMARK    2  A    between atoms: C_12  and  C_6 
REMARK    3  A    between atoms: C_7  and  C_8 
REMARK    4  A    between atoms: C_22  and  C_7 
REMARK    5  A    between atoms: C_15  and  C_12 
REMARK    6  A    between atoms: O_13  and  C_15 
REMARK    7  A    between atoms: C_14  and  O_13 
ROOT
ATOM      1  C   UNL d   1     -56.723 -99.455 -44.497  0.00  0.00     0.238 C 
ATOM      2  O   UNL d   1     -56.838 -99.891 -43.805  0.00  0.00    -0.283 OA
ENDROOT
BRANCH   1   3
ATOM      3  C   UNL d   1     -57.145 -98.756 -44.624  0.00  0.00     0.126 C 
BRANCH   3   4
ATOM      4  N   UNL d   1     -57.972 -98.757 -44.536  0.00  0.00    -0.286 N 
ATOM      5  C   UNL d   1     -58.379 -98.760 -43.812  0.00  0.00     0.148 A 
ATOM      6  N   UNL d   1     -59.194 -98.761 -43.977  0.00  0.00    -0.227 NA
ATOM      7  C   UNL d   1     -58.040 -98.761 -43.062  0.00  0.00     0.041 C 
ATOM      8  C   UNL d   1     -59.289 -98.759 -44.795  0.00  0.00     0.099 A 
ATOM      9  C   UNL d   1     -58.530 -98.757 -45.140  0.00  0.00     0.083 A 
ATOM     10  C   UNL d   1     -59.954 -98.760 -45.268  0.00  0.00     0.021 A 
ATOM     11  C   UNL d   1     -58.458 -98.756 -45.967  0.00  0.00     0.019 A 
ATOM     12  C   UNL d   1     -59.137 -98.756 -46.440  0.00  0.00     0.002 A 
ATOM     13  C   UNL d   1     -59.883 -98.758 -46.088  0.00  0.00     0.002 A 
ENDBRANCH   3   4
ENDBRANCH   1   3
BRANCH   1  14
ATOM     14  C   UNL d   1     -56.179 -99.727 -45.067  0.00  0.00     0.166 C 
BRANCH  14  15
ATOM     15  O   UNL d   1     -55.384 -99.919 -44.829  0.00  0.00    -0.302 OA
BRANCH  15  16
ATOM     16  C   UNL d   1     -55.235-100.463 -44.213  0.00  0.00     0.100 A 
ATOM     17  C   UNL d   1     -54.860-100.215 -43.526  0.00  0.00     0.025 A 
ATOM     18  C   UNL d   1     -54.714-100.758 -42.918  0.00  0.00     0.005 A 
ATOM     19  C   UNL d   1     -54.942-101.534 -43.002  0.00  0.00     0.039 A 
ATOM     20  C   UNL d   1     -55.320-101.779 -43.697  0.00  0.00     0.005 A 
ATOM     21  C   UNL d   1     -55.463-101.238 -44.298  0.00  0.00     0.025 A 
BRANCH  19  22
ATOM     22  C   UNL d   1     -54.798-102.075 -42.398  0.00  0.00     0.196 C 
ATOM     23  O   UNL d   1     -54.712-102.872 -42.568  0.00  0.00    -0.287 OA
BRANCH  22  24
ATOM     24  C   UNL d   1     -54.739-101.813 -41.617  0.00  0.00     0.042 C 
ATOM     25  C   UNL d   1     -54.962-102.303 -41.003  0.00  0.00     0.003 C 
ENDBRANCH  22  24
ENDBRANCH  19  22
ENDBRANCH  15  16
ENDBRANCH  14  15
ENDBRANCH   1  14
TORSDOF 7
ENDMDL
MODEL 2
REMARK VINA RESULT:      40.7      0.538      1.438
REMARK  7 active torsions:
REMARK  status: ('A' for Active; 'I' for Inactive)
REMARK    1  A    between atoms: C_6  and  N_1 
REMARK    2  A    between atoms: C_12  and  C_6 
REMARK    3  A    between atoms: C_7  and  C_8 
REMARK    4  A    between atoms: C_22  and  C_7 
REMARK    5  A    between atoms: C_15  and  C_12 
REMARK    6  A    between atoms: O_13  and  C_15 
REMARK    7  A    between atoms: C_14  and  O_13 
ROOT
ATOM      1  C   UNL d   1     -56.710 -99.479 -44.494  0.00  0.00     0.238 C 
ATOM      2  O   UNL d   1     -56.837 -99.899 -43.794  0.00  0.00    -0.283 OA
ENDROOT
BRANCH   1   3
ATOM      3  C   UNL d   1     -57.124 -98.778 -44.640  0.00  0.00     0.126 C 
BRANCH   3   4
ATOM      4  N   UNL d   1     -57.955 -98.781 -44.601  0.00  0.00    -0.286 N 
ATOM      5  C   UNL d   1     -58.467 -98.777 -45.255  0.00  0.00     0.148 A 
ATOM      6  N   UNL d   1     -59.248 -98.782 -44.967  0.00  0.00    -0.227 NA
ATOM      7  C   UNL d   1     -58.247 -98.768 -46.048  0.00  0.00     0.041 C 
ATOM      8  C   UNL d   1     -59.217 -98.789 -44.144  0.00  0.00     0.099 A 
ATOM      9  C   UNL d   1     -58.414 -98.789 -43.919  0.00  0.00     0.083 A 
ATOM     10  C   UNL d   1     -59.802 -98.796 -43.575  0.00  0.00     0.021 A 
ATOM     11  C   UNL d   1     -58.217 -98.796 -43.113  0.00  0.00     0.019 A 
ATOM     12  C   UNL d   1     -58.817 -98.803 -42.542  0.00  0.00     0.002 A 
ATOM     13  C   UNL d   1     -59.607 -98.803 -42.776  0.00  0.00     0.002 A 
ENDBRANCH   3   4
ENDBRANCH   1   3
BRANCH   1  14
ATOM     14  C   UNL d   1     -56.160 -99.767 -45.050  0.00  0.00     0.166 C 
BRANCH  14  15
ATOM     15  O   UNL d   1     -55.368 -99.952 -44.799  0.00  0.00    -0.302 OA
BRANCH  15  16
ATOM     16  C   UNL d   1     -55.226-100.464 -44.154  0.00  0.00     0.100 A 
ATOM     17  C   UNL d   1     -54.852-100.183 -43.480  0.00  0.00     0.025 A 
ATOM     18  C   UNL d   1     -54.713-100.693 -42.843  0.00  0.00     0.005 A 
ATOM     19  C   UNL d   1     -54.947-101.471 -42.887  0.00  0.00     0.039 A 
ATOM     20  C   UNL d   1     -55.325-101.750 -43.569  0.00  0.00     0.005 A 
ATOM     21  C   UNL d   1     -55.461-101.241 -44.199  0.00  0.00     0.025 A 
BRANCH  19  22
ATOM     22  C   UNL d   1     -54.810-101.980 -42.254  0.00  0.00     0.196 C 
ATOM     23  O   UNL d   1     -54.711-102.783 -42.383  0.00  0.00    -0.287 OA
BRANCH  22  24
ATOM     24  C   UNL d   1     -54.772-101.679 -41.486  0.00  0.00     0.042 C 
ATOM     25  C   UNL d   1     -54.754-102.189 -40.847  0.00  0.00     0.003 C 
ENDBRANCH  22  24
ENDBRANCH  19  22
ENDBRANCH  15  16
ENDBRANCH  14  15
ENDBRANCH   1  14
TORSDOF 7
ENDMDL
