MODEL 1
REMARK VINA RESULT:      -2.6      0.000      0.000
REMARK  2 active torsions:
REMARK  status: ('A' for Active; 'I' for Inactive)
REMARK    1  A    between atoms: N_9  and  C_2 
REMARK    2  A    between atoms: C_4  and  N_10 
ROOT
ATOM      1  C   UNL d   1      58.839  -0.679  29.967  0.00  0.00     0.152 A 
ATOM      2  C   UNL d   1      58.143  -1.054  30.206  0.00  0.00     0.174 A 
ATOM      3  C   UNL d   1      59.259  -0.964  29.317  0.00  0.00     0.111 A 
ATOM      4  O   UNL d   1      59.241  -0.022  30.262  0.00  0.00    -0.302 OA
ATOM      5  N   UNL d   1      57.868  -1.714  29.795  0.00  0.00    -0.207 NA
ATOM      6  C   UNL d   1      59.921  -0.486  29.210  0.00  0.00     0.043 A 
ATOM      7  N   UNL d   1      58.984  -1.624  28.907  0.00  0.00    -0.225 NA
ATOM      8  C   UNL d   1      59.910   0.098  29.795  0.00  0.00     0.102 A 
ATOM      9  C   UNL d   1      58.289  -1.999  29.146  0.00  0.00     0.164 A 
ATOM     10  C   UNL d   1      60.531  -0.504  28.657  0.00  0.00     0.004 A 
ATOM     11  C   UNL d   1      60.512   0.663  29.826  0.00  0.00     0.025 A 
ATOM     12  C   UNL d   1      58.014  -2.659  28.736  0.00  0.00     0.042 C 
ATOM     13  C   UNL d   1      61.133   0.062  28.688  0.00  0.00     0.000 A 
ATOM     14  C   UNL d   1      61.122   0.645  29.273  0.00  0.00     0.002 A 
ENDROOT
BRANCH   2  15
ATOM     15  N   UNL d   1      57.724  -0.767  30.857  0.00  0.00    -0.285 N 
ATOM     16  C   UNL d   1      57.355  -1.295  31.373  0.00  0.00     0.101 A 
ATOM     17  C   UNL d   1      56.936  -1.009  32.024  0.00  0.00     0.117 A 
ATOM     18  N   UNL d   1      56.885  -0.196  32.157  0.00  0.00    -0.135 N 
ATOM     19  C   UNL d   1      57.253   0.330  31.641  0.00  0.00     0.117 A 
ATOM     20  C   UNL d   1      57.673   0.045  30.990  0.00  0.00     0.101 A 
BRANCH  18  21
ATOM     21  C   UNL d   1      56.465   0.089  32.808  0.00  0.00     0.735 A 
ATOM     22  N   UNL d   1      56.858   0.243  33.517  0.00  0.00    -0.060 NA
ATOM     23  C   UNL d   1      56.440   0.527  34.167  0.00  0.00     0.101 A 
ATOM     24  C   UNL d   1      56.833   0.682  34.876  0.00  0.00     0.021 C 
ATOM     25  C   UNL d   1      55.626   0.659  34.110  0.00  0.00     0.040 A 
ATOM     26  C   UNL d   1      55.234   0.504  33.402  0.00  0.00     0.101 A 
ATOM     27  N   UNL d   1      55.653   0.219  32.750  0.00  0.00    -0.060 NA
ATOM     28  C   UNL d   1      54.422   0.635  33.344  0.00  0.00     0.021 C 
ENDBRANCH  18  21
ENDBRANCH   2  15
TORSDOF 2
ENDMDL
MODEL 2
REMARK VINA RESULT:      -2.2      0.978      2.257
REMARK  2 active torsions:
REMARK  status: ('A' for Active; 'I' for Inactive)
REMARK    1  A    between atoms: N_9  and  C_2 
REMARK    2  A    between atoms: C_4  and  N_10 
ROOT
ATOM      1  C   UNL d   1      58.804  -1.139  29.875  0.00  0.00     0.152 A 
ATOM      2  C   UNL d   1      58.753  -0.365  30.156  0.00  0.00     0.174 A 
ATOM      3  C   UNL d   1      59.269  -1.309  29.215  0.00  0.00     0.111 A 
ATOM      4  O   UNL d   1      58.461  -1.844  30.131  0.00  0.00    -0.302 OA
ATOM      5  N   UNL d   1      59.167   0.240  29.778  0.00  0.00    -0.207 NA
ATOM      6  C   UNL d   1      59.215  -2.116  29.063  0.00  0.00     0.043 A 
ATOM      7  N   UNL d   1      59.683  -0.704  28.837  0.00  0.00    -0.225 NA
ATOM      8  C   UNL d   1      58.714  -2.449  29.630  0.00  0.00     0.102 A 
ATOM      9  C   UNL d   1      59.631   0.070  29.119  0.00  0.00     0.164 A 
ATOM     10  C   UNL d   1      59.554  -2.594  28.483  0.00  0.00     0.004 A 
ATOM     11  C   UNL d   1      58.554  -3.259  29.617  0.00  0.00     0.025 A 
ATOM     12  C   UNL d   1      60.045   0.675  28.741  0.00  0.00     0.042 C 
ATOM     13  C   UNL d   1      59.394  -3.404  28.470  0.00  0.00     0.000 A 
ATOM     14  C   UNL d   1      58.894  -3.736  29.037  0.00  0.00     0.002 A 
ENDROOT
BRANCH   2  15
ATOM     15  N   UNL d   1      58.287  -0.197  30.816  0.00  0.00    -0.285 N 
ATOM     16  C   UNL d   1      58.628   0.152  31.481  0.00  0.00     0.101 A 
ATOM     17  C   UNL d   1      58.162   0.320  32.142  0.00  0.00     0.117 A 
ATOM     18  N   UNL d   1      57.357   0.138  32.137  0.00  0.00    -0.135 N 
ATOM     19  C   UNL d   1      57.018  -0.211  31.472  0.00  0.00     0.117 A 
ATOM     20  C   UNL d   1      57.483  -0.379  30.811  0.00  0.00     0.101 A 
BRANCH  18  21
ATOM     21  C   UNL d   1      56.893   0.307  32.798  0.00  0.00     0.735 A 
ATOM     22  N   UNL d   1      56.074   0.372  32.721  0.00  0.00    -0.060 NA
ATOM     23  C   UNL d   1      55.609   0.539  33.380  0.00  0.00     0.101 A 
ATOM     24  C   UNL d   1      54.790   0.604  33.303  0.00  0.00     0.021 C 
ATOM     25  C   UNL d   1      55.963   0.643  34.120  0.00  0.00     0.040 A 
ATOM     26  C   UNL d   1      56.782   0.578  34.196  0.00  0.00     0.101 A 
ATOM     27  N   UNL d   1      57.247   0.410  33.536  0.00  0.00    -0.060 NA
ATOM     28  C   UNL d   1      57.136   0.682  34.934  0.00  0.00     0.021 C 
ENDBRANCH  18  21
ENDBRANCH   2  15
TORSDOF 2
ENDMDL
MODEL 3
REMARK VINA RESULT:      -1.8      1.618      5.645
REMARK  2 active torsions:
REMARK  status: ('A' for Active; 'I' for Inactive)
REMARK    1  A    between atoms: N_9  and  C_2 
REMARK    2  A    between atoms: C_4  and  N_10 
ROOT
ATOM      1  C   UNL d   1      56.120   0.335  33.667  0.00  0.00     0.152 A 
ATOM      2  C   UNL d   1      56.924   0.273  33.493  0.00  0.00     0.174 A 
ATOM      3  C   UNL d   1      55.877   0.508  34.437  0.00  0.00     0.111 A 
ATOM      4  O   UNL d   1      55.445   0.256  33.200  0.00  0.00    -0.302 OA
ATOM      5  N   UNL d   1      57.485   0.383  34.086  0.00  0.00    -0.207 NA
ATOM      6  C   UNL d   1      55.054   0.535  34.447  0.00  0.00     0.043 A 
ATOM      7  N   UNL d   1      56.439   0.618  35.030  0.00  0.00    -0.225 NA
ATOM      8  C   UNL d   1      54.786   0.379  33.681  0.00  0.00     0.102 A 
ATOM      9  C   UNL d   1      57.243   0.555  34.854  0.00  0.00     0.164 A 
ATOM     10  C   UNL d   1      54.514   0.682  35.051  0.00  0.00     0.004 A 
ATOM     11  C   UNL d   1      53.975   0.370  33.521  0.00  0.00     0.025 A 
ATOM     12  C   UNL d   1      57.805   0.666  35.447  0.00  0.00     0.042 C 
ATOM     13  C   UNL d   1      53.703   0.672  34.891  0.00  0.00     0.000 A 
ATOM     14  C   UNL d   1      53.435   0.516  34.126  0.00  0.00     0.002 A 
ENDROOT
BRANCH   2  15
ATOM     15  N   UNL d   1      57.164   0.100  32.722  0.00  0.00    -0.285 N 
ATOM     16  C   UNL d   1      57.043  -0.656  32.413  0.00  0.00     0.101 A 
ATOM     17  C   UNL d   1      57.284  -0.829  31.643  0.00  0.00     0.117 A 
ATOM     18  N   UNL d   1      57.644  -0.247  31.182  0.00  0.00    -0.135 N 
ATOM     19  C   UNL d   1      57.764   0.507  31.491  0.00  0.00     0.117 A 
ATOM     20  C   UNL d   1      57.524   0.682  32.261  0.00  0.00     0.101 A 
BRANCH  18  21
ATOM     21  C   UNL d   1      57.884  -0.422  30.412  0.00  0.00     0.735 A 
ATOM     22  N   UNL d   1      58.147  -1.180  30.224  0.00  0.00    -0.060 NA
ATOM     23  C   UNL d   1      58.387  -1.356  29.456  0.00  0.00     0.101 A 
ATOM     24  C   UNL d   1      58.650  -2.115  29.267  0.00  0.00     0.021 C 
ATOM     25  C   UNL d   1      58.364  -0.771  28.872  0.00  0.00     0.040 A 
ATOM     26  C   UNL d   1      58.101  -0.013  29.060  0.00  0.00     0.101 A 
ATOM     27  N   UNL d   1      57.861   0.163  29.830  0.00  0.00    -0.060 NA
ATOM     28  C   UNL d   1      58.078   0.571  28.479  0.00  0.00     0.021 C 
ENDBRANCH  18  21
ENDBRANCH   2  15
TORSDOF 2
ENDMDL
MODEL 4
REMARK VINA RESULT:      -0.7      1.259      5.348
REMARK  2 active torsions:
REMARK  status: ('A' for Active; 'I' for Inactive)
REMARK    1  A    between atoms: N_9  and  C_2 
REMARK    2  A    between atoms: C_4  and  N_10 
ROOT
ATOM      1  C   UNL d   1      56.365   0.304  33.651  0.00  0.00     0.152 A 
ATOM      2  C   UNL d   1      56.031   0.222  32.901  0.00  0.00     0.174 A 
ATOM      3  C   UNL d   1      55.883   0.465  34.301  0.00  0.00     0.111 A 
ATOM      4  O   UNL d   1      57.144   0.255  33.917  0.00  0.00    -0.302 OA
ATOM      5  N   UNL d   1      55.216   0.301  32.800  0.00  0.00    -0.207 NA
ATOM      6  C   UNL d   1      56.362   0.516  34.969  0.00  0.00     0.043 A 
ATOM      7  N   UNL d   1      55.069   0.544  34.201  0.00  0.00    -0.225 NA
ATOM      8  C   UNL d   1      57.144   0.386  34.732  0.00  0.00     0.102 A 
ATOM      9  C   UNL d   1      54.736   0.462  33.450  0.00  0.00     0.164 A 
ATOM     10  C   UNL d   1      56.192   0.663  35.762  0.00  0.00     0.004 A 
ATOM     11  C   UNL d   1      57.753   0.404  35.289  0.00  0.00     0.025 A 
ATOM     12  C   UNL d   1      53.921   0.542  33.349  0.00  0.00     0.042 C 
ATOM     13  C   UNL d   1      56.802   0.681  36.319  0.00  0.00     0.000 A 
ATOM     14  C   UNL d   1      57.582   0.552  36.082  0.00  0.00     0.002 A 
ENDROOT
BRANCH   2  15
ATOM     15  N   UNL d   1      56.514   0.061  32.251  0.00  0.00    -0.285 N 
ATOM     16  C   UNL d   1      56.680  -0.721  32.047  0.00  0.00     0.101 A 
ATOM     17  C   UNL d   1      57.163  -0.884  31.398  0.00  0.00     0.117 A 
ATOM     18  N   UNL d   1      57.480  -0.264  30.953  0.00  0.00    -0.135 N 
ATOM     19  C   UNL d   1      57.313   0.517  31.159  0.00  0.00     0.117 A 
ATOM     20  C   UNL d   1      56.830   0.680  31.807  0.00  0.00     0.101 A 
BRANCH  18  21
ATOM     21  C   UNL d   1      57.962  -0.427  30.305  0.00  0.00     0.735 A 
ATOM     22  N   UNL d   1      58.323   0.191  29.893  0.00  0.00    -0.060 NA
ATOM     23  C   UNL d   1      58.805   0.030  29.245  0.00  0.00     0.101 A 
ATOM     24  C   UNL d   1      59.166   0.648  28.834  0.00  0.00     0.021 C 
ATOM     25  C   UNL d   1      58.929  -0.752  29.006  0.00  0.00     0.040 A 
ATOM     26  C   UNL d   1      58.568  -1.369  29.417  0.00  0.00     0.101 A 
ATOM     27  N   UNL d   1      58.085  -1.207  30.067  0.00  0.00    -0.060 NA
ATOM     28  C   UNL d   1      58.690  -2.149  29.180  0.00  0.00     0.021 C 
ENDBRANCH  18  21
ENDBRANCH   2  15
TORSDOF 2
ENDMDL
MODEL 5
REMARK VINA RESULT:      -0.4      8.847      9.366
REMARK  2 active torsions:
REMARK  status: ('A' for Active; 'I' for Inactive)
REMARK    1  A    between atoms: N_9  and  C_2 
REMARK    2  A    between atoms: C_4  and  N_10 
ROOT
ATOM      1  C   UNL d   1      58.997  -9.503  30.866  0.00  0.00     0.152 A 
ATOM      2  C   UNL d   1      58.442  -9.472  31.476  0.00  0.00     0.174 A 
ATOM      3  C   UNL d   1      58.750  -9.638  30.091  0.00  0.00     0.111 A 
ATOM      4  O   UNL d   1      59.817  -9.420  30.861  0.00  0.00    -0.302 OA
ATOM      5  N   UNL d   1      57.641  -9.577  31.312  0.00  0.00    -0.207 NA
ATOM      6  C   UNL d   1      59.415  -9.639  29.606  0.00  0.00     0.043 A 
ATOM      7  N   UNL d   1      57.948  -9.743  29.926  0.00  0.00    -0.225 NA
ATOM      8  C   UNL d   1      60.077  -9.504  30.082  0.00  0.00     0.102 A 
ATOM      9  C   UNL d   1      57.394  -9.712  30.538  0.00  0.00     0.164 A 
ATOM     10  C   UNL d   1      59.507  -9.746  28.794  0.00  0.00     0.004 A 
ATOM     11  C   UNL d   1      60.830  -9.476  29.745  0.00  0.00     0.025 A 
ATOM     12  C   UNL d   1      56.593  -9.817  30.373  0.00  0.00     0.042 C 
ATOM     13  C   UNL d   1      60.261  -9.717  28.456  0.00  0.00     0.000 A 
ATOM     14  C   UNL d   1      60.922  -9.582  28.933  0.00  0.00     0.002 A 
ENDROOT
BRANCH   2  15
ATOM     15  N   UNL d   1      58.691  -9.336  32.252  0.00  0.00    -0.285 N 
ATOM     16  C   UNL d   1      59.272  -9.818  32.587  0.00  0.00     0.101 A 
ATOM     17  C   UNL d   1      59.521  -9.683  33.362  0.00  0.00     0.117 A 
ATOM     18  N   UNL d   1      59.190  -9.067  33.801  0.00  0.00    -0.135 N 
ATOM     19  C   UNL d   1      58.611  -8.587  33.465  0.00  0.00     0.117 A 
ATOM     20  C   UNL d   1      58.361  -8.721  32.690  0.00  0.00     0.101 A 
BRANCH  18  21
ATOM     21  C   UNL d   1      59.440  -8.933  34.576  0.00  0.00     0.735 A 
ATOM     22  N   UNL d   1      60.004  -9.428  34.919  0.00  0.00    -0.060 NA
ATOM     23  C   UNL d   1      60.254  -9.295  35.692  0.00  0.00     0.101 A 
ATOM     24  C   UNL d   1      60.818  -9.791  36.036  0.00  0.00     0.021 C 
ATOM     25  C   UNL d   1      59.941  -8.665  36.125  0.00  0.00     0.040 A 
ATOM     26  C   UNL d   1      59.378  -8.170  35.782  0.00  0.00     0.101 A 
ATOM     27  N   UNL d   1      59.127  -8.304  35.007  0.00  0.00    -0.060 NA
ATOM     28  C   UNL d   1      59.065  -7.541  36.214  0.00  0.00     0.021 C 
ENDBRANCH  18  21
ENDBRANCH   2  15
TORSDOF 2
ENDMDL
