MODEL 1
REMARK VINA RESULT:      -3.1      0.000      0.000
REMARK  3 active torsions:
REMARK  status: ('A' for Active; 'I' for Inactive)
REMARK    1  A    between atoms: C_7  and  C_3 
REMARK    2  A    between atoms: N_5  and  C_8 
REMARK    3  A    between atoms: C_13  and  C_7 
ROOT
ATOM      1  C   UNL d   1      28.983  16.753 -24.115  0.00  0.00     0.127 A 
ATOM      2  C   UNL d   1      30.358  16.789 -24.560  0.00  0.00     0.002 A 
ATOM      3  C   UNL d   1      29.747  16.447 -24.070  0.00  0.00     0.024 A 
ATOM      4  C   UNL d   1      28.812  17.371 -24.618  0.00  0.00     0.024 A 
ATOM      5  C   UNL d   1      29.426  17.699 -25.096  0.00  0.00     0.002 A 
ATOM      6  C   UNL d   1      30.195  17.392 -25.052  0.00  0.00     0.000 A 
ENDROOT
BRANCH   2   7
ATOM      7  C   UNL d   1      31.117  16.477 -24.508  0.00  0.00     0.011 C 
BRANCH   7   8
ATOM      8  C   UNL d   1      31.681  16.874 -24.029  0.00  0.00     0.092 A 
ATOM      9  C   UNL d   1      32.219  16.470 -23.635  0.00  0.00     0.288 A 
ATOM     10  N   UNL d   1      32.685  17.011 -23.222  0.00  0.00    -0.163 NA
ATOM     11  O   UNL d   1      32.311  15.631 -23.633  0.00  0.00    -0.265 OA
ATOM     12  C   UNL d   1      32.406  17.754 -23.381  0.00  0.00     0.313 A 
ATOM     13  S   UNL d   1      31.782  17.700 -23.880  0.00  0.00    -0.021 SA
ATOM     14  O   UNL d   1      32.710  18.485 -23.079  0.00  0.00    -0.258 OA
ENDBRANCH   7   8
ENDBRANCH   2   7
BRANCH   1  15
ATOM     15  N   UNL d   1      28.382  16.440 -23.654  0.00  0.00    -0.114 N 
ATOM     16  O   UNL d   1      28.196  15.637 -23.700  0.00  0.00    -0.532 OA
ATOM     17  O   UNL d   1      27.968  16.924 -23.148  0.00  0.00    -0.532 OA
ENDBRANCH   1  15
TORSDOF 3
ENDMDL
MODEL 2
REMARK VINA RESULT:      -3.0      1.175      3.623
REMARK  3 active torsions:
REMARK  status: ('A' for Active; 'I' for Inactive)
REMARK    1  A    between atoms: C_7  and  C_3 
REMARK    2  A    between atoms: N_5  and  C_8 
REMARK    3  A    between atoms: C_13  and  C_7 
ROOT
ATOM      1  C   UNL d   1      32.221  17.694 -23.947  0.00  0.00     0.127 A 
ATOM      2  C   UNL d   1      31.080  17.131 -24.635  0.00  0.00     0.002 A 
ATOM      3  C   UNL d   1      31.444  17.778 -24.213  0.00  0.00     0.024 A 
ATOM      4  C   UNL d   1      32.633  17.005 -24.084  0.00  0.00     0.024 A 
ATOM      5  C   UNL d   1      32.260  16.374 -24.503  0.00  0.00     0.002 A 
ATOM      6  C   UNL d   1      31.480  16.458 -24.770  0.00  0.00     0.000 A 
ENDROOT
BRANCH   2   7
ATOM      7  C   UNL d   1      30.306  17.224 -24.896  0.00  0.00     0.011 C 
BRANCH   7   8
ATOM      8  C   UNL d   1      29.685  16.906 -24.429  0.00  0.00     0.092 A 
ATOM      9  C   UNL d   1      28.987  17.253 -24.410  0.00  0.00     0.288 A 
ATOM     10  N   UNL d   1      28.503  16.813 -23.908  0.00  0.00    -0.163 NA
ATOM     11  O   UNL d   1      28.765  17.952 -24.828  0.00  0.00    -0.265 OA
ATOM     12  C   UNL d   1      28.936  16.190 -23.625  0.00  0.00     0.313 A 
ATOM     13  S   UNL d   1      29.674  16.222 -23.932  0.00  0.00    -0.021 SA
ATOM     14  O   UNL d   1      28.669  15.589 -23.091  0.00  0.00    -0.258 OA
ENDBRANCH   7   8
ENDBRANCH   2   7
BRANCH   1  15
ATOM     15  N   UNL d   1      32.588  18.302 -23.540  0.00  0.00    -0.114 N 
ATOM     16  O   UNL d   1      32.877  18.961 -23.945  0.00  0.00    -0.532 OA
ATOM     17  O   UNL d   1      32.669  18.257 -22.731  0.00  0.00    -0.532 OA
ENDBRANCH   1  15
TORSDOF 3
ENDMDL
MODEL 3
REMARK VINA RESULT:      -2.8      1.349      3.594
REMARK  3 active torsions:
REMARK  status: ('A' for Active; 'I' for Inactive)
REMARK    1  A    between atoms: C_7  and  C_3 
REMARK    2  A    between atoms: N_5  and  C_8 
REMARK    3  A    between atoms: C_13  and  C_7 
ROOT
ATOM      1  C   UNL d   1      32.863  18.832 -23.241  0.00  0.00     0.127 A 
ATOM      2  C   UNL d   1      32.401  17.667 -23.963  0.00  0.00     0.002 A 
ATOM      3  C   UNL d   1      32.545  18.071 -23.224  0.00  0.00     0.024 A 
ATOM      4  C   UNL d   1      33.037  19.193 -23.950  0.00  0.00     0.024 A 
ATOM      5  C   UNL d   1      32.890  18.782 -24.673  0.00  0.00     0.002 A 
ATOM      6  C   UNL d   1      32.570  18.017 -24.657  0.00  0.00     0.000 A 
ENDROOT
BRANCH   2   7
ATOM      7  C   UNL d   1      32.084  16.909 -23.937  0.00  0.00     0.011 C 
BRANCH   7   8
ATOM      8  C   UNL d   1      31.255  16.819 -24.031  0.00  0.00     0.092 A 
ATOM      9  C   UNL d   1      30.882  16.218 -23.702  0.00  0.00     0.288 A 
ATOM     10  N   UNL d   1      30.083  16.284 -23.895  0.00  0.00    -0.163 NA
ATOM     11  O   UNL d   1      31.233  15.610 -23.234  0.00  0.00    -0.265 OA
ATOM     12  C   UNL d   1      29.989  16.946 -24.351  0.00  0.00     0.313 A 
ATOM     13  S   UNL d   1      30.701  17.299 -24.453  0.00  0.00    -0.021 SA
ATOM     14  O   UNL d   1      29.264  17.237 -24.679  0.00  0.00    -0.258 OA
ENDBRANCH   7   8
ENDBRANCH   2   7
BRANCH   1  15
ATOM     15  N   UNL d   1      33.008  19.236 -22.543  0.00  0.00    -0.114 N 
ATOM     16  O   UNL d   1      33.241  18.828 -21.865  0.00  0.00    -0.532 OA
ATOM     17  O   UNL d   1      32.923  20.045 -22.520  0.00  0.00    -0.532 OA
ENDBRANCH   1  15
TORSDOF 3
ENDMDL
MODEL 4
REMARK VINA RESULT:      -2.5      2.124      4.150
REMARK  3 active torsions:
REMARK  status: ('A' for Active; 'I' for Inactive)
REMARK    1  A    between atoms: C_7  and  C_3 
REMARK    2  A    between atoms: N_5  and  C_8 
REMARK    3  A    between atoms: C_13  and  C_7 
ROOT
ATOM      1  C   UNL d   1      32.942  20.029 -22.055  0.00  0.00     0.127 A 
ATOM      2  C   UNL d   1      33.092  18.894 -22.939  0.00  0.00     0.002 A 
ATOM      3  C   UNL d   1      32.938  19.211 -22.160  0.00  0.00     0.024 A 
ATOM      4  C   UNL d   1      33.090  20.528 -22.682  0.00  0.00     0.024 A 
ATOM      5  C   UNL d   1      33.241  20.200 -23.446  0.00  0.00     0.002 A 
ATOM      6  C   UNL d   1      33.237  19.378 -23.553  0.00  0.00     0.000 A 
ENDROOT
BRANCH   2   7
ATOM      7  C   UNL d   1      33.086  18.078 -23.034  0.00  0.00     0.011 C 
BRANCH   7   8
ATOM      8  C   UNL d   1      32.465  17.732 -23.480  0.00  0.00     0.092 A 
ATOM      9  C   UNL d   1      32.399  16.956 -23.530  0.00  0.00     0.288 A 
ATOM     10  N   UNL d   1      31.742  16.792 -24.001  0.00  0.00    -0.163 NA
ATOM     11  O   UNL d   1      32.907  16.387 -23.168  0.00  0.00    -0.265 OA
ATOM     12  C   UNL d   1      31.417  17.496 -24.232  0.00  0.00     0.313 A 
ATOM     13  S   UNL d   1      31.845  18.098 -23.923  0.00  0.00    -0.021 SA
ATOM     14  O   UNL d   1      30.734  17.602 -24.721  0.00  0.00    -0.258 OA
ENDBRANCH   7   8
ENDBRANCH   2   7
BRANCH   1  15
ATOM     15  N   UNL d   1      32.797  20.353 -21.317  0.00  0.00    -0.114 N 
ATOM     16  O   UNL d   1      33.237  20.114 -20.662  0.00  0.00    -0.532 OA
ATOM     17  O   UNL d   1      32.214  20.915 -21.230  0.00  0.00    -0.532 OA
ENDBRANCH   1  15
TORSDOF 3
ENDMDL
MODEL 5
REMARK VINA RESULT:      -1.9      2.905      4.931
REMARK  3 active torsions:
REMARK  status: ('A' for Active; 'I' for Inactive)
REMARK    1  A    between atoms: C_7  and  C_3 
REMARK    2  A    between atoms: N_5  and  C_8 
REMARK    3  A    between atoms: C_13  and  C_7 
ROOT
ATOM      1  C   UNL d   1      32.720  21.004 -21.435  0.00  0.00     0.127 A 
ATOM      2  C   UNL d   1      33.115  19.971 -22.367  0.00  0.00     0.002 A 
ATOM      3  C   UNL d   1      32.847  20.767 -22.216  0.00  0.00     0.024 A 
ATOM      4  C   UNL d   1      32.848  20.487 -20.819  0.00  0.00     0.024 A 
ATOM      5  C   UNL d   1      33.114  19.702 -20.984  0.00  0.00     0.002 A 
ATOM      6  C   UNL d   1      33.241  19.464 -21.767  0.00  0.00     0.000 A 
ENDROOT
BRANCH   2   7
ATOM      7  C   UNL d   1      33.238  19.744 -23.148  0.00  0.00     0.011 C 
BRANCH   7   8
ATOM      8  C   UNL d   1      32.855  19.052 -23.428  0.00  0.00     0.092 A 
ATOM      9  C   UNL d   1      32.846  18.886 -24.190  0.00  0.00     0.288 A 
ATOM     10  N   UNL d   1      32.432  18.179 -24.288  0.00  0.00    -0.163 NA
ATOM     11  O   UNL d   1      33.196  19.347 -24.805  0.00  0.00    -0.265 OA
ATOM     12  C   UNL d   1      32.193  17.927 -23.556  0.00  0.00     0.313 A 
ATOM     13  S   UNL d   1      32.442  18.449 -23.003  0.00  0.00    -0.021 SA
ATOM     14  O   UNL d   1      31.751  17.225 -23.383  0.00  0.00    -0.258 OA
ENDBRANCH   7   8
ENDBRANCH   2   7
BRANCH   1  15
ATOM     15  N   UNL d   1      32.463  21.764 -21.269  0.00  0.00    -0.114 N 
ATOM     16  O   UNL d   1      31.707  21.891 -20.963  0.00  0.00    -0.532 OA
ATOM     17  O   UNL d   1      32.957  22.396 -21.406  0.00  0.00    -0.532 OA
ENDBRANCH   1  15
TORSDOF 3
ENDMDL
MODEL 6
REMARK VINA RESULT:      -1.8      2.006      3.032
REMARK  3 active torsions:
REMARK  status: ('A' for Active; 'I' for Inactive)
REMARK    1  A    between atoms: C_7  and  C_3 
REMARK    2  A    between atoms: N_5  and  C_8 
REMARK    3  A    between atoms: C_13  and  C_7 
ROOT
ATOM      1  C   UNL d   1      31.685  17.174 -23.936  0.00  0.00     0.127 A 
ATOM      2  C   UNL d   1      32.786  17.984 -23.463  0.00  0.00     0.002 A 
ATOM      3  C   UNL d   1      32.137  17.453 -23.304  0.00  0.00     0.024 A 
ATOM      4  C   UNL d   1      31.855  17.402 -24.699  0.00  0.00     0.024 A 
ATOM      5  C   UNL d   1      32.500  17.928 -24.842  0.00  0.00     0.002 A 
ATOM      6  C   UNL d   1      32.954  18.209 -24.208  0.00  0.00     0.000 A 
ENDROOT
BRANCH   2   7
ATOM      7  C   UNL d   1      33.231  18.257 -22.827  0.00  0.00     0.011 C 
BRANCH   7   8
ATOM      8  C   UNL d   1      33.227  19.079 -22.660  0.00  0.00     0.092 A 
ATOM      9  C   UNL d   1      33.232  19.332 -21.922  0.00  0.00     0.288 A 
ATOM     10  N   UNL d   1      33.226  20.157 -21.941  0.00  0.00    -0.163 NA
ATOM     11  O   UNL d   1      33.241  18.851 -21.229  0.00  0.00    -0.265 OA
ATOM     12  C   UNL d   1      33.218  20.389 -22.717  0.00  0.00     0.313 A 
ATOM     13  S   UNL d   1      33.218  19.740 -23.186  0.00  0.00    -0.021 SA
ATOM     14  O   UNL d   1      33.210  21.185 -23.007  0.00  0.00    -0.258 OA
ENDBRANCH   7   8
ENDBRANCH   2   7
BRANCH   1  15
ATOM     15  N   UNL d   1      31.058  16.664 -23.805  0.00  0.00    -0.114 N 
ATOM     16  O   UNL d   1      31.197  15.878 -23.595  0.00  0.00    -0.532 OA
ATOM     17  O   UNL d   1      30.294  16.934 -23.881  0.00  0.00    -0.532 OA
ENDBRANCH   1  15
TORSDOF 3
ENDMDL
MODEL 7
REMARK VINA RESULT:      -1.6      6.855      8.499
REMARK  3 active torsions:
REMARK  status: ('A' for Active; 'I' for Inactive)
REMARK    1  A    between atoms: C_7  and  C_3 
REMARK    2  A    between atoms: N_5  and  C_8 
REMARK    3  A    between atoms: C_13  and  C_7 
ROOT
ATOM      1  C   UNL d   1      32.765  23.049 -17.345  0.00  0.00     0.127 A 
ATOM      2  C   UNL d   1      32.834  23.096 -18.788  0.00  0.00     0.002 A 
ATOM      3  C   UNL d   1      33.164  22.852 -18.039  0.00  0.00     0.024 A 
ATOM      4  C   UNL d   1      32.067  23.468 -17.372  0.00  0.00     0.024 A 
ATOM      5  C   UNL d   1      31.752  23.702 -18.120  0.00  0.00     0.002 A 
ATOM      6  C   UNL d   1      32.153  23.505 -18.818  0.00  0.00     0.000 A 
ENDROOT
BRANCH   2   7
ATOM      7  C   UNL d   1      33.239  22.895 -19.476  0.00  0.00     0.011 C 
BRANCH   7   8
ATOM      8  C   UNL d   1      32.821  22.495 -20.083  0.00  0.00     0.092 A 
ATOM      9  C   UNL d   1      32.748  22.816 -20.791  0.00  0.00     0.288 A 
ATOM     10  N   UNL d   1      32.314  22.294 -21.259  0.00  0.00    -0.163 NA
ATOM     11  O   UNL d   1      33.058  23.563 -21.034  0.00  0.00    -0.265 OA
ATOM     12  C   UNL d   1      32.129  21.648 -20.807  0.00  0.00     0.313 A 
ATOM     13  S   UNL d   1      32.431  21.745 -20.072  0.00  0.00    -0.021 SA
ATOM     14  O   UNL d   1      31.688  20.968 -21.053  0.00  0.00    -0.258 OA
ENDBRANCH   7   8
ENDBRANCH   2   7
BRANCH   1  15
ATOM     15  N   UNL d   1      33.065  22.825 -16.616  0.00  0.00    -0.114 N 
ATOM     16  O   UNL d   1      33.228  23.392 -16.039  0.00  0.00    -0.532 OA
ATOM     17  O   UNL d   1      33.203  22.037 -16.461  0.00  0.00    -0.532 OA
ENDBRANCH   1  15
TORSDOF 3
ENDMDL
MODEL 8
REMARK VINA RESULT:      -1.3      5.545      7.214
REMARK  3 active torsions:
REMARK  status: ('A' for Active; 'I' for Inactive)
REMARK    1  A    between atoms: C_7  and  C_3 
REMARK    2  A    between atoms: N_5  and  C_8 
REMARK    3  A    between atoms: C_13  and  C_7 
ROOT
ATOM      1  C   UNL d   1      32.544  23.139 -19.438  0.00  0.00     0.127 A 
ATOM      2  C   UNL d   1      32.746  22.966 -20.859  0.00  0.00     0.002 A 
ATOM      3  C   UNL d   1      33.031  22.894 -20.057  0.00  0.00     0.024 A 
ATOM      4  C   UNL d   1      31.803  23.444 -19.588  0.00  0.00     0.024 A 
ATOM      5  C   UNL d   1      31.535  23.508 -20.386  0.00  0.00     0.002 A 
ATOM      6  C   UNL d   1      32.024  23.263 -21.009  0.00  0.00     0.000 A 
ENDROOT
BRANCH   2   7
ATOM      7  C   UNL d   1      33.239  22.719 -21.470  0.00  0.00     0.011 C 
BRANCH   7   8
ATOM      8  C   UNL d   1      33.155  21.937 -21.760  0.00  0.00     0.092 A 
ATOM      9  C   UNL d   1      33.157  21.797 -22.528  0.00  0.00     0.288 A 
ATOM     10  N   UNL d   1      33.065  20.984 -22.634  0.00  0.00    -0.163 NA
ATOM     11  O   UNL d   1      33.239  22.372 -23.139  0.00  0.00    -0.265 OA
ATOM     12  C   UNL d   1      33.008  20.641 -21.903  0.00  0.00     0.313 A 
ATOM     13  S   UNL d   1      33.060  21.209 -21.341  0.00  0.00    -0.021 SA
ATOM     14  O   UNL d   1      32.908  19.816 -21.737  0.00  0.00    -0.258 OA
ENDBRANCH   7   8
ENDBRANCH   2   7
BRANCH   1  15
ATOM     15  N   UNL d   1      32.798  23.079 -18.662  0.00  0.00    -0.114 N 
ATOM     16  O   UNL d   1      33.206  23.702 -18.306  0.00  0.00    -0.532 OA
ATOM     17  O   UNL d   1      32.647  22.400 -18.238  0.00  0.00    -0.532 OA
ENDBRANCH   1  15
TORSDOF 3
ENDMDL
MODEL 9
REMARK VINA RESULT:      -0.6      4.459      6.137
REMARK  3 active torsions:
REMARK  status: ('A' for Active; 'I' for Inactive)
REMARK    1  A    between atoms: C_7  and  C_3 
REMARK    2  A    between atoms: N_5  and  C_8 
REMARK    3  A    between atoms: C_13  and  C_7 
ROOT
ATOM      1  C   UNL d   1      32.493  22.900 -20.934  0.00  0.00     0.127 A 
ATOM      2  C   UNL d   1      33.034  21.661 -21.446  0.00  0.00     0.002 A 
ATOM      3  C   UNL d   1      32.703  22.113 -20.802  0.00  0.00     0.024 A 
ATOM      4  C   UNL d   1      32.600  23.241 -21.666  0.00  0.00     0.024 A 
ATOM      5  C   UNL d   1      32.929  22.781 -22.294  0.00  0.00     0.002 A 
ATOM      6  C   UNL d   1      33.140  21.990 -22.162  0.00  0.00     0.000 A 
ENDROOT
BRANCH   2   7
ATOM      7  C   UNL d   1      33.240  20.877 -21.306  0.00  0.00     0.011 C 
BRANCH   7   8
ATOM      8  C   UNL d   1      33.238  20.341 -21.951  0.00  0.00     0.092 A 
ATOM      9  C   UNL d   1      33.235  19.571 -21.826  0.00  0.00     0.288 A 
ATOM     10  N   UNL d   1      33.233  19.198 -22.562  0.00  0.00    -0.163 NA
ATOM     11  O   UNL d   1      33.235  19.188 -21.074  0.00  0.00    -0.265 OA
ATOM     12  C   UNL d   1      33.234  19.772 -23.133  0.00  0.00     0.313 A 
ATOM     13  S   UNL d   1      33.237  20.492 -22.783  0.00  0.00    -0.021 SA
ATOM     14  O   UNL d   1      33.233  19.651 -23.972  0.00  0.00    -0.258 OA
ENDBRANCH   7   8
ENDBRANCH   2   7
BRANCH   1  15
ATOM     15  N   UNL d   1      32.174  23.351 -20.329  0.00  0.00    -0.114 N 
ATOM     16  O   UNL d   1      31.382  23.581 -20.353  0.00  0.00    -0.532 OA
ATOM     17  O   UNL d   1      32.641  23.573 -19.701  0.00  0.00    -0.532 OA
ENDBRANCH   1  15
TORSDOF 3
ENDMDL
