MODEL 1
REMARK VINA RESULT:      66.1      0.000      0.000
REMARK  5 active torsions:
REMARK  status: ('A' for Active; 'I' for Inactive)
REMARK    1  A    between atoms: O_8  and  C_1 
REMARK    2  A    between atoms: C_12  and  C_5 
REMARK    3  A    between atoms: C_10  and  O_8 
REMARK    4  A    between atoms: N_16  and  C_12 
REMARK    5  A    between atoms: O_19  and  C_15 
ROOT
ATOM      1  C   UNL d   1     -49.744  27.312  33.433  0.00  0.00     0.161 A 
ATOM      2  C   UNL d   1     -50.659  25.926  33.371  0.00  0.00     0.108 A 
ATOM      3  C   UNL d   1     -51.033  26.674  33.404  0.00  0.00     0.064 A 
ATOM      4  C   UNL d   1     -50.581  27.360  33.435  0.00  0.00     0.222 A 
ATOM      5  C   UNL d   1     -51.115  25.233  33.340  0.00  0.00     0.079 A 
ATOM      6  O   UNL d   1     -49.831  25.868  33.369  0.00  0.00    -0.305 OA
ATOM      7  C   UNL d   1     -49.374  26.571  33.401  0.00  0.00     0.126 A 
ATOM      8  C   UNL d   1     -51.864  26.712  33.405  0.00  0.00     0.009 A 
ATOM      9  C   UNL d   1     -51.941  25.287  33.341  0.00  0.00     0.199 A 
ATOM     10  O   UNL d   1     -50.946  28.099  33.467  0.00  0.00    -0.284 OA
ATOM     11  C   UNL d   1     -52.313  26.022  33.374  0.00  0.00     0.042 A 
ATOM     12  O   UNL d   1     -52.387  24.590  33.310  0.00  0.00    -0.286 OA
ATOM     13  C   UNL d   1     -48.552  26.524  33.399  0.00  0.00     0.029 C 
ENDROOT
BRANCH   1  14
ATOM     14  O   UNL d   1     -49.295  28.000  33.464  0.00  0.00    -0.300 OA
BRANCH  14  15
ATOM     15  C   UNL d   1     -48.959  28.240  34.177  0.00  0.00     0.122 A 
ATOM     16  C   UNL d   1     -48.772  29.032  34.297  0.00  0.00     0.117 A 
ATOM     17  C   UNL d   1     -48.436  29.271  35.009  0.00  0.00     0.026 A 
ATOM     18  C   UNL d   1     -48.287  28.717  35.602  0.00  0.00     0.002 A 
ATOM     19  C   UNL d   1     -48.478  27.915  35.475  0.00  0.00     0.002 A 
ATOM     20  C   UNL d   1     -48.812  27.682  34.767  0.00  0.00     0.027 A 
BRANCH  16  21
ATOM     21  O   UNL d   1     -48.922  29.586  33.704  0.00  0.00    -0.326 OA
ATOM     22  C   UNL d   1     -48.748  30.379  33.832  0.00  0.00     0.181 C 
ENDBRANCH  16  21
ENDBRANCH  14  15
ENDBRANCH   1  14
BRANCH   5  23
ATOM     23  C   UNL d   1     -50.743  24.497  33.308  0.00  0.00     0.086 C 
BRANCH  23  24
ATOM     24  N   UNL d   1     -51.163  23.823  33.505  0.00  0.00    -0.300 N 
ATOM     25  C   UNL d   1     -51.966  23.770  33.321  0.00  0.00     0.100 C 
ATOM     26  C   UNL d   1     -50.789  23.192  33.887  0.00  0.00     0.100 C 
ENDBRANCH  23  24
ENDBRANCH   5  23
TORSDOF 5
ENDMDL
