MODEL 1
REMARK VINA RESULT:      56.5      0.000      0.000
REMARK  5 active torsions:
REMARK  status: ('A' for Active; 'I' for Inactive)
REMARK    1  A    between atoms: C_2  and  S_1 
REMARK    2  A    between atoms: N_8  and  S_1 
REMARK    3  A    between atoms: C_3  and  C_14 
REMARK    4  A    between atoms: C_17  and  N_8 
REMARK    5  A    between atoms: C_23  and  C_11 
ROOT
ATOM      1  C   UNL d   1     -50.804  26.238  33.373  0.00  0.00     0.024 A 
ATOM      2  C   UNL d   1     -49.793  27.554  33.364  0.00  0.00     0.094 A 
ATOM      3  C   UNL d   1     -51.122  26.999  33.433  0.00  0.00     0.004 A 
ATOM      4  C   UNL d   1     -49.987  26.146  33.310  0.00  0.00     0.004 A 
ATOM      5  C   UNL d   1     -49.490  26.794  33.306  0.00  0.00     0.020 A 
ATOM      6  C   UNL d   1     -50.625  27.653  33.429  0.00  0.00     0.020 A 
ENDROOT
BRANCH   2   7
ATOM      7  N   UNL d   1     -49.299  28.203  33.360  0.00  0.00    -0.158 NA
BRANCH   7   8
ATOM      8  S   UNL d   1     -48.938  28.452  34.058  0.00  0.00     0.291 S 
ATOM      9  O   UNL d   1     -49.156  29.221  33.891  0.00  0.00    -0.198 OA
ATOM     10  O   UNL d   1     -48.721  27.684  34.224  0.00  0.00    -0.198 OA
BRANCH   8  11
ATOM     11  C   UNL d   1     -48.578  28.693  34.752  0.00  0.00     0.135 A 
ATOM     12  S   UNL d   1     -47.913  29.181  34.831  0.00  0.00    -0.074 SA
ATOM     13  C   UNL d   1     -47.745  29.276  35.632  0.00  0.00     0.030 A 
ATOM     14  C   UNL d   1     -48.312  28.842  36.055  0.00  0.00     0.008 A 
ATOM     15  C   UNL d   1     -48.823  28.484  35.527  0.00  0.00     0.020 A 
BRANCH  13  16
ATOM     16  C   UNL d   1     -47.138  29.713  35.947  0.00  0.00     0.006 C 
ATOM     17  C   UNL d   1     -47.170  30.541  35.918  0.00  0.00     0.001 C 
ENDBRANCH  13  16
ENDBRANCH   8  11
ENDBRANCH   7   8
ENDBRANCH   2   7
BRANCH   1  18
ATOM     18  C   UNL d   1     -51.306  25.584  33.378  0.00  0.00     0.112 A 
ATOM     19  S   UNL d   1     -52.124  25.611  33.314  0.00  0.00    -0.047 SA
ATOM     20  C   UNL d   1     -52.414  24.824  33.343  0.00  0.00     0.130 A 
ATOM     21  N   UNL d   1     -53.175  24.514  33.306  0.00  0.00    -0.236 NA
ATOM     22  C   UNL d   1     -51.756  24.320  33.426  0.00  0.00     0.106 A 
ATOM     23  C   UNL d   1     -53.281  23.694  33.351  0.00  0.00     0.100 A 
ATOM     24  C   UNL d   1     -52.629  23.188  33.434  0.00  0.00     0.022 A 
ATOM     25  C   UNL d   1     -51.871  23.502  33.471  0.00  0.00     0.023 A 
ATOM     26  N   UNL d   1     -51.069  24.794  33.447  0.00  0.00    -0.237 NA
ENDBRANCH   1  18
TORSDOF 5
ENDMDL
