MODEL 1
REMARK VINA RESULT:      21.5      0.000      0.000
REMARK  3 active torsions:
REMARK  status: ('A' for Active; 'I' for Inactive)
REMARK       I    between atoms: N_2  and  C_1 
REMARK       I    between atoms: N_5  and  C_1 
REMARK       I    between atoms: C_4  and  N_3 
REMARK    1  A    between atoms: O_14  and  C_4 
REMARK    2  A    between atoms: C_12  and  N_5 
REMARK    3  A    between atoms: C_20  and  O_14 
ROOT
ATOM      1  C   UNL d   1      46.066 -19.098  42.024  0.00  0.00     0.354 C 
ATOM      2  N   UNL d   1      46.014 -18.472  42.568  0.00  0.00    -0.253 N 
ATOM      3  N   UNL d   1      45.916 -17.227  43.611  0.00  0.00    -0.249 N 
ATOM      4  C   UNL d   1      45.866 -16.573  44.149  0.00  0.00     0.378 C 
ATOM      5  N   UNL d   1      46.037 -19.895  42.304  0.00  0.00    -0.192 NA
ATOM      6  O   UNL d   1      46.145 -18.972  41.205  0.00  0.00    -0.244 OA
ATOM      7  C   UNL d   1      45.935 -18.608  43.385  0.00  0.00     0.104 A 
ATOM      8  C   UNL d   1      46.043 -17.710  42.286  0.00  0.00     0.104 A 
ATOM      9  C   UNL d   1      45.993 -17.075  42.822  0.00  0.00     0.104 A 
ATOM     10  C   UNL d   1      45.887 -17.972  43.895  0.00  0.00     0.104 A 
ATOM     11  O   UNL d   1      45.788 -16.682  44.951  0.00  0.00    -0.237 OA
ENDROOT
BRANCH   5  12
ATOM     12  C   UNL d   1      45.961 -20.037  43.085  0.00  0.00     0.087 A 
ATOM     13  C   UNL d   1      45.227 -20.112  43.447  0.00  0.00     0.031 A 
ATOM     14  C   UNL d   1      45.169 -20.255  44.233  0.00  0.00     0.059 A 
ATOM     15 CL   UNL d   1      44.402 -20.325  44.570  0.00  0.00    -0.082 Cl
ATOM     16  C   UNL d   1      45.844 -20.330  44.700  0.00  0.00     0.011 A 
ATOM     17  C   UNL d   1      46.588 -20.255  44.341  0.00  0.00     0.002 A 
ATOM     18  C   UNL d   1      46.646 -20.113  43.555  0.00  0.00     0.019 A 
ENDBRANCH   5  12
BRANCH   4  19
ATOM     19  O   UNL d   1      45.896 -15.803  43.849  0.00  0.00    -0.257 OA
BRANCH  19  20
ATOM     20  C   UNL d   1      45.840 -15.166  44.358  0.00  0.00     0.128 C 
ATOM     21  C   UNL d   1      45.629 -14.421  44.075  0.00  0.00     0.029 C 
ENDBRANCH  19  20
ENDBRANCH   4  19
TORSDOF 3
ENDMDL
MODEL 2
REMARK VINA RESULT:      24.2      3.181      5.935
REMARK  3 active torsions:
REMARK  status: ('A' for Active; 'I' for Inactive)
REMARK       I    between atoms: N_2  and  C_1 
REMARK       I    between atoms: N_5  and  C_1 
REMARK       I    between atoms: C_4  and  N_3 
REMARK    1  A    between atoms: O_14  and  C_4 
REMARK    2  A    between atoms: C_12  and  N_5 
REMARK    3  A    between atoms: C_20  and  O_14 
ROOT
ATOM      1  C   UNL d   1      46.050 -12.640  44.449  0.00  0.00     0.354 C 
ATOM      2  N   UNL d   1      45.865 -13.449  44.388  0.00  0.00    -0.253 N 
ATOM      3  N   UNL d   1      45.524 -15.037  44.291  0.00  0.00    -0.249 N 
ATOM      4  C   UNL d   1      45.351 -15.866  44.245  0.00  0.00     0.378 C 
ATOM      5  N   UNL d   1      45.622 -12.080  43.983  0.00  0.00    -0.192 NA
ATOM      6  O   UNL d   1      46.647 -12.357  44.955  0.00  0.00    -0.244 OA
ATOM      7  C   UNL d   1      45.267 -13.723  43.880  0.00  0.00     0.104 A 
ATOM      8  C   UNL d   1      46.284 -13.977  44.842  0.00  0.00     0.104 A 
ATOM      9  C   UNL d   1      46.107 -14.789  44.790  0.00  0.00     0.104 A 
ATOM     10  C   UNL d   1      45.109 -14.524  43.843  0.00  0.00     0.104 A 
ATOM     11  O   UNL d   1      44.771 -16.157  43.754  0.00  0.00    -0.237 OA
ENDROOT
BRANCH   5  12
ATOM     12  C   UNL d   1      45.046 -12.333  43.492  0.00  0.00     0.087 A 
ATOM     13  C   UNL d   1      45.078 -12.209  42.680  0.00  0.00     0.031 A 
ATOM     14  C   UNL d   1      44.491 -12.470  42.201  0.00  0.00     0.059 A 
ATOM     15 CL   UNL d   1      44.557 -12.326  41.376  0.00  0.00    -0.082 Cl
ATOM     16  C   UNL d   1      43.839 -12.869  42.510  0.00  0.00     0.011 A 
ATOM     17  C   UNL d   1      43.801 -12.997  43.328  0.00  0.00     0.002 A 
ATOM     18  C   UNL d   1      44.388 -12.736  43.807  0.00  0.00     0.019 A 
ENDBRANCH   5  12
BRANCH   4  19
ATOM     19  O   UNL d   1      45.785 -16.393  44.711  0.00  0.00    -0.257 OA
BRANCH  19  20
ATOM     20  C   UNL d   1      45.744 -17.195  44.564  0.00  0.00     0.128 C 
ATOM     21  C   UNL d   1      46.246 -17.720  44.954  0.00  0.00     0.029 C 
ENDBRANCH  19  20
ENDBRANCH   4  19
TORSDOF 3
ENDMDL
