MODEL 1
REMARK VINA RESULT:      -4.8      0.000      0.000
REMARK  2 active torsions:
REMARK  status: ('A' for Active; 'I' for Inactive)
REMARK    1  A    between atoms: C_7  and  C_1 
REMARK    2  A    between atoms: C_11  and  C_7 
ROOT
ATOM      1  C   UNL d   1      57.272  -0.365  32.166  0.00  0.00     0.116 A 
ATOM      2  N   UNL d   1      58.067   0.571  31.444  0.00  0.00    -0.152 NA
ATOM      3  N   UNL d   1      57.374  -0.459  30.746  0.00  0.00    -0.152 NA
ATOM      4  C   UNL d   1      57.072  -0.745  31.459  0.00  0.00     0.288 A 
ATOM      5  C   UNL d   1      57.767   0.289  32.158  0.00  0.00     0.288 A 
ATOM      6  C   UNL d   1      57.869   0.195  30.738  0.00  0.00     0.374 A 
ATOM      7  O   UNL d   1      57.976   0.682  32.877  0.00  0.00    -0.265 OA
ATOM      8  O   UNL d   1      56.576  -1.401  31.467  0.00  0.00    -0.265 OA
ATOM      9  O   UNL d   1      58.181   0.494  30.027  0.00  0.00    -0.242 OA
ENDROOT
BRANCH   1  10
ATOM     10  C   UNL d   1      56.969  -0.650  32.892  0.00  0.00     0.010 C 
BRANCH  10  11
ATOM     11  C   UNL d   1      56.281  -0.318  33.209  0.00  0.00     0.001 A 
ATOM     12  C   UNL d   1      56.324   0.353  33.678  0.00  0.00     0.003 A 
ATOM     13  C   UNL d   1      55.636   0.681  33.993  0.00  0.00     0.042 A 
ATOM     14  C   UNL d   1      54.913   0.334  33.835  0.00  0.00     0.196 A 
ATOM     15  C   UNL d   1      54.870  -0.338  33.366  0.00  0.00     0.042 A 
ATOM     16  O   UNL d   1      54.206   0.662  34.151  0.00  0.00    -0.287 OA
ATOM     17  C   UNL d   1      55.550  -0.669  33.050  0.00  0.00     0.003 A 
ENDBRANCH  10  11
ENDBRANCH   1  10
TORSDOF 2
ENDMDL
MODEL 2
REMARK VINA RESULT:      -4.6      1.348      3.253
REMARK  2 active torsions:
REMARK  status: ('A' for Active; 'I' for Inactive)
REMARK    1  A    between atoms: C_7  and  C_1 
REMARK    2  A    between atoms: C_11  and  C_7 
ROOT
ATOM      1  C   UNL d   1      56.349  -0.307  33.162  0.00  0.00     0.116 A 
ATOM      2  N   UNL d   1      55.801   0.665  34.047  0.00  0.00    -0.152 NA
ATOM      3  N   UNL d   1      54.951  -0.308  33.448  0.00  0.00    -0.152 NA
ATOM      4  C   UNL d   1      55.599  -0.637  33.054  0.00  0.00     0.288 A 
ATOM      5  C   UNL d   1      56.450   0.340  33.656  0.00  0.00     0.288 A 
ATOM      6  C   UNL d   1      55.052   0.339  33.942  0.00  0.00     0.374 A 
ATOM      7  O   UNL d   1      57.214   0.682  33.771  0.00  0.00    -0.265 OA
ATOM      8  O   UNL d   1      55.498  -1.286  32.558  0.00  0.00    -0.265 OA
ATOM      9  O   UNL d   1      54.410   0.680  34.345  0.00  0.00    -0.242 OA
ENDROOT
BRANCH   1  10
ATOM     10  C   UNL d   1      57.009  -0.636  32.765  0.00  0.00     0.010 C 
BRANCH  10  11
ATOM     11  C   UNL d   1      57.210  -0.369  32.009  0.00  0.00     0.001 A 
ATOM     12  C   UNL d   1      57.425   0.414  31.890  0.00  0.00     0.003 A 
ATOM     13  C   UNL d   1      57.624   0.677  31.134  0.00  0.00     0.042 A 
ATOM     14  C   UNL d   1      57.606   0.154  30.506  0.00  0.00     0.196 A 
ATOM     15  C   UNL d   1      57.391  -0.629  30.625  0.00  0.00     0.042 A 
ATOM     16  O   UNL d   1      57.808   0.414  29.732  0.00  0.00    -0.287 OA
ATOM     17  C   UNL d   1      57.192  -0.897  31.373  0.00  0.00     0.003 A 
ENDBRANCH  10  11
ENDBRANCH   1  10
TORSDOF 2
ENDMDL
MODEL 3
REMARK VINA RESULT:      -4.5      1.289      1.692
REMARK  2 active torsions:
REMARK  status: ('A' for Active; 'I' for Inactive)
REMARK    1  A    between atoms: C_7  and  C_1 
REMARK    2  A    between atoms: C_11  and  C_7 
ROOT
ATOM      1  C   UNL d   1      57.525   0.676  31.670  0.00  0.00     0.116 A 
ATOM      2  N   UNL d   1      58.950   0.670  31.666  0.00  0.00    -0.152 NA
ATOM      3  N   UNL d   1      58.237   0.664  30.433  0.00  0.00    -0.152 NA
ATOM      4  C   UNL d   1      57.520   0.670  30.843  0.00  0.00     0.288 A 
ATOM      5  C   UNL d   1      58.236   0.676  32.079  0.00  0.00     0.288 A 
ATOM      6  C   UNL d   1      58.948   0.664  30.842  0.00  0.00     0.374 A 
ATOM      7  O   UNL d   1      58.249   0.682  32.924  0.00  0.00    -0.265 OA
ATOM      8  O   UNL d   1      56.807   0.670  30.432  0.00  0.00    -0.265 OA
ATOM      9  O   UNL d   1      59.677   0.659  30.443  0.00  0.00    -0.242 OA
ENDROOT
BRANCH   1  10
ATOM     10  C   UNL d   1      56.802   0.682  32.091  0.00  0.00     0.010 C 
BRANCH  10  11
ATOM     11  C   UNL d   1      56.485  -0.027  32.375  0.00  0.00     0.001 A 
ATOM     12  C   UNL d   1      56.635  -0.733  31.984  0.00  0.00     0.003 A 
ATOM     13  C   UNL d   1      56.318  -1.439  32.270  0.00  0.00     0.042 A 
ATOM     14  C   UNL d   1      55.854  -1.430  32.943  0.00  0.00     0.196 A 
ATOM     15  C   UNL d   1      55.703  -0.724  33.333  0.00  0.00     0.042 A 
ATOM     16  O   UNL d   1      55.526  -2.145  33.242  0.00  0.00    -0.287 OA
ATOM     17  C   UNL d   1      56.016  -0.019  33.055  0.00  0.00     0.003 A 
ENDBRANCH  10  11
ENDBRANCH   1  10
TORSDOF 2
ENDMDL
MODEL 4
REMARK VINA RESULT:      -4.4      8.614      9.546
REMARK  2 active torsions:
REMARK  status: ('A' for Active; 'I' for Inactive)
REMARK    1  A    between atoms: C_7  and  C_1 
REMARK    2  A    between atoms: C_11  and  C_7 
ROOT
ATOM      1  C   UNL d   1      59.853  -7.816  35.774  0.00  0.00     0.116 A 
ATOM      2  N   UNL d   1      60.758  -6.853  36.308  0.00  0.00    -0.152 NA
ATOM      3  N   UNL d   1      59.500  -6.434  35.788  0.00  0.00    -0.152 NA
ATOM      4  C   UNL d   1      59.311  -7.216  35.603  0.00  0.00     0.288 A 
ATOM      5  C   UNL d   1      60.572  -7.636  36.125  0.00  0.00     0.288 A 
ATOM      6  C   UNL d   1      60.219  -6.253  36.138  0.00  0.00     0.374 A 
ATOM      7  O   UNL d   1      61.132  -8.244  36.303  0.00  0.00    -0.265 OA
ATOM      8  O   UNL d   1      58.589  -7.397  35.252  0.00  0.00    -0.265 OA
ATOM      9  O   UNL d   1      60.423  -5.470  36.330  0.00  0.00    -0.242 OA
ENDROOT
BRANCH   1  10
ATOM     10  C   UNL d   1      59.667  -8.611  35.589  0.00  0.00     0.010 C 
BRANCH  10  11
ATOM     11  C   UNL d   1      59.798  -8.897  34.825  0.00  0.00     0.001 A 
ATOM     12  C   UNL d   1      59.174  -9.194  34.382  0.00  0.00     0.003 A 
ATOM     13  C   UNL d   1      59.307  -9.478  33.619  0.00  0.00     0.042 A 
ATOM     14  C   UNL d   1      60.064  -9.462  33.308  0.00  0.00     0.196 A 
ATOM     15  C   UNL d   1      60.687  -9.165  33.751  0.00  0.00     0.042 A 
ATOM     16  O   UNL d   1      60.209  -9.750  32.531  0.00  0.00    -0.287 OA
ATOM     17  C   UNL d   1      60.562  -8.881  34.510  0.00  0.00     0.003 A 
ENDBRANCH  10  11
ENDBRANCH   1  10
TORSDOF 2
ENDMDL
MODEL 5
REMARK VINA RESULT:      -4.3      1.386      2.290
REMARK  2 active torsions:
REMARK  status: ('A' for Active; 'I' for Inactive)
REMARK    1  A    between atoms: C_7  and  C_1 
REMARK    2  A    between atoms: C_11  and  C_7 
ROOT
ATOM      1  C   UNL d   1      58.050   0.581  31.046  0.00  0.00     0.116 A 
ATOM      2  N   UNL d   1      58.819   0.381  29.864  0.00  0.00    -0.152 NA
ATOM      3  N   UNL d   1      59.471   0.481  31.126  0.00  0.00    -0.152 NA
ATOM      4  C   UNL d   1      58.741   0.582  31.500  0.00  0.00     0.288 A 
ATOM      5  C   UNL d   1      58.088   0.481  30.233  0.00  0.00     0.288 A 
ATOM      6  C   UNL d   1      59.510   0.381  30.313  0.00  0.00     0.374 A 
ATOM      7  O   UNL d   1      57.386   0.479  29.763  0.00  0.00    -0.265 OA
ATOM      8  O   UNL d   1      58.703   0.682  32.316  0.00  0.00    -0.265 OA
ATOM      9  O   UNL d   1      60.237   0.279  29.924  0.00  0.00    -0.242 OA
ENDROOT
BRANCH   1  10
ATOM     10  C   UNL d   1      57.307   0.682  31.419  0.00  0.00     0.010 C 
BRANCH  10  11
ATOM     11  C   UNL d   1      56.956   0.047  31.816  0.00  0.00     0.001 A 
ATOM     12  C   UNL d   1      56.975  -0.705  31.491  0.00  0.00     0.003 A 
ATOM     13  C   UNL d   1      56.624  -1.336  31.889  0.00  0.00     0.042 A 
ATOM     14  C   UNL d   1      56.257  -1.207  32.609  0.00  0.00     0.196 A 
ATOM     15  C   UNL d   1      56.238  -0.454  32.934  0.00  0.00     0.042 A 
ATOM     16  O   UNL d   1      55.896  -1.845  33.022  0.00  0.00    -0.287 OA
ATOM     17  C   UNL d   1      56.585   0.178  32.543  0.00  0.00     0.003 A 
ENDBRANCH  10  11
ENDBRANCH   1  10
TORSDOF 2
ENDMDL
MODEL 6
REMARK VINA RESULT:      -4.1      1.460      2.202
REMARK  2 active torsions:
REMARK  status: ('A' for Active; 'I' for Inactive)
REMARK    1  A    between atoms: C_7  and  C_1 
REMARK    2  A    between atoms: C_11  and  C_7 
ROOT
ATOM      1  C   UNL d   1      58.238   0.450  30.682  0.00  0.00     0.116 A 
ATOM      2  N   UNL d   1      59.645   0.221  30.676  0.00  0.00    -0.152 NA
ATOM      3  N   UNL d   1      58.883  -0.007  29.494  0.00  0.00    -0.152 NA
ATOM      4  C   UNL d   1      58.195   0.221  29.888  0.00  0.00     0.288 A 
ATOM      5  C   UNL d   1      58.959   0.449  31.073  0.00  0.00     0.288 A 
ATOM      6  C   UNL d   1      59.604  -0.007  29.885  0.00  0.00     0.374 A 
ATOM      7  O   UNL d   1      59.011   0.682  31.884  0.00  0.00    -0.265 OA
ATOM      8  O   UNL d   1      57.471   0.221  29.495  0.00  0.00    -0.265 OA
ATOM      9  O   UNL d   1      60.306  -0.235  29.500  0.00  0.00    -0.242 OA
ENDROOT
BRANCH   1  10
ATOM     10  C   UNL d   1      57.544   0.682  31.087  0.00  0.00     0.010 C 
BRANCH  10  11
ATOM     11  C   UNL d   1      57.164   0.149  31.592  0.00  0.00     0.001 A 
ATOM     12  C   UNL d   1      57.000  -0.614  31.340  0.00  0.00     0.003 A 
ATOM     13  C   UNL d   1      56.621  -1.144  31.847  0.00  0.00     0.042 A 
ATOM     14  C   UNL d   1      56.411  -0.903  32.600  0.00  0.00     0.196 A 
ATOM     15  C   UNL d   1      56.576  -0.140  32.852  0.00  0.00     0.042 A 
ATOM     16  O   UNL d   1      56.025  -1.437  33.123  0.00  0.00    -0.287 OA
ATOM     17  C   UNL d   1      56.952   0.391  32.354  0.00  0.00     0.003 A 
ENDBRANCH  10  11
ENDBRANCH   1  10
TORSDOF 2
ENDMDL
MODEL 7
REMARK VINA RESULT:      -3.0      3.209      4.659
REMARK  2 active torsions:
REMARK  status: ('A' for Active; 'I' for Inactive)
REMARK    1  A    between atoms: C_7  and  C_1 
REMARK    2  A    between atoms: C_11  and  C_7 
ROOT
ATOM      1  C   UNL d   1      59.443  -1.949  28.907  0.00  0.00     0.116 A 
ATOM      2  N   UNL d   1      59.775  -3.283  29.283  0.00  0.00    -0.152 NA
ATOM      3  N   UNL d   1      60.810  -2.346  29.001  0.00  0.00    -0.152 NA
ATOM      4  C   UNL d   1      60.246  -1.764  28.843  0.00  0.00     0.288 A 
ATOM      5  C   UNL d   1      59.209  -2.704  29.126  0.00  0.00     0.288 A 
ATOM      6  C   UNL d   1      60.577  -3.101  29.219  0.00  0.00     0.374 A 
ATOM      7  O   UNL d   1      58.390  -2.901  29.194  0.00  0.00    -0.265 OA
ATOM      8  O   UNL d   1      60.481  -1.006  28.624  0.00  0.00    -0.265 OA
ATOM      9  O   UNL d   1      61.133  -3.696  29.381  0.00  0.00    -0.242 OA
ENDROOT
BRANCH   1  10
ATOM     10  C   UNL d   1      58.866  -1.363  28.749  0.00  0.00     0.010 C 
BRANCH  10  11
ATOM     11  C   UNL d   1      58.617  -0.856  29.353  0.00  0.00     0.001 A 
ATOM     12  C   UNL d   1      58.135  -1.135  29.955  0.00  0.00     0.003 A 
ATOM     13  C   UNL d   1      57.889  -0.627  30.556  0.00  0.00     0.042 A 
ATOM     14  C   UNL d   1      58.128   0.155  30.547  0.00  0.00     0.196 A 
ATOM     15  C   UNL d   1      58.610   0.434  29.945  0.00  0.00     0.042 A 
ATOM     16  O   UNL d   1      57.882   0.681  31.156  0.00  0.00    -0.287 OA
ATOM     17  C   UNL d   1      58.859  -0.066  29.344  0.00  0.00     0.003 A 
ENDBRANCH  10  11
ENDBRANCH   1  10
TORSDOF 2
ENDMDL
MODEL 8
REMARK VINA RESULT:      -2.8      1.994      4.524
REMARK  2 active torsions:
REMARK  status: ('A' for Active; 'I' for Inactive)
REMARK    1  A    between atoms: C_7  and  C_1 
REMARK    2  A    between atoms: C_11  and  C_7 
ROOT
ATOM      1  C   UNL d   1      58.295   0.673  30.560  0.00  0.00     0.116 A 
ATOM      2  N   UNL d   1      57.018   0.661  31.191  0.00  0.00    -0.152 NA
ATOM      3  N   UNL d   1      58.201   0.659  31.984  0.00  0.00    -0.152 NA
ATOM      4  C   UNL d   1      58.664   0.668  31.300  0.00  0.00     0.288 A 
ATOM      5  C   UNL d   1      57.477   0.670  30.506  0.00  0.00     0.288 A 
ATOM      6  C   UNL d   1      57.383   0.656  31.930  0.00  0.00     0.374 A 
ATOM      7  O   UNL d   1      57.093   0.675  29.753  0.00  0.00    -0.265 OA
ATOM      8  O   UNL d   1      59.485   0.671  31.354  0.00  0.00    -0.265 OA
ATOM      9  O   UNL d   1      56.904   0.648  32.609  0.00  0.00    -0.242 OA
ENDROOT
BRANCH   1  10
ATOM     10  C   UNL d   1      58.759   0.681  29.863  0.00  0.00     0.010 C 
BRANCH  10  11
ATOM     11  C   UNL d   1      59.060  -0.027  29.560  0.00  0.00     0.001 A 
ATOM     12  C   UNL d   1      58.551  -0.625  29.324  0.00  0.00     0.003 A 
ATOM     13  C   UNL d   1      58.854  -1.330  29.022  0.00  0.00     0.042 A 
ATOM     14  C   UNL d   1      59.664  -1.429  28.961  0.00  0.00     0.196 A 
ATOM     15  C   UNL d   1      60.173  -0.831  29.197  0.00  0.00     0.042 A 
ATOM     16  O   UNL d   1      59.982  -2.145  28.654  0.00  0.00    -0.287 OA
ATOM     17  C   UNL d   1      59.878  -0.127  29.498  0.00  0.00     0.003 A 
ENDBRANCH  10  11
ENDBRANCH   1  10
TORSDOF 2
ENDMDL
MODEL 9
REMARK VINA RESULT:      -2.7      3.312      5.504
REMARK  2 active torsions:
REMARK  status: ('A' for Active; 'I' for Inactive)
REMARK    1  A    between atoms: C_7  and  C_1 
REMARK    2  A    between atoms: C_11  and  C_7 
ROOT
ATOM      1  C   UNL d   1      59.338  -0.594  29.122  0.00  0.00     0.116 A 
ATOM      2  N   UNL d   1      58.061  -0.201  29.618  0.00  0.00    -0.152 NA
ATOM      3  N   UNL d   1      59.245   0.293  30.237  0.00  0.00    -0.152 NA
ATOM      4  C   UNL d   1      59.708  -0.133  29.701  0.00  0.00     0.288 A 
ATOM      5  C   UNL d   1      58.520  -0.628  29.081  0.00  0.00     0.288 A 
ATOM      6  C   UNL d   1      58.427   0.259  30.195  0.00  0.00     0.374 A 
ATOM      7  O   UNL d   1      58.136  -1.097  28.492  0.00  0.00    -0.265 OA
ATOM      8  O   UNL d   1      60.529  -0.099  29.743  0.00  0.00    -0.265 OA
ATOM      9  O   UNL d   1      57.948   0.682  30.728  0.00  0.00    -0.242 OA
ENDROOT
BRANCH   1  10
ATOM     10  C   UNL d   1      59.802  -1.027  28.577  0.00  0.00     0.010 C 
BRANCH  10  11
ATOM     11  C   UNL d   1      60.067  -1.786  28.773  0.00  0.00     0.001 A 
ATOM     12  C   UNL d   1      59.535  -2.407  28.833  0.00  0.00     0.003 A 
ATOM     13  C   UNL d   1      59.803  -3.162  29.029  0.00  0.00     0.042 A 
ATOM     14  C   UNL d   1      60.600  -3.286  29.163  0.00  0.00     0.196 A 
ATOM     15  C   UNL d   1      61.132  -2.665  29.103  0.00  0.00     0.042 A 
ATOM     16  O   UNL d   1      60.882  -4.053  29.364  0.00  0.00    -0.287 OA
ATOM     17  C   UNL d   1      60.873  -1.912  28.909  0.00  0.00     0.003 A 
ENDBRANCH  10  11
ENDBRANCH   1  10
TORSDOF 2
ENDMDL
