MODEL 1
REMARK VINA RESULT:       5.8      0.000      0.000
REMARK  3 active torsions:
REMARK  status: ('A' for Active; 'I' for Inactive)
REMARK    1  A    between atoms: S_6  and  C_1 
REMARK    2  A    between atoms: C_9  and  S_6 
REMARK    3  A    between atoms: C_7  and  C_9 
ROOT
ATOM      1  C   UNL d   1      44.077 -15.704  36.707  0.00  0.00     0.191 A 
ATOM      2  N   UNL d   1      44.241 -15.058  37.173  0.00  0.00    -0.220 NA
ATOM      3  N   UNL d   1      44.757 -15.955  36.344  0.00  0.00    -0.220 NA
ATOM      4  C   UNL d   1      45.037 -14.912  37.091  0.00  0.00     0.101 A 
ATOM      5  C   UNL d   1      45.358 -15.470  36.576  0.00  0.00     0.101 A 
ATOM      6  C   UNL d   1      45.517 -14.330  37.429  0.00  0.00     0.021 A 
ATOM      7  C   UNL d   1      46.155 -15.439  36.404  0.00  0.00     0.021 A 
ATOM      8  C   UNL d   1      46.646 -14.870  36.728  0.00  0.00     0.002 A 
ATOM      9  C   UNL d   1      46.325 -14.312  37.244  0.00  0.00     0.002 A 
ENDROOT
BRANCH   1  10
ATOM     10  S   UNL d   1      43.337 -16.049  36.620  0.00  0.00    -0.064 SA
BRANCH  10  11
ATOM     11  C   UNL d   1      42.705 -15.606  36.330  0.00  0.00     0.162 C 
BRANCH  11  12
ATOM     12  C   UNL d   1      41.922 -15.903  36.385  0.00  0.00     0.197 C 
ATOM     13  O   UNL d   1      41.794 -16.711  36.370  0.00  0.00    -0.647 OA
ATOM     14  O   UNL d   1      41.293 -15.372  36.451  0.00  0.00    -0.647 OA
ENDBRANCH  11  12
ENDBRANCH  10  11
ENDBRANCH   1  10
TORSDOF 3
ENDMDL
MODEL 2
REMARK VINA RESULT:       7.7      7.683      8.201
REMARK  3 active torsions:
REMARK  status: ('A' for Active; 'I' for Inactive)
REMARK    1  A    between atoms: S_6  and  C_1 
REMARK    2  A    between atoms: C_9  and  S_6 
REMARK    3  A    between atoms: C_7  and  C_9 
ROOT
ATOM      1  C   UNL d   1      45.335 -14.731  44.516  0.00  0.00     0.191 A 
ATOM      2  N   UNL d   1      44.952 -14.303  43.940  0.00  0.00    -0.220 NA
ATOM      3  N   UNL d   1      45.802 -14.234  44.955  0.00  0.00    -0.220 NA
ATOM      4  C   UNL d   1      45.191 -13.531  44.029  0.00  0.00     0.101 A 
ATOM      5  C   UNL d   1      45.720 -13.488  44.661  0.00  0.00     0.101 A 
ATOM      6  C   UNL d   1      44.989 -12.850  43.606  0.00  0.00     0.021 A 
ATOM      7  C   UNL d   1      46.040 -12.765  44.861  0.00  0.00     0.021 A 
ATOM      8  C   UNL d   1      45.853 -12.080  44.455  0.00  0.00     0.002 A 
ATOM      9  C   UNL d   1      45.324 -12.123  43.823  0.00  0.00     0.002 A 
ENDROOT
BRANCH   1  10
ATOM     10  S   UNL d   1      45.258 -15.539  44.635  0.00  0.00    -0.064 SA
BRANCH  10  11
ATOM     11  C   UNL d   1      45.924 -16.025  44.624  0.00  0.00     0.162 C 
BRANCH  11  12
ATOM     12  C   UNL d   1      45.849 -16.842  44.451  0.00  0.00     0.197 C 
ATOM     13  O   UNL d   1      45.417 -17.324  44.953  0.00  0.00    -0.647 OA
ATOM     14  O   UNL d   1      46.212 -17.147  43.775  0.00  0.00    -0.647 OA
ENDBRANCH  11  12
ENDBRANCH  10  11
ENDBRANCH   1  10
TORSDOF 3
ENDMDL
