MODEL 1
REMARK VINA RESULT:      17.6      0.000      0.000
REMARK  0 active torsions:
REMARK  status: ('A' for Active; 'I' for Inactive)
ROOT
ATOM      1  C   UNL d   1      59.168  49.706  50.383  0.00  0.00     0.086 A 
ATOM      2  S   UNL d   1      58.631  49.707  49.761  0.00  0.00    -0.081 SA
ATOM      3  C   UNL d   1      58.884  49.706  51.178  0.00  0.00     0.090 A 
ATOM      4  N   UNL d   1      58.075  49.705  51.319  0.00  0.00    -0.244 NA
ATOM      5  C   UNL d   1      57.824  49.707  49.903  0.00  0.00     0.047 A 
ATOM      6  C   UNL d   1      57.546  49.706  50.680  0.00  0.00     0.087 A 
ATOM      7  C   UNL d   1      59.993  49.707  50.248  0.00  0.00     0.203 A 
ATOM      8  O   UNL d   1      60.277  49.707  49.454  0.00  0.00    -0.286 OA
ATOM      9  C   UNL d   1      59.437  49.705  51.805  0.00  0.00     0.020 A 
ATOM     10  C   UNL d   1      60.529  49.706  50.869  0.00  0.00     0.043 A 
ATOM     11  C   UNL d   1      60.251  49.705  51.646  0.00  0.00     0.005 A 
ATOM     12  C   UNL d   1      57.287  49.707  49.282  0.00  0.00     0.008 A 
ATOM     13  C   UNL d   1      56.736  49.706  50.825  0.00  0.00     0.020 A 
ATOM     14  C   UNL d   1      56.472  49.707  49.444  0.00  0.00     0.001 A 
ATOM     15  C   UNL d   1      56.202  49.706  50.200  0.00  0.00     0.002 A 
ENDROOT
TORSDOF 0
ENDMDL
MODEL 2
REMARK VINA RESULT:      18.3      1.325      3.239
REMARK  0 active torsions:
REMARK  status: ('A' for Active; 'I' for Inactive)
ROOT
ATOM      1  C   UNL d   1      57.436  49.679  50.420  0.00  0.00     0.086 A 
ATOM      2  S   UNL d   1      58.029  49.686  50.987  0.00  0.00    -0.081 SA
ATOM      3  C   UNL d   1      57.643  49.672  49.601  0.00  0.00     0.090 A 
ATOM      4  N   UNL d   1      58.435  49.674  49.384  0.00  0.00    -0.244 NA
ATOM      5  C   UNL d   1      58.820  49.688  50.769  0.00  0.00     0.047 A 
ATOM      6  C   UNL d   1      59.022  49.681  49.970  0.00  0.00     0.087 A 
ATOM      7  C   UNL d   1      56.627  49.677  50.633  0.00  0.00     0.203 A 
ATOM      8  O   UNL d   1      56.421  49.684  51.450  0.00  0.00    -0.286 OA
ATOM      9  C   UNL d   1      57.033  49.665  49.029  0.00  0.00     0.020 A 
ATOM     10  C   UNL d   1      56.035  49.670  50.066  0.00  0.00     0.043 A 
ATOM     11  C   UNL d   1      56.237  49.663  49.266  0.00  0.00     0.005 A 
ATOM     12  C   UNL d   1      59.413  49.695  51.337  0.00  0.00     0.008 A 
ATOM     13  C   UNL d   1      59.814  49.683  49.748  0.00  0.00     0.020 A 
ATOM     14  C   UNL d   1      60.208  49.697  51.098  0.00  0.00     0.001 A 
ATOM     15  C   UNL d   1      60.405  49.690  50.319  0.00  0.00     0.002 A 
ENDROOT
TORSDOF 0
ENDMDL
