MODEL 1
REMARK VINA RESULT:      31.7      0.000      0.000
REMARK  6 active torsions:
REMARK  status: ('A' for Active; 'I' for Inactive)
REMARK    1  A    between atoms: C_7  and  C_1 
REMARK    2  A    between atoms: C_10  and  C_2 
REMARK    3  A    between atoms: C_8  and  C_7 
REMARK    4  A    between atoms: C_9  and  C_8 
REMARK    5  A    between atoms: C_13  and  C_9 
REMARK    6  A    between atoms: O_20  and  C_16 
ROOT
ATOM      1  C   UNL d   1      46.133 -17.367  43.190  0.00  0.00     0.097 A 
ATOM      2  C   UNL d   1      46.204 -18.176  43.046  0.00  0.00     0.009 A 
ATOM      3  C   UNL d   1      46.210 -16.829  42.576  0.00  0.00     0.282 A 
ATOM      4  C   UNL d   1      46.352 -18.440  42.278  0.00  0.00     0.019 A 
ATOM      5  N   UNL d   1      46.357 -17.095  41.812  0.00  0.00    -0.208 NA
ATOM      6  C   UNL d   1      46.428 -17.902  41.664  0.00  0.00     0.085 A 
ATOM      7  C   UNL d   1      46.422 -19.249  42.134  0.00  0.00     0.013 A 
ATOM      8  O   UNL d   1      46.132 -16.010  42.759  0.00  0.00    -0.265 OA
ATOM      9  C   UNL d   1      46.576 -18.168  40.900  0.00  0.00     0.020 A 
ATOM     10  C   UNL d   1      46.570 -19.513  41.366  0.00  0.00     0.058 A 
ATOM     11  C   UNL d   1      46.647 -18.975  40.752  0.00  0.00     0.013 A 
ATOM     12 CL   UNL d   1      46.646 -20.329  41.196  0.00  0.00    -0.082 Cl
ENDROOT
BRANCH   1  13
ATOM     13  C   UNL d   1      45.982 -17.068  43.968  0.00  0.00     0.200 C 
ATOM     14  O   UNL d   1      45.684 -17.568  44.542  0.00  0.00    -0.286 OA
BRANCH  13  15
ATOM     15  C   UNL d   1      46.137 -16.275  44.136  0.00  0.00     0.042 C 
BRANCH  15  16
ATOM     16  C   UNL d   1      45.715 -15.887  44.719  0.00  0.00     0.005 C 
BRANCH  16  17
ATOM     17  C   UNL d   1      45.745 -15.069  44.764  0.00  0.00     0.022 A 
ATOM     18  C   UNL d   1      45.047 -14.637  44.880  0.00  0.00     0.094 A 
ATOM     19  C   UNL d   1      45.072 -13.806  44.927  0.00  0.00     0.024 A 
ATOM     20  C   UNL d   1      45.793 -13.429  44.856  0.00  0.00     0.002 A 
ATOM     21  C   UNL d   1      46.514 -13.856  44.737  0.00  0.00     0.000 A 
ATOM     22  C   UNL d   1      46.476 -14.669  44.694  0.00  0.00     0.002 A 
BRANCH  18  23
ATOM     23  O   UNL d   1      44.310 -15.024  44.952  0.00  0.00    -0.328 OA
ATOM     24  C   UNL d   1      43.722 -14.888  44.414  0.00  0.00     0.181 C 
ENDBRANCH  18  23
ENDBRANCH  16  17
ENDBRANCH  15  16
ENDBRANCH  13  15
ENDBRANCH   1  13
BRANCH   2  25
ATOM     25  C   UNL d   1      46.126 -18.721  43.669  0.00  0.00     0.000 A 
ATOM     26  C   UNL d   1      46.643 -18.684  44.301  0.00  0.00     0.000 A 
ATOM     27  C   UNL d   1      46.565 -19.239  44.935  0.00  0.00     0.000 A 
ATOM     28  C   UNL d   1      45.973 -19.801  44.904  0.00  0.00     0.000 A 
ATOM     29  C   UNL d   1      45.470 -19.833  44.283  0.00  0.00     0.000 A 
ATOM     30  C   UNL d   1      45.532 -19.294  43.649  0.00  0.00     0.000 A 
ENDBRANCH   2  25
TORSDOF 6
ENDMDL
