MODEL 1
REMARK VINA RESULT:      18.2      0.000      0.000
REMARK  4 active torsions:
REMARK  status: ('A' for Active; 'I' for Inactive)
REMARK    1  A    between atoms: C_5  and  S_1 
REMARK    2  A    between atoms: N_8  and  S_1 
REMARK    3  A    between atoms: C_6  and  C_14 
REMARK    4  A    between atoms: C_14  and  N_8 
ROOT
ATOM      1  N   UNL d   1      13.957  11.779  -2.347  0.00  0.00    -0.155 NA
ENDROOT
BRANCH   1   2
ATOM      2  S   UNL d   1      14.297  12.192  -1.726  0.00  0.00     0.291 S 
ATOM      3  O   UNL d   1      14.996  12.219  -2.170  0.00  0.00    -0.198 OA
ATOM      4  O   UNL d   1      13.596  12.158  -1.293  0.00  0.00    -0.198 OA
BRANCH   2   5
ATOM      5  C   UNL d   1      14.649  12.615  -1.090  0.00  0.00     0.135 A 
ATOM      6  S   UNL d   1      15.446  12.591  -0.877  0.00  0.00    -0.073 SA
ATOM      7  C   UNL d   1      15.556  13.098  -0.211  0.00  0.00     0.036 A 
ATOM      8  C   UNL d   1      14.812  13.432  -0.021  0.00  0.00     0.008 A 
ATOM      9  C   UNL d   1      14.242  13.136  -0.564  0.00  0.00     0.020 A 
ENDBRANCH   2   5
ENDBRANCH   1   2
BRANCH   1  10
ATOM     10  C   UNL d   1      13.261  12.048  -2.687  0.00  0.00     0.133 C 
BRANCH  10  11
ATOM     11  C   UNL d   1      13.249  12.290  -3.470  0.00  0.00     0.121 A 
ATOM     12  N   UNL d   1      13.213  13.064  -3.738  0.00  0.00    -0.219 NA
ATOM     13  C   UNL d   1      13.212  13.055  -4.560  0.00  0.00     0.180 A 
ATOM     14  S   UNL d   1      13.190  13.522  -5.234  0.00  0.00    -0.048 SA
ATOM     15  N   UNL d   1      13.249  12.259  -4.806  0.00  0.00    -0.282 N 
ATOM     16  C   UNL d   1      13.212  13.023  -5.892  0.00  0.00     0.057 A 
ATOM     17  C   UNL d   1      13.248  12.252  -5.622  0.00  0.00     0.089 A 
ATOM     18  C   UNL d   1      13.271  11.791  -4.127  0.00  0.00     0.103 A 
ENDBRANCH  10  11
ENDBRANCH   1  10
TORSDOF 4
ENDMDL
