MODEL 1
REMARK VINA RESULT:      -3.3      0.000      0.000
REMARK  4 active torsions:
REMARK  status: ('A' for Active; 'I' for Inactive)
REMARK       I    between atoms: C_3  and  N_7 
REMARK    1  A    between atoms: C_6  and  C_3 
REMARK    2  A    between atoms: C_8  and  C_6 
REMARK    3  A    between atoms: N_7  and  C_9 
REMARK    4  A    between atoms: C_13  and  C_8 
ROOT
ATOM      1  C   UNL d   1      32.927  20.348 -21.718  0.00  0.00     0.279 C 
ATOM      2  N   UNL d   1      32.688  21.139 -21.665  0.00  0.00    -0.207 NA
ATOM      3  O   UNL d   1      33.241  19.974 -21.061  0.00  0.00    -0.265 OA
ENDROOT
BRANCH   1   4
ATOM      4  C   UNL d   1      32.847  19.944 -22.432  0.00  0.00     0.062 C 
BRANCH   4   5
ATOM      5  C   UNL d   1      33.087  19.161 -22.492  0.00  0.00     0.005 C 
BRANCH   5   6
ATOM      6  C   UNL d   1      32.959  18.737 -23.180  0.00  0.00     0.000 A 
ATOM      7  C   UNL d   1      32.551  18.017 -23.157  0.00  0.00     0.000 A 
ATOM      8  C   UNL d   1      32.429  17.601 -23.849  0.00  0.00     0.000 A 
ATOM      9  C   UNL d   1      32.706  17.888 -24.564  0.00  0.00     0.000 A 
ATOM     10  C   UNL d   1      33.112  18.601 -24.593  0.00  0.00     0.000 A 
ATOM     11  C   UNL d   1      33.241  19.031 -23.899  0.00  0.00     0.000 A 
ENDBRANCH   5   6
ENDBRANCH   4   5
ENDBRANCH   1   4
BRANCH   2  12
ATOM     12  C   UNL d   1      32.768  21.540 -20.955  0.00  0.00     0.097 A 
ATOM     13  C   UNL d   1      32.372  22.181 -21.295  0.00  0.00     0.118 A 
ATOM     14  S   UNL d   1      32.317  22.781 -20.726  0.00  0.00     0.213 S 
ATOM     15  O   UNL d   1      31.981  22.962 -21.455  0.00  0.00    -0.217 OA
ATOM     16  O   UNL d   1      32.300  23.331 -20.109  0.00  0.00    -0.217 OA
ATOM     17  C   UNL d   1      32.680  22.508 -20.033  0.00  0.00     0.100 A 
ATOM     18  C   UNL d   1      32.958  21.747 -20.170  0.00  0.00     0.032 A 
ENDBRANCH   2  12
TORSDOF 4
ENDMDL
MODEL 2
REMARK VINA RESULT:      -3.2      1.948      4.627
REMARK  4 active torsions:
REMARK  status: ('A' for Active; 'I' for Inactive)
REMARK       I    between atoms: C_3  and  N_7 
REMARK    1  A    between atoms: C_6  and  C_3 
REMARK    2  A    between atoms: C_8  and  C_6 
REMARK    3  A    between atoms: N_7  and  C_9 
REMARK    4  A    between atoms: C_13  and  C_8 
ROOT
ATOM      1  C   UNL d   1      33.092  20.086 -21.807  0.00  0.00     0.279 C 
ATOM      2  N   UNL d   1      33.029  19.823 -22.589  0.00  0.00    -0.207 NA
ATOM      3  O   UNL d   1      33.241  19.549 -21.208  0.00  0.00    -0.265 OA
ENDROOT
BRANCH   1   4
ATOM      4  C   UNL d   1      33.005  20.889 -21.638  0.00  0.00     0.062 C 
BRANCH   4   5
ATOM      5  C   UNL d   1      32.661  21.127 -20.931  0.00  0.00     0.005 C 
BRANCH   5   6
ATOM      6  C   UNL d   1      32.602  21.921 -20.742  0.00  0.00     0.000 A 
ATOM      7  C   UNL d   1      32.084  22.411 -21.161  0.00  0.00     0.000 A 
ATOM      8  C   UNL d   1      32.032  23.203 -20.965  0.00  0.00     0.000 A 
ATOM      9  C   UNL d   1      32.487  23.515 -20.359  0.00  0.00     0.000 A 
ATOM     10  C   UNL d   1      33.002  23.032 -19.941  0.00  0.00     0.000 A 
ATOM     11  C   UNL d   1      33.063  22.230 -20.130  0.00  0.00     0.000 A 
ENDBRANCH   5   6
ENDBRANCH   4   5
ENDBRANCH   1   4
BRANCH   2  12
ATOM     12  C   UNL d   1      33.116  19.025 -22.756  0.00  0.00     0.097 A 
ATOM     13  C   UNL d   1      32.976  19.197 -23.552  0.00  0.00     0.118 A 
ATOM     14  S   UNL d   1      33.013  18.487 -23.979  0.00  0.00     0.213 S 
ATOM     15  O   UNL d   1      32.854  19.156 -24.431  0.00  0.00    -0.217 OA
ATOM     16  O   UNL d   1      33.065  17.743 -24.336  0.00  0.00    -0.217 OA
ATOM     17  C   UNL d   1      33.176  17.876 -23.443  0.00  0.00     0.100 A 
ATOM     18  C   UNL d   1      33.240  18.203 -22.691  0.00  0.00     0.032 A 
ENDBRANCH   2  12
TORSDOF 4
ENDMDL
MODEL 3
REMARK VINA RESULT:      -3.1      2.471      4.768
REMARK  4 active torsions:
REMARK  status: ('A' for Active; 'I' for Inactive)
REMARK       I    between atoms: C_3  and  N_7 
REMARK    1  A    between atoms: C_6  and  C_3 
REMARK    2  A    between atoms: C_8  and  C_6 
REMARK    3  A    between atoms: N_7  and  C_9 
REMARK    4  A    between atoms: C_13  and  C_8 
ROOT
ATOM      1  C   UNL d   1      32.969  19.121 -22.663  0.00  0.00     0.279 C 
ATOM      2  N   UNL d   1      32.646  18.832 -23.368  0.00  0.00    -0.207 NA
ATOM      3  O   UNL d   1      33.241  18.597 -22.096  0.00  0.00    -0.265 OA
ENDROOT
BRANCH   1   4
ATOM      4  C   UNL d   1      33.014  19.935 -22.537  0.00  0.00     0.062 C 
BRANCH   4   5
ATOM      5  C   UNL d   1      33.125  20.229 -21.779  0.00  0.00     0.005 C 
BRANCH   5   6
ATOM      6  C   UNL d   1      32.873  20.983 -21.583  0.00  0.00     0.000 A 
ATOM      7  C   UNL d   1      33.143  21.637 -22.011  0.00  0.00     0.000 A 
ATOM      8  C   UNL d   1      32.885  22.386 -21.808  0.00  0.00     0.000 A 
ATOM      9  C   UNL d   1      32.364  22.494 -21.186  0.00  0.00     0.000 A 
ATOM     10  C   UNL d   1      32.093  21.848 -20.758  0.00  0.00     0.000 A 
ATOM     11  C   UNL d   1      32.347  21.086 -20.954  0.00  0.00     0.000 A 
ENDBRANCH   5   6
ENDBRANCH   4   5
ENDBRANCH   1   4
BRANCH   2  12
ATOM     12  C   UNL d   1      32.601  18.023 -23.492  0.00  0.00     0.097 A 
ATOM     13  C   UNL d   1      32.335  18.176 -24.260  0.00  0.00     0.118 A 
ATOM     14  S   UNL d   1      32.204  17.449 -24.635  0.00  0.00     0.213 S 
ATOM     15  O   UNL d   1      32.045  18.112 -25.096  0.00  0.00    -0.217 OA
ATOM     16  O   UNL d   1      32.095  16.689 -24.944  0.00  0.00    -0.217 OA
ATOM     17  C   UNL d   1      32.389  16.847 -24.097  0.00  0.00     0.100 A 
ATOM     18  C   UNL d   1      32.634  17.196 -23.394  0.00  0.00     0.032 A 
ENDBRANCH   2  12
TORSDOF 4
ENDMDL
MODEL 4
REMARK VINA RESULT:      -3.0      1.177      1.731
REMARK  4 active torsions:
REMARK  status: ('A' for Active; 'I' for Inactive)
REMARK       I    between atoms: C_3  and  N_7 
REMARK    1  A    between atoms: C_6  and  C_3 
REMARK    2  A    between atoms: C_8  and  C_6 
REMARK    3  A    between atoms: N_7  and  C_9 
REMARK    4  A    between atoms: C_13  and  C_8 
ROOT
ATOM      1  C   UNL d   1      33.007  19.552 -22.773  0.00  0.00     0.279 C 
ATOM      2  N   UNL d   1      32.909  19.954 -22.057  0.00  0.00    -0.207 NA
ATOM      3  O   UNL d   1      33.236  19.964 -23.442  0.00  0.00    -0.265 OA
ENDROOT
BRANCH   1   4
ATOM      4  C   UNL d   1      32.874  18.738 -22.807  0.00  0.00     0.062 C 
BRANCH   4   5
ATOM      5  C   UNL d   1      32.812  18.361 -23.534  0.00  0.00     0.005 C 
BRANCH   5   6
ATOM      6  C   UNL d   1      32.561  17.583 -23.580  0.00  0.00     0.000 A 
ATOM      7  C   UNL d   1      31.773  17.410 -23.763  0.00  0.00     0.000 A 
ATOM      8  C   UNL d   1      31.532  16.630 -23.807  0.00  0.00     0.000 A 
ATOM      9  C   UNL d   1      32.062  16.020 -23.671  0.00  0.00     0.000 A 
ATOM     10  C   UNL d   1      32.845  16.187 -23.489  0.00  0.00     0.000 A 
ATOM     11  C   UNL d   1      33.100  16.972 -23.442  0.00  0.00     0.000 A 
ENDBRANCH   5   6
ENDBRANCH   4   5
ENDBRANCH   1   4
BRANCH   2  12
ATOM     12  C   UNL d   1      33.042  20.762 -22.024  0.00  0.00     0.097 A 
ATOM     13  C   UNL d   1      32.816  20.746 -21.228  0.00  0.00     0.118 A 
ATOM     14  S   UNL d   1      32.869  21.518 -20.931  0.00  0.00     0.213 S 
ATOM     15  O   UNL d   1      32.618  20.953 -20.388  0.00  0.00    -0.217 OA
ATOM     16  O   UNL d   1      32.945  22.311 -20.706  0.00  0.00    -0.217 OA
ATOM     17  C   UNL d   1      33.127  22.011 -21.546  0.00  0.00     0.100 A 
ATOM     18  C   UNL d   1      33.234  21.549 -22.218  0.00  0.00     0.032 A 
ENDBRANCH   2  12
TORSDOF 4
ENDMDL
MODEL 5
REMARK VINA RESULT:      -2.5      3.490      5.293
REMARK  4 active torsions:
REMARK  status: ('A' for Active; 'I' for Inactive)
REMARK       I    between atoms: C_3  and  N_7 
REMARK    1  A    between atoms: C_6  and  C_3 
REMARK    2  A    between atoms: C_8  and  C_6 
REMARK    3  A    between atoms: N_7  and  C_9 
REMARK    4  A    between atoms: C_13  and  C_8 
ROOT
ATOM      1  C   UNL d   1      32.229  17.448 -23.630  0.00  0.00     0.279 C 
ATOM      2  N   UNL d   1      31.448  17.298 -23.856  0.00  0.00    -0.207 NA
ATOM      3  O   UNL d   1      32.739  16.824 -23.491  0.00  0.00    -0.265 OA
ENDROOT
BRANCH   1   4
ATOM      4  C   UNL d   1      32.488  18.227 -23.545  0.00  0.00     0.062 C 
BRANCH   4   5
ATOM      5  C   UNL d   1      33.079  18.409 -23.006  0.00  0.00     0.005 C 
BRANCH   5   6
ATOM      6  C   UNL d   1      33.133  19.160 -22.682  0.00  0.00     0.000 A 
ATOM      7  C   UNL d   1      33.133  19.825 -23.174  0.00  0.00     0.000 A 
ATOM      8  C   UNL d   1      33.187  20.570 -22.842  0.00  0.00     0.000 A 
ATOM      9  C   UNL d   1      33.241  20.664 -22.030  0.00  0.00     0.000 A 
ATOM     10  C   UNL d   1      33.241  20.006 -21.539  0.00  0.00     0.000 A 
ATOM     11  C   UNL d   1      33.187  19.248 -21.863  0.00  0.00     0.000 A 
ENDBRANCH   5   6
ENDBRANCH   4   5
ENDBRANCH   1   4
BRANCH   2  12
ATOM     12  C   UNL d   1      31.192  16.524 -23.940  0.00  0.00     0.097 A 
ATOM     13  C   UNL d   1      30.448  16.814 -24.156  0.00  0.00     0.118 A 
ATOM     14  S   UNL d   1      29.954  16.167 -24.309  0.00  0.00     0.213 S 
ATOM     15  O   UNL d   1      29.601  16.903 -24.405  0.00  0.00    -0.217 OA
ATOM     16  O   UNL d   1      29.522  15.474 -24.443  0.00  0.00    -0.217 OA
ATOM     17  C   UNL d   1      30.395  15.475 -24.186  0.00  0.00     0.100 A 
ATOM     18  C   UNL d   1      31.155  15.692 -23.960  0.00  0.00     0.032 A 
ENDBRANCH   2  12
TORSDOF 4
ENDMDL
MODEL 6
REMARK VINA RESULT:      -1.4      3.584      4.965
REMARK  4 active torsions:
REMARK  status: ('A' for Active; 'I' for Inactive)
REMARK       I    between atoms: C_3  and  N_7 
REMARK    1  A    between atoms: C_6  and  C_3 
REMARK    2  A    between atoms: C_8  and  C_6 
REMARK    3  A    between atoms: N_7  and  C_9 
REMARK    4  A    between atoms: C_13  and  C_8 
ROOT
ATOM      1  C   UNL d   1      31.117  16.908 -23.733  0.00  0.00     0.279 C 
ATOM      2  N   UNL d   1      31.445  17.544 -24.148  0.00  0.00    -0.207 NA
ATOM      3  O   UNL d   1      31.395  16.725 -22.985  0.00  0.00    -0.265 OA
ENDROOT
BRANCH   1   4
ATOM      4  C   UNL d   1      30.513  16.463 -24.076  0.00  0.00     0.062 C 
BRANCH   4   5
ATOM      5  C   UNL d   1      30.001  16.030 -23.603  0.00  0.00     0.005 C 
BRANCH   5   6
ATOM      6  C   UNL d   1      29.250  15.838 -23.868  0.00  0.00     0.000 A 
ATOM      7  C   UNL d   1      29.097  15.783 -24.680  0.00  0.00     0.000 A 
ATOM      8  C   UNL d   1      28.344  15.591 -24.935  0.00  0.00     0.000 A 
ATOM      9  C   UNL d   1      27.743  15.453 -24.397  0.00  0.00     0.000 A 
ATOM     10  C   UNL d   1      27.890  15.507 -23.591  0.00  0.00     0.000 A 
ATOM     11  C   UNL d   1      28.647  15.700 -23.321  0.00  0.00     0.000 A 
ENDBRANCH   5   6
ENDBRANCH   4   5
ENDBRANCH   1   4
BRANCH   2  12
ATOM     12  C   UNL d   1      32.045  17.986 -23.806  0.00  0.00     0.097 A 
ATOM     13  C   UNL d   1      32.055  18.460 -24.484  0.00  0.00     0.118 A 
ATOM     14  S   UNL d   1      32.635  19.042 -24.381  0.00  0.00     0.213 S 
ATOM     15  O   UNL d   1      32.231  19.077 -25.097  0.00  0.00    -0.217 OA
ATOM     16  O   UNL d   1      33.229  19.592 -24.208  0.00  0.00    -0.217 OA
ATOM     17  C   UNL d   1      32.984  18.927 -23.638  0.00  0.00     0.100 A 
ATOM     18  C   UNL d   1      32.623  18.279 -23.283  0.00  0.00     0.032 A 
ENDBRANCH   2  12
TORSDOF 4
ENDMDL
