MODEL 1
REMARK VINA RESULT:      38.6      0.000      0.000
REMARK  2 active torsions:
REMARK  status: ('A' for Active; 'I' for Inactive)
REMARK    1  A    between atoms: C_12  and  N_1 
REMARK    2  A    between atoms: N_6  and  C_13 
ROOT
ATOM      1  N   UNL d   1      13.893  12.804  -2.502  0.00  0.00    -0.242 N 
ATOM      2  C   UNL d   1      13.509  12.190  -1.992  0.00  0.00     0.263 A 
ATOM      3  C   UNL d   1      14.528  13.088  -2.136  0.00  0.00     0.263 A 
ATOM      4  C   UNL d   1      14.646  12.725  -1.381  0.00  0.00     0.039 A 
ATOM      5  C   UNL d   1      14.095  12.205  -1.247  0.00  0.00     0.039 A 
ATOM      6  C   UNL d   1      14.061  11.780  -0.589  0.00  0.00     0.049 A 
ATOM      7  C   UNL d   1      15.218  12.828  -0.800  0.00  0.00     0.049 A 
ATOM      8  C   UNL d   1      14.609  11.869  -0.014  0.00  0.00    -0.026 A 
ATOM      9  C   UNL d   1      15.198  12.407  -0.129  0.00  0.00    -0.026 A 
ATOM     10  C   UNL d   1      14.454  12.370  -1.047  0.00  0.00     0.018 A 
ATOM     11  O   UNL d   1      15.029  13.666  -2.434  0.00  0.00    -0.267 OA
ATOM     12  O   UNL d   1      12.928  11.779  -2.076  0.00  0.00    -0.267 OA
ENDROOT
BRANCH   1  13
ATOM     13  C   UNL d   1      13.664  13.071  -3.245  0.00  0.00     0.070 A 
ATOM     14  C   UNL d   1      13.445  12.528  -3.831  0.00  0.00     0.019 A 
ATOM     15  C   UNL d   1      13.212  12.791  -4.584  0.00  0.00     0.018 A 
ATOM     16  C   UNL d   1      13.199  13.613  -4.753  0.00  0.00     0.096 A 
ATOM     17  C   UNL d   1      13.420  14.144  -4.162  0.00  0.00     0.018 A 
ATOM     18  C   UNL d   1      13.652  13.873  -3.408  0.00  0.00     0.019 A 
BRANCH  16  19
ATOM     19  N   UNL d   1      12.972  13.884  -5.492  0.00  0.00     0.037 NA
ATOM     20  O   UNL d   1      13.424  13.240  -5.271  0.00  0.00    -0.084 OA
ATOM     21  O   UNL d   1      12.813  14.045  -6.333  0.00  0.00    -0.084 OA
ENDBRANCH  16  19
ENDBRANCH   1  13
TORSDOF 2
ENDMDL
MODEL 2
REMARK VINA RESULT:      39.9      1.608      3.707
REMARK  2 active torsions:
REMARK  status: ('A' for Active; 'I' for Inactive)
REMARK    1  A    between atoms: C_12  and  N_1 
REMARK    2  A    between atoms: N_6  and  C_13 
ROOT
ATOM      1  N   UNL d   1      13.989  13.455  -2.824  0.00  0.00    -0.242 N 
ATOM      2  C   UNL d   1      13.858  12.579  -2.797  0.00  0.00     0.263 A 
ATOM      3  C   UNL d   1      13.718  13.739  -3.504  0.00  0.00     0.263 A 
ATOM      4  C   UNL d   1      13.391  13.131  -3.992  0.00  0.00     0.039 A 
ATOM      5  C   UNL d   1      13.444  12.450  -3.639  0.00  0.00     0.039 A 
ATOM      6  C   UNL d   1      13.185  11.782  -3.961  0.00  0.00     0.049 A 
ATOM      7  C   UNL d   1      13.046  13.146  -4.738  0.00  0.00     0.049 A 
ATOM      8  C   UNL d   1      12.848  11.779  -4.684  0.00  0.00    -0.026 A 
ATOM      9  C   UNL d   1      12.779  12.480  -5.077  0.00  0.00    -0.026 A 
ATOM     10  C   UNL d   1      13.294  12.617  -4.021  0.00  0.00     0.018 A 
ATOM     11  O   UNL d   1      13.741  14.527  -3.732  0.00  0.00    -0.267 OA
ATOM     12  O   UNL d   1      14.005  12.078  -2.306  0.00  0.00    -0.267 OA
ENDROOT
BRANCH   1  13
ATOM     13  C   UNL d   1      14.333  13.939  -2.256  0.00  0.00     0.070 A 
ATOM     14  C   UNL d   1      14.602  13.616  -1.542  0.00  0.00     0.019 A 
ATOM     15  C   UNL d   1      14.951  14.100  -0.964  0.00  0.00     0.018 A 
ATOM     16  C   UNL d   1      15.031  14.924  -1.103  0.00  0.00     0.096 A 
ATOM     17  C   UNL d   1      14.759  15.235  -1.817  0.00  0.00     0.018 A 
ATOM     18  C   UNL d   1      14.410  14.743  -2.393  0.00  0.00     0.019 A 
BRANCH  16  19
ATOM     19  N   UNL d   1      15.373  15.411  -0.541  0.00  0.00     0.037 NA
ATOM     20  O   UNL d   1      14.850  15.575  -1.148  0.00  0.00    -0.084 OA
ATOM     21  O   UNL d   1      15.653  16.046  -0.015  0.00  0.00    -0.084 OA
ENDBRANCH  16  19
ENDBRANCH   1  13
TORSDOF 2
ENDMDL
