MODEL 1
REMARK VINA RESULT:       8.0      0.000      0.000
REMARK  3 active torsions:
REMARK  status: ('A' for Active; 'I' for Inactive)
REMARK    1  A    between atoms: S_6  and  C_1 
REMARK    2  A    between atoms: C_9  and  S_6 
REMARK    3  A    between atoms: C_7  and  C_9 
ROOT
ATOM      1  C   UNL d   1     -51.917  24.651  33.308  0.00  0.00     0.191 A 
ATOM      2  N   UNL d   1     -51.104  24.636  33.309  0.00  0.00    -0.220 NA
ATOM      3  N   UNL d   1     -52.173  25.420  33.310  0.00  0.00    -0.220 NA
ATOM      4  C   UNL d   1     -50.860  25.412  33.311  0.00  0.00     0.101 A 
ATOM      5  C   UNL d   1     -51.526  25.900  33.312  0.00  0.00     0.101 A 
ATOM      6  C   UNL d   1     -50.102  25.740  33.313  0.00  0.00     0.021 A 
ATOM      7  C   UNL d   1     -51.424  26.709  33.314  0.00  0.00     0.021 A 
ATOM      8  C   UNL d   1     -50.681  27.052  33.315  0.00  0.00     0.002 A 
ATOM      9  C   UNL d   1     -50.016  26.565  33.315  0.00  0.00     0.002 A 
ENDROOT
BRANCH   1  10
ATOM     10  S   UNL d   1     -52.402  23.988  33.306  0.00  0.00    -0.064 SA
BRANCH  10  11
ATOM     11  C   UNL d   1     -53.222  24.074  33.317  0.00  0.00     0.162 C 
BRANCH  11  12
ATOM     12  C   UNL d   1     -53.701  23.506  33.706  0.00  0.00     0.197 C 
ATOM     13  O   UNL d   1     -53.516  23.275  34.469  0.00  0.00    -0.647 OA
ATOM     14  O   UNL d   1     -54.353  23.188  33.310  0.00  0.00    -0.647 OA
ENDBRANCH  11  12
ENDBRANCH  10  11
ENDBRANCH   1  10
TORSDOF 3
ENDMDL
MODEL 2
REMARK VINA RESULT:      11.0      2.309      3.536
REMARK  3 active torsions:
REMARK  status: ('A' for Active; 'I' for Inactive)
REMARK    1  A    between atoms: S_6  and  C_1 
REMARK    2  A    between atoms: C_9  and  S_6 
REMARK    3  A    between atoms: C_7  and  C_9 
ROOT
ATOM      1  C   UNL d   1     -51.630  25.276  33.308  0.00  0.00     0.191 A 
ATOM      2  N   UNL d   1     -51.533  24.468  33.306  0.00  0.00    -0.220 NA
ATOM      3  N   UNL d   1     -52.421  25.452  33.315  0.00  0.00    -0.220 NA
ATOM      4  C   UNL d   1     -52.280  24.146  33.310  0.00  0.00     0.101 A 
ATOM      5  C   UNL d   1     -52.833  24.758  33.316  0.00  0.00     0.101 A 
ATOM      6  C   UNL d   1     -52.528  23.358  33.310  0.00  0.00     0.021 A 
ATOM      7  C   UNL d   1     -53.627  24.574  33.321  0.00  0.00     0.021 A 
ATOM      8  C   UNL d   1     -53.893  23.800  33.321  0.00  0.00     0.002 A 
ATOM      9  C   UNL d   1     -53.340  23.188  33.315  0.00  0.00     0.002 A 
ENDROOT
BRANCH   1  10
ATOM     10  S   UNL d   1     -51.021  25.826  33.306  0.00  0.00    -0.064 SA
BRANCH  10  11
ATOM     11  C   UNL d   1     -51.138  26.576  33.627  0.00  0.00     0.162 C 
BRANCH  11  12
ATOM     12  C   UNL d   1     -50.597  27.196  33.460  0.00  0.00     0.197 C 
ATOM     13  O   UNL d   1     -49.809  27.020  33.330  0.00  0.00    -0.647 OA
ATOM     14  O   UNL d   1     -50.872  27.974  33.431  0.00  0.00    -0.647 OA
ENDBRANCH  11  12
ENDBRANCH  10  11
ENDBRANCH   1  10
TORSDOF 3
ENDMDL
