MODEL 1
REMARK VINA RESULT:      -9.7      0.000      0.000
REMARK  3 active torsions:
REMARK  status: ('A' for Active; 'I' for Inactive)
REMARK    1  A    between atoms: C_9  and  S_1 
REMARK    2  A    between atoms: S_2  and  C_8 
REMARK    3  A    between atoms: N_14  and  C_5 
ROOT
ATOM      1  C   UNL d   1      52.860  33.465  53.866  0.00  0.00     0.021 A 
ATOM      2  C   UNL d   1      52.794  32.174  53.462  0.00  0.00     0.021 A 
ATOM      3  C   UNL d   1      52.435  32.935  53.439  0.00  0.00     0.111 A 
ATOM      4  C   UNL d   1      53.463  32.267  53.928  0.00  0.00     0.002 A 
ATOM      5  C   UNL d   1      53.536  33.044  54.193  0.00  0.00     0.002 A 
ATOM      6  C   UNL d   1      53.061  30.791  53.251  0.00  0.00     0.107 A 
ATOM      7  C   UNL d   1      53.340  34.642  54.511  0.00  0.00     0.107 A 
ATOM      8  C   UNL d   1      52.588  31.464  53.129  0.00  0.00     0.015 A 
ATOM      9  C   UNL d   1      52.760  34.254  54.022  0.00  0.00     0.015 A 
ATOM     10  C   UNL d   1      54.077  33.429  54.656  0.00  0.00     0.001 A 
ATOM     11  C   UNL d   1      53.944  31.569  54.049  0.00  0.00     0.001 A 
ATOM     12  C   UNL d   1      53.988  34.226  54.820  0.00  0.00     0.013 A 
ATOM     13  C   UNL d   1      53.738  30.866  53.717  0.00  0.00     0.013 A 
ENDROOT
BRANCH   6  14
ATOM     14  S   UNL d   1      52.826  30.061  52.893  0.00  0.00     0.302 S 
ATOM     15  O   UNL d   1      53.066  30.361  52.156  0.00  0.00    -0.197 OA
ATOM     16  O   UNL d   1      52.577  29.740  53.645  0.00  0.00    -0.197 OA
ATOM     17  N   UNL d   1      52.591  29.327  52.529  0.00  0.00    -0.043 N 
ENDBRANCH   6  14
BRANCH   3  18
ATOM     18  N   UNL d   1      51.712  33.194  53.036  0.00  0.00    -0.096 NA
ATOM     19  O   UNL d   1      50.965  33.042  53.370  0.00  0.00    -0.061 OA
ENDBRANCH   3  18
BRANCH   7  20
ATOM     20  S   UNL d   1      53.211  35.488  54.662  0.00  0.00     0.302 S 
ATOM     21  O   UNL d   1      52.957  35.255  55.448  0.00  0.00    -0.197 OA
ATOM     22  O   UNL d   1      53.470  35.669  53.873  0.00  0.00    -0.197 OA
ATOM     23  N   UNL d   1      53.082  36.271  54.827  0.00  0.00    -0.043 N 
ENDBRANCH   7  20
TORSDOF 3
ENDMDL
MODEL 2
REMARK VINA RESULT:      -9.7      0.059      4.184
REMARK  3 active torsions:
REMARK  status: ('A' for Active; 'I' for Inactive)
REMARK    1  A    between atoms: C_9  and  S_1 
REMARK    2  A    between atoms: S_2  and  C_8 
REMARK    3  A    between atoms: N_14  and  C_5 
ROOT
ATOM      1  C   UNL d   1      52.764  32.147  53.444  0.00  0.00     0.021 A 
ATOM      2  C   UNL d   1      52.887  33.422  53.883  0.00  0.00     0.021 A 
ATOM      3  C   UNL d   1      52.432  32.878  53.430  0.00  0.00     0.111 A 
ATOM      4  C   UNL d   1      53.515  32.984  54.175  0.00  0.00     0.002 A 
ATOM      5  C   UNL d   1      53.473  32.199  53.928  0.00  0.00     0.002 A 
ATOM      6  C   UNL d   1      53.344  34.612  54.518  0.00  0.00     0.107 A 
ATOM      7  C   UNL d   1      53.055  30.765  53.249  0.00  0.00     0.107 A 
ATOM      8  C   UNL d   1      52.792  34.211  54.041  0.00  0.00     0.015 A 
ATOM      9  C   UNL d   1      52.554  31.440  53.107  0.00  0.00     0.015 A 
ATOM     10  C   UNL d   1      53.937  31.547  54.051  0.00  0.00     0.001 A 
ATOM     11  C   UNL d   1      54.079  33.405  54.665  0.00  0.00     0.001 A 
ATOM     12  C   UNL d   1      53.737  30.827  53.717  0.00  0.00     0.013 A 
ATOM     13  C   UNL d   1      53.982  34.188  54.821  0.00  0.00     0.013 A 
ENDROOT
BRANCH   6  14
ATOM     14  S   UNL d   1      53.224  35.437  54.670  0.00  0.00     0.302 S 
ATOM     15  O   UNL d   1      53.012  35.248  55.451  0.00  0.00    -0.197 OA
ATOM     16  O   UNL d   1      53.439  35.643  53.869  0.00  0.00    -0.197 OA
ATOM     17  N   UNL d   1      53.102  36.265  54.825  0.00  0.00    -0.043 N 
ENDBRANCH   6  14
BRANCH   3  18
ATOM     18  N   UNL d   1      51.700  33.005  52.982  0.00  0.00    -0.096 NA
ATOM     19  O   UNL d   1      50.971  33.073  53.376  0.00  0.00    -0.061 OA
ENDBRANCH   3  18
BRANCH   7  20
ATOM     20  S   UNL d   1      52.808  30.019  52.877  0.00  0.00     0.302 S 
ATOM     21  O   UNL d   1      53.084  30.357  52.139  0.00  0.00    -0.197 OA
ATOM     22  O   UNL d   1      52.549  29.728  53.633  0.00  0.00    -0.197 OA
ATOM     23  N   UNL d   1      52.586  29.333  52.507  0.00  0.00    -0.043 N 
ENDBRANCH   7  20
TORSDOF 3
ENDMDL
MODEL 3
REMARK VINA RESULT:      -9.3      2.486      3.347
REMARK  3 active torsions:
REMARK  status: ('A' for Active; 'I' for Inactive)
REMARK    1  A    between atoms: C_9  and  S_1 
REMARK    2  A    between atoms: S_2  and  C_8 
REMARK    3  A    between atoms: N_14  and  C_5 
ROOT
ATOM      1  C   UNL d   1      53.160  34.190  54.087  0.00  0.00     0.021 A 
ATOM      2  C   UNL d   1      51.973  34.358  53.455  0.00  0.00     0.021 A 
ATOM      3  C   UNL d   1      52.644  34.734  53.798  0.00  0.00     0.111 A 
ATOM      4  C   UNL d   1      52.106  33.554  53.551  0.00  0.00     0.002 A 
ATOM      5  C   UNL d   1      52.822  33.413  53.933  0.00  0.00     0.002 A 
ATOM      6  C   UNL d   1      50.726  34.135  52.804  0.00  0.00     0.107 A 
ATOM      7  C   UNL d   1      54.271  33.535  54.694  0.00  0.00     0.107 A 
ATOM      8  C   UNL d   1      51.309  34.652  53.096  0.00  0.00     0.015 A 
ATOM      9  C   UNL d   1      53.875  34.254  54.462  0.00  0.00     0.015 A 
ATOM     10  C   UNL d   1      53.213  32.742  54.161  0.00  0.00     0.001 A 
ATOM     11  C   UNL d   1      51.501  33.028  53.248  0.00  0.00     0.001 A 
ATOM     12  C   UNL d   1      53.936  32.792  54.541  0.00  0.00     0.013 A 
ATOM     13  C   UNL d   1      50.843  33.323  52.891  0.00  0.00     0.013 A 
ENDROOT
BRANCH   6  14
ATOM     14  S   UNL d   1      50.041  34.466  52.432  0.00  0.00     0.302 S 
ATOM     15  O   UNL d   1      50.370  34.280  51.692  0.00  0.00    -0.197 OA
ATOM     16  O   UNL d   1      49.692  34.662  53.187  0.00  0.00    -0.197 OA
ATOM     17  N   UNL d   1      49.353  34.798  52.055  0.00  0.00    -0.043 N 
ENDBRANCH   6  14
BRANCH   3  18
ATOM     18  N   UNL d   1      52.830  35.577  53.869  0.00  0.00    -0.096 NA
ATOM     19  O   UNL d   1      52.588  36.008  54.539  0.00  0.00    -0.061 OA
ENDBRANCH   3  18
BRANCH   7  20
ATOM     20  S   UNL d   1      55.036  33.632  55.095  0.00  0.00     0.302 S 
ATOM     21  O   UNL d   1      55.396  33.483  54.331  0.00  0.00    -0.197 OA
ATOM     22  O   UNL d   1      54.633  33.774  55.830  0.00  0.00    -0.197 OA
ATOM     23  N   UNL d   1      55.761  33.717  55.446  0.00  0.00    -0.043 N 
ENDBRANCH   7  20
TORSDOF 3
ENDMDL
MODEL 4
REMARK VINA RESULT:      -9.2      2.513      3.499
REMARK  3 active torsions:
REMARK  status: ('A' for Active; 'I' for Inactive)
REMARK    1  A    between atoms: C_9  and  S_1 
REMARK    2  A    between atoms: S_2  and  C_8 
REMARK    3  A    between atoms: N_14  and  C_5 
ROOT
ATOM      1  C   UNL d   1      52.025  34.362  53.467  0.00  0.00     0.021 A 
ATOM      2  C   UNL d   1      53.202  34.146  54.102  0.00  0.00     0.021 A 
ATOM      3  C   UNL d   1      52.661  34.718  53.806  0.00  0.00     0.111 A 
ATOM      4  C   UNL d   1      52.863  33.420  53.926  0.00  0.00     0.002 A 
ATOM      5  C   UNL d   1      52.143  33.512  53.537  0.00  0.00     0.002 A 
ATOM      6  C   UNL d   1      54.334  33.536  54.715  0.00  0.00     0.107 A 
ATOM      7  C   UNL d   1      50.792  34.090  52.806  0.00  0.00     0.107 A 
ATOM      8  C   UNL d   1      53.913  34.216  54.483  0.00  0.00     0.015 A 
ATOM      9  C   UNL d   1      51.359  34.650  53.106  0.00  0.00     0.015 A 
ATOM     10  C   UNL d   1      51.592  32.995  53.246  0.00  0.00     0.001 A 
ATOM     11  C   UNL d   1      53.303  32.724  54.168  0.00  0.00     0.001 A 
ATOM     12  C   UNL d   1      50.916  33.273  52.880  0.00  0.00     0.013 A 
ATOM     13  C   UNL d   1      54.009  32.797  54.547  0.00  0.00     0.013 A 
ENDROOT
BRANCH   6  14
ATOM     14  S   UNL d   1      55.075  33.634  55.113  0.00  0.00     0.302 S 
ATOM     15  O   UNL d   1      55.458  33.603  54.376  0.00  0.00    -0.197 OA
ATOM     16  O   UNL d   1      54.692  33.668  55.876  0.00  0.00    -0.197 OA
ATOM     17  N   UNL d   1      55.822  33.733  55.510  0.00  0.00    -0.043 N 
ENDBRANCH   6  14
BRANCH   3  18
ATOM     18  N   UNL d   1      52.705  35.583  53.822  0.00  0.00    -0.096 NA
ATOM     19  O   UNL d   1      52.652  35.995  54.544  0.00  0.00    -0.061 OA
ENDBRANCH   3  18
BRANCH   7  20
ATOM     20  S   UNL d   1      50.087  34.425  52.424  0.00  0.00     0.302 S 
ATOM     21  O   UNL d   1      50.484  34.275  51.679  0.00  0.00    -0.197 OA
ATOM     22  O   UNL d   1      49.735  34.553  53.187  0.00  0.00    -0.197 OA
ATOM     23  N   UNL d   1      49.440  34.733  52.045  0.00  0.00    -0.043 N 
ENDBRANCH   7  20
TORSDOF 3
ENDMDL
MODEL 5
REMARK VINA RESULT:      -8.0      2.104      3.301
REMARK  3 active torsions:
REMARK  status: ('A' for Active; 'I' for Inactive)
REMARK    1  A    between atoms: C_9  and  S_1 
REMARK    2  A    between atoms: S_2  and  C_8 
REMARK    3  A    between atoms: N_14  and  C_5 
ROOT
ATOM      1  C   UNL d   1      53.004  33.616  53.670  0.00  0.00     0.021 A 
ATOM      2  C   UNL d   1      51.911  33.784  52.887  0.00  0.00     0.021 A 
ATOM      3  C   UNL d   1      52.609  33.335  53.030  0.00  0.00     0.111 A 
ATOM      4  C   UNL d   1      51.900  34.355  53.476  0.00  0.00     0.002 A 
ATOM      5  C   UNL d   1      52.553  34.284  53.973  0.00  0.00     0.002 A 
ATOM      6  C   UNL d   1      50.695  34.260  52.319  0.00  0.00     0.107 A 
ATOM      7  C   UNL d   1      53.943  33.833  54.721  0.00  0.00     0.107 A 
ATOM      8  C   UNL d   1      51.334  33.727  52.322  0.00  0.00     0.015 A 
ATOM      9  C   UNL d   1      53.690  33.391  54.037  0.00  0.00     0.015 A 
ATOM     10  C   UNL d   1      52.808  34.692  54.624  0.00  0.00     0.001 A 
ATOM     11  C   UNL d   1      51.239  34.901  53.466  0.00  0.00     0.001 A 
ATOM     12  C   UNL d   1      53.500  34.475  55.004  0.00  0.00     0.013 A 
ATOM     13  C   UNL d   1      50.667  34.842  52.903  0.00  0.00     0.013 A 
ENDROOT
BRANCH   6  14
ATOM     14  S   UNL d   1      50.104  34.181  51.718  0.00  0.00     0.302 S 
ATOM     15  O   UNL d   1      49.542  34.029  52.311  0.00  0.00    -0.197 OA
ATOM     16  O   UNL d   1      50.673  34.337  51.100  0.00  0.00    -0.197 OA
ATOM     17  N   UNL d   1      49.507  34.101  51.116  0.00  0.00    -0.043 N 
ENDBRANCH   6  14
BRANCH   3  18
ATOM     18  N   UNL d   1      52.928  32.655  52.598  0.00  0.00    -0.096 NA
ATOM     19  O   UNL d   1      52.584  31.902  52.683  0.00  0.00    -0.061 OA
ENDBRANCH   3  18
BRANCH   7  20
ATOM     20  S   UNL d   1      54.682  33.572  55.095  0.00  0.00     0.302 S 
ATOM     21  O   UNL d   1      55.037  34.281  54.769  0.00  0.00    -0.197 OA
ATOM     22  O   UNL d   1      54.285  32.883  55.396  0.00  0.00    -0.197 OA
ATOM     23  N   UNL d   1      55.383  33.349  55.435  0.00  0.00    -0.043 N 
ENDBRANCH   7  20
TORSDOF 3
ENDMDL
MODEL 6
REMARK VINA RESULT:      -7.9      2.111      3.590
REMARK  3 active torsions:
REMARK  status: ('A' for Active; 'I' for Inactive)
REMARK    1  A    between atoms: C_9  and  S_1 
REMARK    2  A    between atoms: S_2  and  C_8 
REMARK    3  A    between atoms: N_14  and  C_5 
ROOT
ATOM      1  C   UNL d   1      51.926  33.771  52.852  0.00  0.00     0.021 A 
ATOM      2  C   UNL d   1      52.999  33.658  53.670  0.00  0.00     0.021 A 
ATOM      3  C   UNL d   1      52.592  33.348  53.002  0.00  0.00     0.111 A 
ATOM      4  C   UNL d   1      52.546  34.293  53.921  0.00  0.00     0.002 A 
ATOM      5  C   UNL d   1      51.881  34.393  53.444  0.00  0.00     0.002 A 
ATOM      6  C   UNL d   1      53.957  33.857  54.705  0.00  0.00     0.107 A 
ATOM      7  C   UNL d   1      50.710  34.271  52.302  0.00  0.00     0.107 A 
ATOM      8  C   UNL d   1      53.685  33.436  54.041  0.00  0.00     0.015 A 
ATOM      9  C   UNL d   1      51.349  33.707  52.286  0.00  0.00     0.015 A 
ATOM     10  C   UNL d   1      51.265  34.919  53.444  0.00  0.00     0.001 A 
ATOM     11  C   UNL d   1      52.833  34.722  54.606  0.00  0.00     0.001 A 
ATOM     12  C   UNL d   1      50.677  34.866  52.878  0.00  0.00     0.013 A 
ATOM     13  C   UNL d   1      53.514  34.499  54.972  0.00  0.00     0.013 A 
ENDROOT
BRANCH   6  14
ATOM     14  S   UNL d   1      54.676  33.607  55.076  0.00  0.00     0.302 S 
ATOM     15  O   UNL d   1      55.062  34.260  54.738  0.00  0.00    -0.197 OA
ATOM     16  O   UNL d   1      54.291  32.931  55.430  0.00  0.00    -0.197 OA
ATOM     17  N   UNL d   1      55.401  33.357  55.448  0.00  0.00    -0.043 N 
ENDBRANCH   6  14
BRANCH   3  18
ATOM     18  N   UNL d   1      52.794  32.675  52.494  0.00  0.00    -0.096 NA
ATOM     19  O   UNL d   1      52.608  31.899  52.728  0.00  0.00    -0.061 OA
ENDBRANCH   3  18
BRANCH   7  20
ATOM     20  S   UNL d   1      50.105  34.181  51.685  0.00  0.00     0.302 S 
ATOM     21  O   UNL d   1      49.560  33.991  52.319  0.00  0.00    -0.197 OA
ATOM     22  O   UNL d   1      50.681  34.374  51.091  0.00  0.00    -0.197 OA
ATOM     23  N   UNL d   1      49.523  34.091  51.127  0.00  0.00    -0.043 N 
ENDBRANCH   7  20
TORSDOF 3
ENDMDL
MODEL 7
REMARK VINA RESULT:      -7.9      1.367      4.347
REMARK  3 active torsions:
REMARK  status: ('A' for Active; 'I' for Inactive)
REMARK    1  A    between atoms: C_9  and  S_1 
REMARK    2  A    between atoms: S_2  and  C_8 
REMARK    3  A    between atoms: N_14  and  C_5 
ROOT
ATOM      1  C   UNL d   1      53.261  31.477  54.118  0.00  0.00     0.021 A 
ATOM      2  C   UNL d   1      53.095  32.811  53.954  0.00  0.00     0.021 A 
ATOM      3  C   UNL d   1      53.389  32.197  54.449  0.00  0.00     0.111 A 
ATOM      4  C   UNL d   1      52.781  32.427  53.301  0.00  0.00     0.002 A 
ATOM      5  C   UNL d   1      52.864  31.610  53.366  0.00  0.00     0.002 A 
ATOM      6  C   UNL d   1      52.751  34.094  53.440  0.00  0.00     0.107 A 
ATOM      7  C   UNL d   1      53.206  30.078  53.846  0.00  0.00     0.107 A 
ATOM      8  C   UNL d   1      53.087  33.617  54.033  0.00  0.00     0.015 A 
ATOM      9  C   UNL d   1      53.432  30.722  54.358  0.00  0.00     0.015 A 
ATOM     10  C   UNL d   1      52.658  30.986  52.893  0.00  0.00     0.001 A 
ATOM     11  C   UNL d   1      52.437  32.925  52.694  0.00  0.00     0.001 A 
ATOM     12  C   UNL d   1      52.824  30.219  53.124  0.00  0.00     0.013 A 
ATOM     13  C   UNL d   1      52.430  33.725  52.776  0.00  0.00     0.013 A 
ENDROOT
BRANCH   6  14
ATOM     14  S   UNL d   1      52.755  34.934  53.545  0.00  0.00     0.302 S 
ATOM     15  O   UNL d   1      53.460  34.972  53.108  0.00  0.00    -0.197 OA
ATOM     16  O   UNL d   1      52.029  34.908  53.996  0.00  0.00    -0.197 OA
ATOM     17  N   UNL d   1      52.760  35.780  53.649  0.00  0.00    -0.043 N 
ENDBRANCH   6  14
BRANCH   3  18
ATOM     18  N   UNL d   1      53.784  32.248  55.219  0.00  0.00    -0.096 NA
ATOM     19  O   UNL d   1      54.504  32.658  55.298  0.00  0.00    -0.061 OA
ENDBRANCH   3  18
BRANCH   7  20
ATOM     20  S   UNL d   1      53.400  29.279  54.127  0.00  0.00     0.302 S 
ATOM     21  O   UNL d   1      53.986  29.258  53.501  0.00  0.00    -0.197 OA
ATOM     22  O   UNL d   1      52.806  29.347  54.731  0.00  0.00    -0.197 OA
ATOM     23  N   UNL d   1      53.599  28.532  54.370  0.00  0.00    -0.043 N 
ENDBRANCH   7  20
TORSDOF 3
ENDMDL
MODEL 8
REMARK VINA RESULT:      -7.4      1.270      1.820
REMARK  3 active torsions:
REMARK  status: ('A' for Active; 'I' for Inactive)
REMARK    1  A    between atoms: C_9  and  S_1 
REMARK    2  A    between atoms: S_2  and  C_8 
REMARK    3  A    between atoms: N_14  and  C_5 
ROOT
ATOM      1  C   UNL d   1      53.398  32.934  54.064  0.00  0.00     0.021 A 
ATOM      2  C   UNL d   1      53.466  31.582  54.044  0.00  0.00     0.021 A 
ATOM      3  C   UNL d   1      53.764  32.293  54.380  0.00  0.00     0.111 A 
ATOM      4  C   UNL d   1      52.896  31.822  53.505  0.00  0.00     0.002 A 
ATOM      5  C   UNL d   1      52.827  32.643  53.490  0.00  0.00     0.002 A 
ATOM      6  C   UNL d   1      53.252  30.205  53.747  0.00  0.00     0.107 A 
ATOM      7  C   UNL d   1      52.977  34.257  53.741  0.00  0.00     0.107 A 
ATOM      8  C   UNL d   1      53.648  30.802  54.170  0.00  0.00     0.015 A 
ATOM      9  C   UNL d   1      53.474  33.731  54.190  0.00  0.00     0.015 A 
ATOM     10  C   UNL d   1      52.363  33.158  53.072  0.00  0.00     0.001 A 
ATOM     11  C   UNL d   1      52.493  31.201  53.073  0.00  0.00     0.001 A 
ATOM     12  C   UNL d   1      52.430  33.965  53.190  0.00  0.00     0.013 A 
ATOM     13  C   UNL d   1      52.676  30.428  53.201  0.00  0.00     0.013 A 
ENDROOT
BRANCH   6  14
ATOM     14  S   UNL d   1      53.459  29.398  53.896  0.00  0.00     0.302 S 
ATOM     15  O   UNL d   1      52.759  29.314  54.336  0.00  0.00    -0.197 OA
ATOM     16  O   UNL d   1      54.182  29.471  53.446  0.00  0.00    -0.197 OA
ATOM     17  N   UNL d   1      53.665  28.585  54.048  0.00  0.00    -0.043 N 
ENDBRANCH   6  14
BRANCH   3  18
ATOM     18  N   UNL d   1      54.377  32.407  54.983  0.00  0.00    -0.096 NA
ATOM     19  O   UNL d   1      54.169  32.615  55.761  0.00  0.00    -0.061 OA
ENDBRANCH   3  18
BRANCH   7  20
ATOM     20  S   UNL d   1      53.079  35.106  53.895  0.00  0.00     0.302 S 
ATOM     21  O   UNL d   1      52.386  35.226  53.405  0.00  0.00    -0.197 OA
ATOM     22  O   UNL d   1      53.762  34.938  54.372  0.00  0.00    -0.197 OA
ATOM     23  N   UNL d   1      53.154  35.903  54.024  0.00  0.00    -0.043 N 
ENDBRANCH   7  20
TORSDOF 3
ENDMDL
