MODEL 1
REMARK VINA RESULT:      -3.2      0.000      0.000
REMARK  1 active torsions:
REMARK  status: ('A' for Active; 'I' for Inactive)
REMARK       I    between atoms: C_2  and  N_1 
REMARK    1  A    between atoms: C_4  and  C_2 
ROOT
ATOM      1  N   UNL d   1      30.464  16.944 -24.119  0.00  0.00    -0.273 N 
ATOM      2  C   UNL d   1      31.292  16.911 -23.947  0.00  0.00     0.271 C 
ATOM      3  C   UNL d   1      29.866  16.466 -23.815  0.00  0.00     0.067 A 
ATOM      4  C   UNL d   1      30.089  17.482 -24.644  0.00  0.00     0.083 A 
ATOM      5  O   UNL d   1      31.558  16.335 -23.409  0.00  0.00    -0.266 OA
ATOM      6  C   UNL d   1      29.143  16.696 -24.137  0.00  0.00     0.018 A 
ATOM      7  C   UNL d   1      29.292  17.329 -24.653  0.00  0.00     0.021 A 
ATOM      8  C   UNL d   1      29.911  15.844 -23.276  0.00  0.00     0.018 A 
ATOM      9  C   UNL d   1      28.459  16.307 -23.924  0.00  0.00     0.002 A 
ATOM     10  C   UNL d   1      29.224  15.453 -23.060  0.00  0.00     0.002 A 
ATOM     11  C   UNL d   1      28.473  15.683 -23.388  0.00  0.00     0.000 A 
ENDROOT
BRANCH   2  12
ATOM     12  C   UNL d   1      31.821  17.444 -24.311  0.00  0.00     0.086 A 
ATOM     13  S   UNL d   1      32.100  17.511 -25.078  0.00  0.00    -0.082 SA
ATOM     14  C   UNL d   1      32.617  18.158 -25.096  0.00  0.00     0.036 A 
ATOM     15  C   UNL d   1      32.667  18.497 -24.355  0.00  0.00     0.008 A 
ATOM     16  C   UNL d   1      32.173  18.057 -23.858  0.00  0.00     0.012 A 
ENDBRANCH   2  12
TORSDOF 1
ENDMDL
MODEL 2
REMARK VINA RESULT:      -2.4      4.797      6.148
REMARK  1 active torsions:
REMARK  status: ('A' for Active; 'I' for Inactive)
REMARK       I    between atoms: C_2  and  N_1 
REMARK    1  A    between atoms: C_4  and  C_2 
ROOT
ATOM      1  N   UNL d   1      32.868  21.535 -21.637  0.00  0.00    -0.273 N 
ATOM      2  C   UNL d   1      32.654  21.656 -20.827  0.00  0.00     0.271 C 
ATOM      3  C   UNL d   1      32.921  20.821 -22.044  0.00  0.00     0.067 A 
ATOM      4  C   UNL d   1      33.072  22.134 -22.189  0.00  0.00     0.083 A 
ATOM      5  O   UNL d   1      32.470  20.989 -20.366  0.00  0.00    -0.266 OA
ATOM      6  C   UNL d   1      33.149  20.966 -22.822  0.00  0.00     0.018 A 
ATOM      7  C   UNL d   1      33.240  21.787 -22.903  0.00  0.00     0.021 A 
ATOM      8  C   UNL d   1      32.782  20.052 -21.779  0.00  0.00     0.018 A 
ATOM      9  C   UNL d   1      33.241  20.346 -23.343  0.00  0.00     0.002 A 
ATOM     10  C   UNL d   1      32.875  19.428 -22.302  0.00  0.00     0.002 A 
ATOM     11  C   UNL d   1      33.110  19.568 -23.108  0.00  0.00     0.000 A 
ENDROOT
BRANCH   2  12
ATOM     12  C   UNL d   1      32.630  22.426 -20.507  0.00  0.00     0.086 A 
ATOM     13  S   UNL d   1      32.239  23.110 -20.735  0.00  0.00    -0.082 SA
ATOM     14  C   UNL d   1      32.438  23.700 -20.188  0.00  0.00     0.036 A 
ATOM     15  C   UNL d   1      32.944  23.399 -19.624  0.00  0.00     0.008 A 
ATOM     16  C   UNL d   1      33.070  22.604 -19.814  0.00  0.00     0.012 A 
ENDBRANCH   2  12
TORSDOF 1
ENDMDL
MODEL 3
REMARK VINA RESULT:      -2.3      1.635      1.984
REMARK  1 active torsions:
REMARK  status: ('A' for Active; 'I' for Inactive)
REMARK       I    between atoms: C_2  and  N_1 
REMARK    1  A    between atoms: C_4  and  C_2 
ROOT
ATOM      1  N   UNL d   1      31.931  17.612 -24.013  0.00  0.00    -0.273 N 
ATOM      2  C   UNL d   1      32.478  17.874 -23.423  0.00  0.00     0.271 C 
ATOM      3  C   UNL d   1      31.600  16.862 -24.097  0.00  0.00     0.067 A 
ATOM      4  C   UNL d   1      31.617  18.076 -24.638  0.00  0.00     0.083 A 
ATOM      5  O   UNL d   1      32.726  17.328 -22.847  0.00  0.00    -0.266 OA
ATOM      6  C   UNL d   1      31.098  16.857 -24.749  0.00  0.00     0.018 A 
ATOM      7  C   UNL d   1      31.114  17.618 -25.080  0.00  0.00     0.021 A 
ATOM      8  C   UNL d   1      31.709  16.184 -23.639  0.00  0.00     0.018 A 
ATOM      9  C   UNL d   1      30.699  16.175 -24.952  0.00  0.00     0.002 A 
ATOM     10  C   UNL d   1      31.309  15.499 -23.842  0.00  0.00     0.002 A 
ATOM     11  C   UNL d   1      30.787  15.484 -24.515  0.00  0.00     0.000 A 
ENDROOT
BRANCH   2  12
ATOM     12  C   UNL d   1      32.757  18.661 -23.425  0.00  0.00     0.086 A 
ATOM     13  S   UNL d   1      33.060  19.140 -24.017  0.00  0.00    -0.082 SA
ATOM     14  C   UNL d   1      33.241  19.872 -23.673  0.00  0.00     0.036 A 
ATOM     15  C   UNL d   1      33.058  19.859 -22.878  0.00  0.00     0.008 A 
ATOM     16  C   UNL d   1      32.755  19.107 -22.714  0.00  0.00     0.012 A 
ENDBRANCH   2  12
TORSDOF 1
ENDMDL
MODEL 4
REMARK VINA RESULT:      -2.3      4.979      6.446
REMARK  1 active torsions:
REMARK  status: ('A' for Active; 'I' for Inactive)
REMARK       I    between atoms: C_2  and  N_1 
REMARK    1  A    between atoms: C_4  and  C_2 
ROOT
ATOM      1  N   UNL d   1      32.881  21.740 -21.278  0.00  0.00    -0.273 N 
ATOM      2  C   UNL d   1      33.087  20.924 -21.190  0.00  0.00     0.271 C 
ATOM      3  C   UNL d   1      32.808  22.309 -20.686  0.00  0.00     0.067 A 
ATOM      4  C   UNL d   1      32.709  22.132 -22.000  0.00  0.00     0.083 A 
ATOM      5  O   UNL d   1      33.239  20.638 -20.425  0.00  0.00    -0.266 OA
ATOM      6  C   UNL d   1      32.598  23.029 -21.024  0.00  0.00     0.018 A 
ATOM      7  C   UNL d   1      32.539  22.910 -21.843  0.00  0.00     0.021 A 
ATOM      8  C   UNL d   1      32.913  22.237 -19.871  0.00  0.00     0.018 A 
ATOM      9  C   UNL d   1      32.491  23.686 -20.553  0.00  0.00     0.002 A 
ATOM     10  C   UNL d   1      32.806  22.896 -19.396  0.00  0.00     0.002 A 
ATOM     11  C   UNL d   1      32.589  23.646 -19.737  0.00  0.00     0.000 A 
ENDROOT
BRANCH   2  12
ATOM     12  C   UNL d   1      33.135  20.426 -21.859  0.00  0.00     0.086 A 
ATOM     13  S   UNL d   1      33.236  20.579 -22.658  0.00  0.00    -0.082 SA
ATOM     14  C   UNL d   1      33.238  19.849 -23.049  0.00  0.00     0.036 A 
ATOM     15  C   UNL d   1      33.141  19.243 -22.511  0.00  0.00     0.008 A 
ATOM     16  C   UNL d   1      33.076  19.594 -21.765  0.00  0.00     0.012 A 
ENDBRANCH   2  12
TORSDOF 1
ENDMDL
MODEL 5
REMARK VINA RESULT:      -2.1      1.453      3.435
REMARK  1 active torsions:
REMARK  status: ('A' for Active; 'I' for Inactive)
REMARK       I    between atoms: C_2  and  N_1 
REMARK    1  A    between atoms: C_4  and  C_2 
ROOT
ATOM      1  N   UNL d   1      32.098  17.663 -23.981  0.00  0.00    -0.273 N 
ATOM      2  C   UNL d   1      31.941  16.873 -23.720  0.00  0.00     0.271 C 
ATOM      3  C   UNL d   1      32.498  18.258 -23.577  0.00  0.00     0.067 A 
ATOM      4  C   UNL d   1      31.870  17.994 -24.719  0.00  0.00     0.083 A 
ATOM      5  O   UNL d   1      32.213  16.648 -22.967  0.00  0.00    -0.266 OA
ATOM      6  C   UNL d   1      32.520  18.937 -24.043  0.00  0.00     0.018 A 
ATOM      7  C   UNL d   1      32.126  18.763 -24.753  0.00  0.00     0.021 A 
ATOM      8  C   UNL d   1      32.843  18.246 -22.828  0.00  0.00     0.018 A 
ATOM      9  C   UNL d   1      32.887  19.610 -23.766  0.00  0.00     0.002 A 
ATOM     10  C   UNL d   1      33.213  18.922 -22.549  0.00  0.00     0.002 A 
ATOM     11  C   UNL d   1      33.241  19.629 -23.024  0.00  0.00     0.000 A 
ENDROOT
BRANCH   2  12
ATOM     12  C   UNL d   1      31.524  16.341 -24.209  0.00  0.00     0.086 A 
ATOM     13  S   UNL d   1      31.758  15.852 -24.824  0.00  0.00    -0.082 SA
ATOM     14  C   UNL d   1      31.084  15.454 -25.093  0.00  0.00     0.036 A 
ATOM     15  C   UNL d   1      30.432  15.684 -24.659  0.00  0.00     0.008 A 
ATOM     16  C   UNL d   1      30.697  16.238 -24.105  0.00  0.00     0.012 A 
ENDBRANCH   2  12
TORSDOF 1
ENDMDL
MODEL 6
REMARK VINA RESULT:      -2.1      1.311      3.458
REMARK  1 active torsions:
REMARK  status: ('A' for Active; 'I' for Inactive)
REMARK       I    between atoms: C_2  and  N_1 
REMARK    1  A    between atoms: C_4  and  C_2 
ROOT
ATOM      1  N   UNL d   1      30.607  16.605 -23.941  0.00  0.00    -0.273 N 
ATOM      2  C   UNL d   1      29.855  16.846 -24.246  0.00  0.00     0.271 C 
ATOM      3  C   UNL d   1      31.325  17.005 -23.995  0.00  0.00     0.067 A 
ATOM      4  C   UNL d   1      30.765  15.897 -23.517  0.00  0.00     0.083 A 
ATOM      5  O   UNL d   1      29.811  17.569 -24.653  0.00  0.00    -0.266 OA
ATOM      6  C   UNL d   1      31.911  16.565 -23.619  0.00  0.00     0.018 A 
ATOM      7  C   UNL d   1      31.553  15.877 -23.324  0.00  0.00     0.021 A 
ATOM      8  C   UNL d   1      31.500  17.728 -24.351  0.00  0.00     0.018 A 
ATOM      9  C   UNL d   1      32.678  16.842 -23.595  0.00  0.00     0.002 A 
ATOM     10  C   UNL d   1      32.270  18.008 -24.328  0.00  0.00     0.002 A 
ATOM     11  C   UNL d   1      32.883  17.560 -23.941  0.00  0.00     0.000 A 
ENDROOT
BRANCH   2  12
ATOM     12  C   UNL d   1      29.182  16.365 -24.137  0.00  0.00     0.086 A 
ATOM     13  S   UNL d   1      28.947  15.655 -24.473  0.00  0.00    -0.082 SA
ATOM     14  C   UNL d   1      28.217  15.452 -24.136  0.00  0.00     0.036 A 
ATOM     15  C   UNL d   1      27.991  16.022 -23.597  0.00  0.00     0.008 A 
ATOM     16  C   UNL d   1      28.588  16.596 -23.591  0.00  0.00     0.012 A 
ENDBRANCH   2  12
TORSDOF 1
ENDMDL
MODEL 7
REMARK VINA RESULT:      -2.0      4.014      5.149
REMARK  1 active torsions:
REMARK  status: ('A' for Active; 'I' for Inactive)
REMARK       I    between atoms: C_2  and  N_1 
REMARK    1  A    between atoms: C_4  and  C_2 
ROOT
ATOM      1  N   UNL d   1      33.005  20.565 -22.454  0.00  0.00    -0.273 N 
ATOM      2  C   UNL d   1      32.906  20.874 -21.672  0.00  0.00     0.271 C 
ATOM      3  C   UNL d   1      33.075  19.776 -22.681  0.00  0.00     0.067 A 
ATOM      4  C   UNL d   1      33.051  21.016 -23.162  0.00  0.00     0.083 A 
ATOM      5  O   UNL d   1      32.874  20.336 -21.040  0.00  0.00    -0.266 OA
ATOM      6  C   UNL d   1      33.161  19.734 -23.499  0.00  0.00     0.018 A 
ATOM      7  C   UNL d   1      33.145  20.511 -23.790  0.00  0.00     0.021 A 
ATOM      8  C   UNL d   1      33.068  19.094 -22.218  0.00  0.00     0.018 A 
ATOM      9  C   UNL d   1      33.241  19.009 -23.864  0.00  0.00     0.002 A 
ATOM     10  C   UNL d   1      33.148  18.364 -22.584  0.00  0.00     0.002 A 
ATOM     11  C   UNL d   1      33.238  18.310 -23.429  0.00  0.00     0.000 A 
ENDROOT
BRANCH   2  12
ATOM     12  C   UNL d   1      32.845  21.697 -21.548  0.00  0.00     0.086 A 
ATOM     13  S   UNL d   1      33.227  22.339 -21.884  0.00  0.00    -0.082 SA
ATOM     14  C   UNL d   1      32.924  23.022 -21.526  0.00  0.00     0.036 A 
ATOM     15  C   UNL d   1      32.360  22.819 -20.972  0.00  0.00     0.008 A 
ATOM     16  C   UNL d   1      32.304  21.993 -20.979  0.00  0.00     0.012 A 
ENDBRANCH   2  12
TORSDOF 1
ENDMDL
MODEL 8
REMARK VINA RESULT:      -1.7      3.374      5.152
REMARK  1 active torsions:
REMARK  status: ('A' for Active; 'I' for Inactive)
REMARK       I    between atoms: C_2  and  N_1 
REMARK    1  A    between atoms: C_4  and  C_2 
ROOT
ATOM      1  N   UNL d   1      33.053  20.386 -22.469  0.00  0.00    -0.273 N 
ATOM      2  C   UNL d   1      32.958  19.547 -22.523  0.00  0.00     0.271 C 
ATOM      3  C   UNL d   1      33.092  20.847 -21.788  0.00  0.00     0.067 A 
ATOM      4  C   UNL d   1      33.127  20.918 -23.116  0.00  0.00     0.083 A 
ATOM      5  O   UNL d   1      32.894  19.114 -21.816  0.00  0.00    -0.266 OA
ATOM      6  C   UNL d   1      33.187  21.638 -21.999  0.00  0.00     0.018 A 
ATOM      7  C   UNL d   1      33.207  21.672 -22.828  0.00  0.00     0.021 A 
ATOM      8  C   UNL d   1      33.050  20.621 -20.996  0.00  0.00     0.018 A 
ATOM      9  C   UNL d   1      33.240  22.211 -21.421  0.00  0.00     0.002 A 
ATOM     10  C   UNL d   1      33.104  21.196 -20.414  0.00  0.00     0.002 A 
ATOM     11  C   UNL d   1      33.202  22.016 -20.623  0.00  0.00     0.000 A 
ENDROOT
BRANCH   2  12
ATOM     12  C   UNL d   1      32.930  19.171 -23.268  0.00  0.00     0.086 A 
ATOM     13  S   UNL d   1      33.241  19.368 -24.000  0.00  0.00    -0.082 SA
ATOM     14  C   UNL d   1      33.023  18.769 -24.529  0.00  0.00     0.036 A 
ATOM     15  C   UNL d   1      32.582  18.201 -24.142  0.00  0.00     0.008 A 
ATOM     16  C   UNL d   1      32.519  18.444 -23.353  0.00  0.00     0.012 A 
ENDBRANCH   2  12
TORSDOF 1
ENDMDL
MODEL 9
REMARK VINA RESULT:      -1.1      5.538      6.363
REMARK  1 active torsions:
REMARK  status: ('A' for Active; 'I' for Inactive)
REMARK       I    between atoms: C_2  and  N_1 
REMARK    1  A    between atoms: C_4  and  C_2 
ROOT
ATOM      1  N   UNL d   1      33.050  22.088 -22.425  0.00  0.00    -0.273 N 
ATOM      2  C   UNL d   1      33.007  22.852 -22.788  0.00  0.00     0.271 C 
ATOM      3  C   UNL d   1      32.973  21.903 -21.626  0.00  0.00     0.067 A 
ATOM      4  C   UNL d   1      33.182  21.359 -22.822  0.00  0.00     0.083 A 
ATOM      5  O   UNL d   1      32.871  23.510 -22.299  0.00  0.00    -0.266 OA
ATOM      6  C   UNL d   1      33.053  21.090 -21.525  0.00  0.00     0.018 A 
ATOM      7  C   UNL d   1      33.183  20.759 -22.275  0.00  0.00     0.021 A 
ATOM      8  C   UNL d   1      32.837  22.399 -20.982  0.00  0.00     0.018 A 
ATOM      9  C   UNL d   1      32.999  20.763 -20.780  0.00  0.00     0.002 A 
ATOM     10  C   UNL d   1      32.782  22.073 -20.232  0.00  0.00     0.002 A 
ATOM     11  C   UNL d   1      32.864  21.232 -20.118  0.00  0.00     0.000 A 
ENDROOT
BRANCH   2  12
ATOM     12  C   UNL d   1      33.099  22.934 -23.613  0.00  0.00     0.086 A 
ATOM     13  S   UNL d   1      33.156  22.388 -24.222  0.00  0.00    -0.082 SA
ATOM     14  C   UNL d   1      33.241  22.814 -24.927  0.00  0.00     0.036 A 
ATOM     15  C   UNL d   1      33.237  23.615 -24.772  0.00  0.00     0.008 A 
ATOM     16  C   UNL d   1      33.149  23.699 -23.953  0.00  0.00     0.012 A 
ENDBRANCH   2  12
TORSDOF 1
ENDMDL
