MODEL 1
REMARK VINA RESULT:      -7.6      0.000      0.000
REMARK  3 active torsions:
REMARK  status: ('A' for Active; 'I' for Inactive)
REMARK    1  A    between atoms: C_4  and  S_1 
REMARK    2  A    between atoms: N_6  and  S_1 
REMARK    3  A    between atoms: C_2  and  C_8 
ROOT
ATOM      1  C   UNL d   1     -47.162  12.478  23.114  0.00  0.00     0.104 A 
ATOM      2  C   UNL d   1     -47.696  13.105  23.130  0.00  0.00     0.015 A 
ATOM      3  C   UNL d   1     -48.466  12.980  23.410  0.00  0.00     0.025 A 
ATOM      4  C   UNL d   1     -47.389  11.729  23.375  0.00  0.00     0.012 A 
ATOM      5  C   UNL d   1     -48.697  12.232  23.672  0.00  0.00     0.002 A 
ATOM      6  C   UNL d   1     -48.155  11.609  23.653  0.00  0.00     0.001 A 
ATOM      7  C   UNL d   1     -46.852  11.105  23.358  0.00  0.00     0.001 C 
ENDROOT
BRANCH   3   8
ATOM      8  C   UNL d   1     -49.006  13.606  23.428  0.00  0.00     0.111 A 
ATOM      9  N   UNL d   1     -48.820  14.400  23.307  0.00  0.00    -0.239 NA
ATOM     10  C   UNL d   1     -49.521  14.837  23.373  0.00  0.00     0.088 A 
ATOM     11  C   UNL d   1     -49.683  15.639  23.308  0.00  0.00     0.020 A 
ATOM     12  C   UNL d   1     -50.133  14.305  23.534  0.00  0.00     0.049 A 
ATOM     13  C   UNL d   1     -50.446  15.914  23.403  0.00  0.00     0.002 A 
ATOM     14  C   UNL d   1     -51.064  15.383  23.566  0.00  0.00     0.001 A 
ATOM     15  C   UNL d   1     -50.904  14.576  23.631  0.00  0.00     0.008 A 
ATOM     16  S   UNL d   1     -49.807  13.540  23.568  0.00  0.00    -0.066 SA
ENDBRANCH   3   8
BRANCH   1  17
ATOM     17  S   UNL d   1     -46.388  12.595  22.835  0.00  0.00     0.271 S 
ATOM     18  O   UNL d   1     -46.109  12.587  23.618  0.00  0.00    -0.200 OA
ATOM     19  O   UNL d   1     -46.707  12.604  21.939  0.00  0.00    -0.200 OA
BRANCH  17  20
ATOM     20  N   UNL d   1     -45.642  12.711  22.513  0.00  0.00    -0.229 N 
ATOM     21  C   UNL d   1     -44.986  12.219  22.622  0.00  0.00     0.092 A 
ATOM     22  C   UNL d   1     -44.352  12.538  22.203  0.00  0.00     0.021 A 
ATOM     23  C   UNL d   1     -44.614  13.234  21.829  0.00  0.00     0.021 A 
ATOM     24  C   UNL d   1     -45.409  13.336  22.023  0.00  0.00     0.092 A 
ENDBRANCH  17  20
ENDBRANCH   1  17
TORSDOF 3
ENDMDL
MODEL 2
REMARK VINA RESULT:      -7.1      1.284      4.518
REMARK  3 active torsions:
REMARK  status: ('A' for Active; 'I' for Inactive)
REMARK    1  A    between atoms: C_4  and  S_1 
REMARK    2  A    between atoms: N_6  and  S_1 
REMARK    3  A    between atoms: C_2  and  C_8 
ROOT
ATOM      1  C   UNL d   1     -49.141  12.725  23.112  0.00  0.00     0.104 A 
ATOM      2  C   UNL d   1     -48.344  12.809  22.918  0.00  0.00     0.015 A 
ATOM      3  C   UNL d   1     -47.809  12.209  23.117  0.00  0.00     0.025 A 
ATOM      4  C   UNL d   1     -49.406  12.047  23.501  0.00  0.00     0.012 A 
ATOM      5  C   UNL d   1     -48.070  11.530  23.506  0.00  0.00     0.002 A 
ATOM      6  C   UNL d   1     -48.871  11.453  23.697  0.00  0.00     0.001 A 
ATOM      7  C   UNL d   1     -50.203  11.966  23.693  0.00  0.00     0.001 C 
ENDROOT
BRANCH   3   8
ATOM      8  C   UNL d   1     -47.008  12.290  22.925  0.00  0.00     0.111 A 
ATOM      9  N   UNL d   1     -46.683  12.905  22.483  0.00  0.00    -0.239 NA
ATOM     10  C   UNL d   1     -45.868  12.770  22.423  0.00  0.00     0.088 A 
ATOM     11  C   UNL d   1     -45.263  13.185  22.056  0.00  0.00     0.020 A 
ATOM     12  C   UNL d   1     -45.699  12.071  22.830  0.00  0.00     0.049 A 
ATOM     13  C   UNL d   1     -44.494  12.910  22.092  0.00  0.00     0.002 A 
ATOM     14  C   UNL d   1     -44.320  12.208  22.500  0.00  0.00     0.001 A 
ATOM     15  C   UNL d   1     -44.927  11.789  22.870  0.00  0.00     0.008 A 
ATOM     16  S   UNL d   1     -46.413  11.775  23.141  0.00  0.00    -0.066 SA
ENDBRANCH   3   8
BRANCH   1  17
ATOM     17  S   UNL d   1     -49.685  13.322  22.916  0.00  0.00     0.271 S 
ATOM     18  O   UNL d   1     -49.905  12.892  22.240  0.00  0.00    -0.200 OA
ATOM     19  O   UNL d   1     -49.433  13.812  23.691  0.00  0.00    -0.200 OA
BRANCH  17  20
ATOM     20  N   UNL d   1     -50.207  13.936  22.764  0.00  0.00    -0.229 N 
ATOM     21  C   UNL d   1     -50.592  14.077  22.046  0.00  0.00     0.092 A 
ATOM     22  C   UNL d   1     -51.064  14.747  22.133  0.00  0.00     0.021 A 
ATOM     23  C   UNL d   1     -50.974  15.026  22.912  0.00  0.00     0.021 A 
ATOM     24  C   UNL d   1     -50.445  14.523  23.296  0.00  0.00     0.092 A 
ENDBRANCH  17  20
ENDBRANCH   1  17
TORSDOF 3
ENDMDL
MODEL 3
REMARK VINA RESULT:      -6.9      8.137     10.070
REMARK  3 active torsions:
REMARK  status: ('A' for Active; 'I' for Inactive)
REMARK    1  A    between atoms: C_4  and  S_1 
REMARK    2  A    between atoms: N_6  and  S_1 
REMARK    3  A    between atoms: C_2  and  C_8 
ROOT
ATOM      1  C   UNL d   1     -39.926  14.998  20.351  0.00  0.00     0.104 A 
ATOM      2  C   UNL d   1     -39.559  14.772  19.648  0.00  0.00     0.015 A 
ATOM      3  C   UNL d   1     -39.860  15.043  18.925  0.00  0.00     0.025 A 
ATOM      4  C   UNL d   1     -40.588  15.490  20.337  0.00  0.00     0.012 A 
ATOM      5  C   UNL d   1     -40.521  15.535  18.907  0.00  0.00     0.002 A 
ATOM      6  C   UNL d   1     -40.883  15.757  19.617  0.00  0.00     0.001 A 
ATOM      7  C   UNL d   1     -40.951  15.714  21.042  0.00  0.00     0.001 C 
ENDROOT
BRANCH   3   8
ATOM      8  C   UNL d   1     -39.495  14.819  18.217  0.00  0.00     0.111 A 
ATOM      9  N   UNL d   1     -39.330  14.045  17.988  0.00  0.00    -0.239 NA
ATOM     10  C   UNL d   1     -38.965  14.072  17.245  0.00  0.00     0.088 A 
ATOM     11  C   UNL d   1     -38.679  13.487  16.746  0.00  0.00     0.020 A 
ATOM     12  C   UNL d   1     -38.908  14.866  17.023  0.00  0.00     0.049 A 
ATOM     13  C   UNL d   1     -38.339  13.686  16.030  0.00  0.00     0.002 A 
ATOM     14  C   UNL d   1     -38.280  14.483  15.803  0.00  0.00     0.001 A 
ATOM     15  C   UNL d   1     -38.567  15.073  16.304  0.00  0.00     0.008 A 
ATOM     16  S   UNL d   1     -39.240  15.328  17.631  0.00  0.00    -0.066 SA
ENDBRANCH   3   8
BRANCH   1  17
ATOM     17  S   UNL d   1     -39.631  14.731  21.081  0.00  0.00     0.271 S 
ATOM     18  O   UNL d   1     -40.219  14.143  21.097  0.00  0.00    -0.200 OA
ATOM     19  O   UNL d   1     -38.959  15.403  21.061  0.00  0.00    -0.200 OA
BRANCH  17  20
ATOM     20  N   UNL d   1     -39.306  14.503  21.799  0.00  0.00    -0.229 N 
ATOM     21  C   UNL d   1     -39.343  13.745  22.128  0.00  0.00     0.092 A 
ATOM     22  C   UNL d   1     -38.946  13.759  22.851  0.00  0.00     0.021 A 
ATOM     23  C   UNL d   1     -38.659  14.530  22.973  0.00  0.00     0.021 A 
ATOM     24  C   UNL d   1     -38.883  14.984  22.322  0.00  0.00     0.092 A 
ENDBRANCH  17  20
ENDBRANCH   1  17
TORSDOF 3
ENDMDL
MODEL 4
REMARK VINA RESULT:      -6.9      1.493      2.204
REMARK  3 active torsions:
REMARK  status: ('A' for Active; 'I' for Inactive)
REMARK    1  A    between atoms: C_4  and  S_1 
REMARK    2  A    between atoms: N_6  and  S_1 
REMARK    3  A    between atoms: C_2  and  C_8 
ROOT
ATOM      1  C   UNL d   1     -46.438  13.643  22.628  0.00  0.00     0.104 A 
ATOM      2  C   UNL d   1     -47.144  13.229  22.732  0.00  0.00     0.015 A 
ATOM      3  C   UNL d   1     -47.848  13.647  22.861  0.00  0.00     0.025 A 
ATOM      4  C   UNL d   1     -46.431  14.467  22.652  0.00  0.00     0.012 A 
ATOM      5  C   UNL d   1     -47.844  14.471  22.885  0.00  0.00     0.002 A 
ATOM      6  C   UNL d   1     -47.132  14.879  22.780  0.00  0.00     0.001 A 
ATOM      7  C   UNL d   1     -45.724  14.877  22.548  0.00  0.00     0.001 C 
ENDROOT
BRANCH   3   8
ATOM      8  C   UNL d   1     -48.558  13.236  22.965  0.00  0.00     0.111 A 
ATOM      9  N   UNL d   1     -48.652  12.551  23.415  0.00  0.00    -0.239 NA
ATOM     10  C   UNL d   1     -49.448  12.326  23.370  0.00  0.00     0.088 A 
ATOM     11  C   UNL d   1     -49.867  11.701  23.696  0.00  0.00     0.020 A 
ATOM     12  C   UNL d   1     -49.837  12.876  22.891  0.00  0.00     0.049 A 
ATOM     13  C   UNL d   1     -50.667  11.619  23.551  0.00  0.00     0.002 A 
ATOM     14  C   UNL d   1     -51.062  12.170  23.070  0.00  0.00     0.001 A 
ATOM     15  C   UNL d   1     -50.643  12.799  22.740  0.00  0.00     0.008 A 
ATOM     16  S   UNL d   1     -49.279  13.441  22.641  0.00  0.00    -0.066 SA
ENDBRANCH   3   8
BRANCH   1  17
ATOM     17  S   UNL d   1     -45.728  13.232  22.499  0.00  0.00     0.271 S 
ATOM     18  O   UNL d   1     -45.587  13.229  23.318  0.00  0.00    -0.200 OA
ATOM     19  O   UNL d   1     -45.890  13.236  21.562  0.00  0.00    -0.200 OA
BRANCH  17  20
ATOM     20  N   UNL d   1     -45.036  12.827  22.323  0.00  0.00    -0.229 N 
ATOM     21  C   UNL d   1     -44.745  12.167  22.727  0.00  0.00     0.092 A 
ATOM     22  C   UNL d   1     -44.039  11.936  22.370  0.00  0.00     0.021 A 
ATOM     23  C   UNL d   1     -43.889  12.456  21.737  0.00  0.00     0.021 A 
ATOM     24  C   UNL d   1     -44.505  13.002  21.713  0.00  0.00     0.092 A 
ENDBRANCH  17  20
ENDBRANCH   1  17
TORSDOF 3
ENDMDL
MODEL 5
REMARK VINA RESULT:      -6.6      9.277     10.004
REMARK  3 active torsions:
REMARK  status: ('A' for Active; 'I' for Inactive)
REMARK    1  A    between atoms: C_4  and  S_1 
REMARK    2  A    between atoms: N_6  and  S_1 
REMARK    3  A    between atoms: C_2  and  C_8 
ROOT
ATOM      1  C   UNL d   1     -39.239  14.255  18.559  0.00  0.00     0.104 A 
ATOM      2  C   UNL d   1     -39.236  14.440  19.363  0.00  0.00     0.015 A 
ATOM      3  C   UNL d   1     -38.717  14.043  19.872  0.00  0.00     0.025 A 
ATOM      4  C   UNL d   1     -38.729  13.677  18.263  0.00  0.00     0.012 A 
ATOM      5  C   UNL d   1     -38.207  13.466  19.580  0.00  0.00     0.002 A 
ATOM      6  C   UNL d   1     -38.216  13.285  18.773  0.00  0.00     0.001 A 
ATOM      7  C   UNL d   1     -38.735  13.494  17.460  0.00  0.00     0.001 C 
ENDROOT
BRANCH   3   8
ATOM      8  C   UNL d   1     -38.711  14.227  20.679  0.00  0.00     0.111 A 
ATOM      9  N   UNL d   1     -38.701  14.987  20.996  0.00  0.00    -0.239 NA
ATOM     10  C   UNL d   1     -38.698  14.918  21.822  0.00  0.00     0.088 A 
ATOM     11  C   UNL d   1     -38.689  15.473  22.425  0.00  0.00     0.020 A 
ATOM     12  C   UNL d   1     -38.706  14.111  22.005  0.00  0.00     0.049 A 
ATOM     13  C   UNL d   1     -38.687  15.234  23.206  0.00  0.00     0.002 A 
ATOM     14  C   UNL d   1     -38.695  14.425  23.395  0.00  0.00     0.001 A 
ATOM     15  C   UNL d   1     -38.704  13.864  22.790  0.00  0.00     0.008 A 
ATOM     16  S   UNL d   1     -38.714  13.685  21.290  0.00  0.00    -0.066 SA
ENDBRANCH   3   8
BRANCH   1  17
ATOM     17  S   UNL d   1     -39.756  14.648  18.041  0.00  0.00     0.271 S 
ATOM     18  O   UNL d   1     -40.300  14.024  18.119  0.00  0.00    -0.200 OA
ATOM     19  O   UNL d   1     -39.133  15.360  17.952  0.00  0.00    -0.200 OA
BRANCH  17  20
ATOM     20  N   UNL d   1     -40.232  15.072  17.526  0.00  0.00    -0.229 N 
ATOM     21  C   UNL d   1     -39.972  15.629  16.972  0.00  0.00     0.092 A 
ATOM     22  C   UNL d   1     -40.629  15.922  16.571  0.00  0.00     0.021 A 
ATOM     23  C   UNL d   1     -41.306  15.545  16.877  0.00  0.00     0.021 A 
ATOM     24  C   UNL d   1     -41.056  15.024  17.464  0.00  0.00     0.092 A 
ENDBRANCH  17  20
ENDBRANCH   1  17
TORSDOF 3
ENDMDL
MODEL 6
REMARK VINA RESULT:      -5.2      7.380     10.752
REMARK  3 active torsions:
REMARK  status: ('A' for Active; 'I' for Inactive)
REMARK    1  A    between atoms: C_4  and  S_1 
REMARK    2  A    between atoms: N_6  and  S_1 
REMARK    3  A    between atoms: C_2  and  C_8 
ROOT
ATOM      1  C   UNL d   1     -39.355  15.213  19.603  0.00  0.00     0.104 A 
ATOM      2  C   UNL d   1     -39.230  14.960  18.828  0.00  0.00     0.015 A 
ATOM      3  C   UNL d   1     -38.529  15.167  18.438  0.00  0.00     0.025 A 
ATOM      4  C   UNL d   1     -38.786  15.670  19.989  0.00  0.00     0.012 A 
ATOM      5  C   UNL d   1     -37.959  15.623  18.821  0.00  0.00     0.002 A 
ATOM      6  C   UNL d   1     -38.091  15.873  19.598  0.00  0.00     0.001 A 
ATOM      7  C   UNL d   1     -38.914  15.921  20.763  0.00  0.00     0.001 C 
ENDROOT
BRANCH   3   8
ATOM      8  C   UNL d   1     -38.400  14.915  17.661  0.00  0.00     0.111 A 
ATOM      9  N   UNL d   1     -38.356  15.406  17.001  0.00  0.00    -0.239 NA
ATOM     10  C   UNL d   1     -38.221  14.928  16.337  0.00  0.00     0.088 A 
ATOM     11  C   UNL d   1     -38.128  15.099  15.540  0.00  0.00     0.020 A 
ATOM     12  C   UNL d   1     -38.184  14.144  16.597  0.00  0.00     0.049 A 
ATOM     13  C   UNL d   1     -37.999  14.498  15.002  0.00  0.00     0.002 A 
ATOM     14  C   UNL d   1     -37.962  13.709  15.259  0.00  0.00     0.001 A 
ATOM     15  C   UNL d   1     -38.054  13.534  16.061  0.00  0.00     0.008 A 
ATOM     16  S   UNL d   1     -38.296  14.141  17.422  0.00  0.00    -0.066 SA
ENDBRANCH   3   8
BRANCH   1  17
ATOM     17  S   UNL d   1     -40.055  15.010  20.002  0.00  0.00     0.271 S 
ATOM     18  O   UNL d   1     -40.433  15.667  19.661  0.00  0.00    -0.200 OA
ATOM     19  O   UNL d   1     -39.621  14.260  20.392  0.00  0.00    -0.200 OA
BRANCH  17  20
ATOM     20  N   UNL d   1     -40.722  14.771  20.415  0.00  0.00    -0.229 N 
ATOM     21  C   UNL d   1     -40.862  14.011  20.711  0.00  0.00     0.092 A 
ATOM     22  C   UNL d   1     -41.595  14.012  21.087  0.00  0.00     0.021 A 
ATOM     23  C   UNL d   1     -41.915  14.778  21.027  0.00  0.00     0.021 A 
ATOM     24  C   UNL d   1     -41.374  15.241  20.612  0.00  0.00     0.092 A 
ENDBRANCH  17  20
ENDBRANCH   1  17
TORSDOF 3
ENDMDL
