MODEL 1
REMARK VINA RESULT:      -6.6      0.000      0.000
REMARK  5 active torsions:
REMARK  status: ('A' for Active; 'I' for Inactive)
REMARK    1  A    between atoms: C_2  and  N_1 
REMARK    2  A    between atoms: C_5  and  C_18 
REMARK       I    between atoms: N_9  and  C_5 
REMARK    3  A    between atoms: O_15  and  C_7 
REMARK    4  A    between atoms: C_13  and  N_9 
REMARK    5  A    between atoms: C_18  and  O_15 
ROOT
ATOM      1  C   UNL d   1     -41.609-123.171 -51.957  0.00  0.00     0.304 C 
ATOM      2  N   UNL d   1     -41.359-122.534 -52.420  0.00  0.00    -0.206 NA
ATOM      3  O   UNL d   1     -41.979-123.817 -52.312  0.00  0.00    -0.263 OA
ENDROOT
BRANCH   1   4
ATOM      4  C   UNL d   1     -41.490-123.160 -51.141  0.00  0.00     0.185 C 
BRANCH   4   5
ATOM      5  O   UNL d   1     -42.136-123.144 -50.630  0.00  0.00    -0.298 OA
BRANCH   5   6
ATOM      6  C   UNL d   1     -42.021-123.212 -49.816  0.00  0.00     0.122 A 
ATOM      7  C   UNL d   1     -42.679-123.213 -49.304  0.00  0.00     0.149 A 
ATOM      8  C   UNL d   1     -42.563-123.281 -48.490  0.00  0.00     0.026 A 
ATOM      9  C   UNL d   1     -41.789-123.349 -48.188  0.00  0.00     0.002 A 
ATOM     10  C   UNL d   1     -41.141-123.348 -48.698  0.00  0.00     0.002 A 
ATOM     11  C   UNL d   1     -41.257-123.280 -49.512  0.00  0.00     0.026 A 
BRANCH   7  12
ATOM     12  N   UNL d   1     -43.435-123.145 -49.609  0.00  0.00    -0.112 N 
ATOM     13  O   UNL d   1     -43.909-123.817 -49.677  0.00  0.00    -0.532 OA
ATOM     14  O   UNL d   1     -43.723-122.411 -49.849  0.00  0.00    -0.532 OA
ENDBRANCH   7  12
ENDBRANCH   5   6
ENDBRANCH   4   5
ENDBRANCH   1   4
BRANCH   2  15
ATOM     15  C   UNL d   1     -41.479-122.545 -53.236  0.00  0.00     0.087 A 
ATOM     16  C   UNL d   1     -41.959-121.975 -53.590  0.00  0.00     0.045 A 
ATOM     17  C   UNL d   1     -42.079-121.986 -54.406  0.00  0.00     0.121 A 
ATOM     18  O   UNL d   1     -42.519-121.499 -54.904  0.00  0.00    -0.299 OA
ATOM     19  C   UNL d   1     -41.718-122.567 -54.869  0.00  0.00     0.119 A 
ATOM     20  C   UNL d   1     -42.435-121.775 -55.677  0.00  0.00     0.304 A 
ATOM     21  O   UNL d   1     -41.937-122.438 -55.653  0.00  0.00    -0.300 OA
ATOM     22  C   UNL d   1     -41.243-123.130 -54.513  0.00  0.00     0.028 A 
ATOM     23  C   UNL d   1     -41.123-123.119 -53.697  0.00  0.00     0.021 A 
ENDBRANCH   2  15
TORSDOF 5
ENDMDL
MODEL 2
REMARK VINA RESULT:      -5.8      1.231      5.113
REMARK  5 active torsions:
REMARK  status: ('A' for Active; 'I' for Inactive)
REMARK    1  A    between atoms: C_2  and  N_1 
REMARK    2  A    between atoms: C_5  and  C_18 
REMARK       I    between atoms: N_9  and  C_5 
REMARK    3  A    between atoms: O_15  and  C_7 
REMARK    4  A    between atoms: C_13  and  N_9 
REMARK    5  A    between atoms: C_18  and  O_15 
ROOT
ATOM      1  C   UNL d   1     -41.511-122.658 -51.386  0.00  0.00     0.304 C 
ATOM      2  N   UNL d   1     -41.836-123.265 -50.930  0.00  0.00    -0.206 NA
ATOM      3  O   UNL d   1     -41.422-121.904 -51.064  0.00  0.00    -0.263 OA
ENDROOT
BRANCH   1   4
ATOM      4  C   UNL d   1     -41.275-122.806 -52.162  0.00  0.00     0.185 C 
BRANCH   4   5
ATOM      5  O   UNL d   1     -41.703-122.488 -52.791  0.00  0.00    -0.298 OA
BRANCH   5   6
ATOM      6  C   UNL d   1     -41.604-122.790 -53.552  0.00  0.00     0.122 A 
ATOM      7  C   UNL d   1     -41.890-122.360 -54.207  0.00  0.00     0.149 A 
ATOM      8  C   UNL d   1     -41.791-122.662 -54.969  0.00  0.00     0.026 A 
ATOM      9  C   UNL d   1     -41.407-123.394 -55.075  0.00  0.00     0.002 A 
ATOM     10  C   UNL d   1     -41.126-123.816 -54.424  0.00  0.00     0.002 A 
ATOM     11  C   UNL d   1     -41.225-123.514 -53.663  0.00  0.00     0.026 A 
BRANCH   7  12
ATOM     12  N   UNL d   1     -42.267-121.643 -54.093  0.00  0.00    -0.112 N 
ATOM     13  O   UNL d   1     -43.063-121.629 -53.880  0.00  0.00    -0.532 OA
ATOM     14  O   UNL d   1     -41.853-120.935 -54.191  0.00  0.00    -0.532 OA
ENDBRANCH   7  12
ENDBRANCH   5   6
ENDBRANCH   4   5
ENDBRANCH   1   4
BRANCH   2  15
ATOM     15  C   UNL d   1     -42.072-123.117 -50.153  0.00  0.00     0.087 A 
ATOM     16  C   UNL d   1     -41.555-123.273 -49.529  0.00  0.00     0.045 A 
ATOM     17  C   UNL d   1     -41.791-123.125 -48.753  0.00  0.00     0.121 A 
ATOM     18  O   UNL d   1     -41.403-123.224 -48.032  0.00  0.00    -0.299 OA
ATOM     19  C   UNL d   1     -42.543-122.820 -48.600  0.00  0.00     0.119 A 
ATOM     20  C   UNL d   1     -41.912-122.982 -47.429  0.00  0.00     0.304 A 
ATOM     21  O   UNL d   1     -42.619-122.732 -47.784  0.00  0.00    -0.300 OA
ATOM     22  C   UNL d   1     -43.051-122.667 -49.222  0.00  0.00     0.028 A 
ATOM     23  C   UNL d   1     -42.816-122.816 -49.999  0.00  0.00     0.021 A 
ENDBRANCH   2  15
TORSDOF 5
ENDMDL
