MODEL 1
REMARK VINA RESULT:      -7.3      0.000      0.000
REMARK  4 active torsions:
REMARK  status: ('A' for Active; 'I' for Inactive)
REMARK    1  A    between atoms: C_2  and  N_1 
REMARK    2  A    between atoms: N_7  and  C_3 
REMARK    3  A    between atoms: C_12  and  N_7 
REMARK    4  A    between atoms: C_14  and  C_12 
ROOT
ATOM      1  C   UNL d   1     -49.737  14.088  22.209  0.00  0.00     0.200 A 
ATOM      2  C   UNL d   1     -49.025  14.294  22.592  0.00  0.00     0.189 A 
ATOM      3  C   UNL d   1     -50.353  14.621  22.207  0.00  0.00     0.210 A 
ATOM      4  N   UNL d   1     -48.948  15.027  22.962  0.00  0.00    -0.203 NA
ATOM      5  N   UNL d   1     -50.292  15.346  22.566  0.00  0.00    -0.202 NA
ATOM      6  C   UNL d   1     -49.580  15.551  22.949  0.00  0.00     0.202 A 
ATOM      7  N   UNL d   1     -51.064  14.416  21.824  0.00  0.00    -0.125 N 
ENDROOT
BRANCH   2   8
ATOM      8  N   UNL d   1     -48.395  13.774  22.607  0.00  0.00    -0.224 NA
BRANCH   8   9
ATOM      9  C   UNL d   1     -47.692  13.982  22.967  0.00  0.00     0.101 C 
BRANCH   9  10
ATOM     10  C   UNL d   1     -47.054  13.454  22.970  0.00  0.00     0.019 A 
ATOM     11  C   UNL d   1     -46.411  13.592  22.501  0.00  0.00     0.004 A 
ATOM     12  C   UNL d   1     -45.770  13.061  22.504  0.00  0.00     0.030 A 
ATOM     13  C   UNL d   1     -45.797  12.394  22.990  0.00  0.00     0.140 A 
ATOM     14  C   UNL d   1     -46.440  12.256  23.459  0.00  0.00     0.030 A 
ATOM     15  F   UNL d   1     -45.161  11.873  22.989  0.00  0.00    -0.204 F 
ATOM     16  C   UNL d   1     -47.076  12.780  23.458  0.00  0.00     0.004 A 
ENDBRANCH   9  10
ENDBRANCH   8   9
ENDBRANCH   2   8
BRANCH   1  17
ATOM     17  N   UNL d   1     -49.818  13.363  21.842  0.00  0.00    -0.107 N 
ATOM     18  O   UNL d   1     -49.557  13.275  21.078  0.00  0.00    -0.531 OA
ATOM     19  O   UNL d   1     -50.160  12.734  22.242  0.00  0.00    -0.531 OA
ENDBRANCH   1  17
TORSDOF 4
ENDMDL
MODEL 2
REMARK VINA RESULT:      -6.7      2.485      4.204
REMARK  4 active torsions:
REMARK  status: ('A' for Active; 'I' for Inactive)
REMARK    1  A    between atoms: C_2  and  N_1 
REMARK    2  A    between atoms: N_7  and  C_3 
REMARK    3  A    between atoms: C_12  and  N_7 
REMARK    4  A    between atoms: C_14  and  C_12 
ROOT
ATOM      1  C   UNL d   1     -46.816  12.486  23.217  0.00  0.00     0.200 A 
ATOM      2  C   UNL d   1     -47.647  12.486  23.284  0.00  0.00     0.189 A 
ATOM      3  C   UNL d   1     -46.405  11.806  23.392  0.00  0.00     0.210 A 
ATOM      4  N   UNL d   1     -48.045  11.804  23.526  0.00  0.00    -0.203 NA
ATOM      5  N   UNL d   1     -46.781  11.128  23.630  0.00  0.00    -0.202 NA
ATOM      6  C   UNL d   1     -47.613  11.128  23.698  0.00  0.00     0.202 A 
ATOM      7  N   UNL d   1     -45.574  11.806  23.324  0.00  0.00    -0.125 N 
ENDROOT
BRANCH   2   8
ATOM      8  N   UNL d   1     -48.079  13.158  23.113  0.00  0.00    -0.224 NA
BRANCH   8   9
ATOM      9  C   UNL d   1     -48.896  13.145  23.137  0.00  0.00     0.101 C 
BRANCH   9  10
ATOM     10  C   UNL d   1     -49.327  13.842  23.019  0.00  0.00     0.019 A 
ATOM     11  C   UNL d   1     -49.572  14.046  22.276  0.00  0.00     0.004 A 
ATOM     12  C   UNL d   1     -50.005  14.748  22.159  0.00  0.00     0.030 A 
ATOM     13  C   UNL d   1     -50.181  15.231  22.804  0.00  0.00     0.140 A 
ATOM     14  C   UNL d   1     -49.936  15.027  23.546  0.00  0.00     0.030 A 
ATOM     15  F   UNL d   1     -50.609  15.922  22.681  0.00  0.00    -0.204 F 
ATOM     16  C   UNL d   1     -49.507  14.333  23.666  0.00  0.00     0.004 A 
ENDBRANCH   9  10
ENDBRANCH   8   9
ENDBRANCH   2   8
BRANCH   1  17
ATOM     17  N   UNL d   1     -46.418  13.159  22.978  0.00  0.00    -0.107 N 
ATOM     18  O   UNL d   1     -46.161  13.686  23.540  0.00  0.00    -0.531 OA
ATOM     19  O   UNL d   1     -46.281  13.296  22.181  0.00  0.00    -0.531 OA
ENDBRANCH   1  17
TORSDOF 4
ENDMDL
MODEL 3
REMARK VINA RESULT:      -6.7      1.398      1.673
REMARK  4 active torsions:
REMARK  status: ('A' for Active; 'I' for Inactive)
REMARK    1  A    between atoms: C_2  and  N_1 
REMARK    2  A    between atoms: N_7  and  C_3 
REMARK    3  A    between atoms: C_12  and  N_7 
REMARK    4  A    between atoms: C_14  and  C_12 
ROOT
ATOM      1  C   UNL d   1     -49.697  12.520  23.226  0.00  0.00     0.200 A 
ATOM      2  C   UNL d   1     -49.100  13.102  23.258  0.00  0.00     0.189 A 
ATOM      3  C   UNL d   1     -50.465  12.733  23.392  0.00  0.00     0.210 A 
ATOM      4  N   UNL d   1     -49.288  13.880  23.455  0.00  0.00    -0.203 NA
ATOM      5  N   UNL d   1     -50.665  13.494  23.587  0.00  0.00    -0.202 NA
ATOM      6  C   UNL d   1     -50.068  14.076  23.619  0.00  0.00     0.202 A 
ATOM      7  N   UNL d   1     -51.062  12.151  23.360  0.00  0.00    -0.125 N 
ENDROOT
BRANCH   2   8
ATOM      8  N   UNL d   1     -48.323  12.910  23.095  0.00  0.00    -0.224 NA
BRANCH   8   9
ATOM      9  C   UNL d   1     -47.723  13.444  23.241  0.00  0.00     0.101 C 
BRANCH   9  10
ATOM     10  C   UNL d   1     -46.959  13.301  22.955  0.00  0.00     0.019 A 
ATOM     11  C   UNL d   1     -46.545  12.655  23.209  0.00  0.00     0.004 A 
ATOM     12  C   UNL d   1     -45.777  12.512  22.920  0.00  0.00     0.030 A 
ATOM     13  C   UNL d   1     -45.443  13.034  22.375  0.00  0.00     0.140 A 
ATOM     14  C   UNL d   1     -45.857  13.680  22.121  0.00  0.00     0.030 A 
ATOM     15  F   UNL d   1     -44.685  12.888  22.094  0.00  0.00    -0.204 F 
ATOM     16  C   UNL d   1     -46.617  13.824  22.405  0.00  0.00     0.004 A 
ENDBRANCH   9  10
ENDBRANCH   8   9
ENDBRANCH   2   8
BRANCH   1  17
ATOM     17  N   UNL d   1     -49.516  11.747  23.031  0.00  0.00    -0.107 N 
ATOM     18  O   UNL d   1     -49.494  11.532  22.248  0.00  0.00    -0.531 OA
ATOM     19  O   UNL d   1     -49.359  11.200  23.621  0.00  0.00    -0.531 OA
ENDBRANCH   1  17
TORSDOF 4
ENDMDL
MODEL 4
REMARK VINA RESULT:      -5.3      9.032      9.879
REMARK  4 active torsions:
REMARK  status: ('A' for Active; 'I' for Inactive)
REMARK    1  A    between atoms: C_2  and  N_1 
REMARK    2  A    between atoms: N_7  and  C_3 
REMARK    3  A    between atoms: C_12  and  N_7 
REMARK    4  A    between atoms: C_14  and  C_12 
ROOT
ATOM      1  C   UNL d   1     -39.625  14.627  17.854  0.00  0.00     0.200 A 
ATOM      2  C   UNL d   1     -39.218  14.898  18.529  0.00  0.00     0.189 A 
ATOM      3  C   UNL d   1     -39.514  15.012  17.145  0.00  0.00     0.210 A 
ATOM      4  N   UNL d   1     -38.712  15.547  18.477  0.00  0.00    -0.203 NA
ATOM      5  N   UNL d   1     -39.020  15.651  17.078  0.00  0.00    -0.202 NA
ATOM      6  C   UNL d   1     -38.613  15.922  17.754  0.00  0.00     0.202 A 
ATOM      7  N   UNL d   1     -39.921  14.740  16.469  0.00  0.00    -0.125 N 
ENDROOT
BRANCH   2   8
ATOM      8  N   UNL d   1     -39.315  14.527  19.250  0.00  0.00    -0.224 NA
BRANCH   8   9
ATOM      9  C   UNL d   1     -38.947  14.815  19.920  0.00  0.00     0.101 C 
BRANCH   9  10
ATOM     10  C   UNL d   1     -39.014  14.410  20.639  0.00  0.00     0.019 A 
ATOM     11  C   UNL d   1     -39.655  14.532  21.116  0.00  0.00     0.004 A 
ATOM     12  C   UNL d   1     -39.720  14.124  21.839  0.00  0.00     0.030 A 
ATOM     13  C   UNL d   1     -39.128  13.595  22.064  0.00  0.00     0.140 A 
ATOM     14  C   UNL d   1     -38.487  13.473  21.587  0.00  0.00     0.030 A 
ATOM     15  F   UNL d   1     -39.198  13.195  22.778  0.00  0.00    -0.204 F 
ATOM     16  C   UNL d   1     -38.419  13.876  20.871  0.00  0.00     0.004 A 
ENDBRANCH   9  10
ENDBRANCH   8   9
ENDBRANCH   2   8
BRANCH   1  17
ATOM     17  N   UNL d   1     -40.128  13.984  17.900  0.00  0.00    -0.107 N 
ATOM     18  O   UNL d   1     -39.825  13.237  17.805  0.00  0.00    -0.531 OA
ATOM     19  O   UNL d   1     -40.928  14.097  18.041  0.00  0.00    -0.531 OA
ENDBRANCH   1  17
TORSDOF 4
ENDMDL
MODEL 5
REMARK VINA RESULT:      -5.2      8.960     10.331
REMARK  4 active torsions:
REMARK  status: ('A' for Active; 'I' for Inactive)
REMARK    1  A    between atoms: C_2  and  N_1 
REMARK    2  A    between atoms: N_7  and  C_3 
REMARK    3  A    between atoms: C_12  and  N_7 
REMARK    4  A    between atoms: C_14  and  C_12 
ROOT
ATOM      1  C   UNL d   1     -38.997  14.400  17.306  0.00  0.00     0.200 A 
ATOM      2  C   UNL d   1     -39.207  15.126  17.660  0.00  0.00     0.189 A 
ATOM      3  C   UNL d   1     -38.698  14.401  16.549  0.00  0.00     0.210 A 
ATOM      4  N   UNL d   1     -39.111  15.833  17.246  0.00  0.00    -0.203 NA
ATOM      5  N   UNL d   1     -38.599  15.088  16.130  0.00  0.00    -0.202 NA
ATOM      6  C   UNL d   1     -38.808  15.814  16.483  0.00  0.00     0.202 A 
ATOM      7  N   UNL d   1     -38.489  13.676  16.195  0.00  0.00    -0.125 N 
ENDROOT
BRANCH   2   8
ATOM      8  N   UNL d   1     -39.508  15.147  18.418  0.00  0.00    -0.224 NA
BRANCH   8   9
ATOM      9  C   UNL d   1     -39.661  15.861  18.786  0.00  0.00     0.101 C 
BRANCH   9  10
ATOM     10  C   UNL d   1     -39.987  15.876  19.547  0.00  0.00     0.019 A 
ATOM     11  C   UNL d   1     -40.789  15.893  19.644  0.00  0.00     0.004 A 
ATOM     12  C   UNL d   1     -41.116  15.908  20.410  0.00  0.00     0.030 A 
ATOM     13  C   UNL d   1     -40.616  15.905  21.067  0.00  0.00     0.140 A 
ATOM     14  C   UNL d   1     -39.814  15.888  20.969  0.00  0.00     0.030 A 
ATOM     15  F   UNL d   1     -40.944  15.920  21.820  0.00  0.00    -0.204 F 
ATOM     16  C   UNL d   1     -39.487  15.873  20.212  0.00  0.00     0.004 A 
ENDBRANCH   9  10
ENDBRANCH   8   9
ENDBRANCH   2   8
BRANCH   1  17
ATOM     17  N   UNL d   1     -39.090  13.697  17.712  0.00  0.00    -0.107 N 
ATOM     18  O   UNL d   1     -38.465  13.401  18.138  0.00  0.00    -0.531 OA
ATOM     19  O   UNL d   1     -39.806  13.298  17.686  0.00  0.00    -0.531 OA
ENDBRANCH   1  17
TORSDOF 4
ENDMDL
MODEL 6
REMARK VINA RESULT:      -4.9      9.252     10.651
REMARK  4 active torsions:
REMARK  status: ('A' for Active; 'I' for Inactive)
REMARK    1  A    between atoms: C_2  and  N_1 
REMARK    2  A    between atoms: N_7  and  C_3 
REMARK    3  A    between atoms: C_12  and  N_7 
REMARK    4  A    between atoms: C_14  and  C_12 
ROOT
ATOM      1  C   UNL d   1     -39.968  14.378  19.130  0.00  0.00     0.200 A 
ATOM      2  C   UNL d   1     -39.202  14.298  18.809  0.00  0.00     0.189 A 
ATOM      3  C   UNL d   1     -40.053  14.447  19.937  0.00  0.00     0.210 A 
ATOM      4  N   UNL d   1     -38.543  14.289  19.304  0.00  0.00    -0.203 NA
ATOM      5  N   UNL d   1     -39.415  14.439  20.436  0.00  0.00    -0.202 NA
ATOM      6  C   UNL d   1     -38.649  14.359  20.115  0.00  0.00     0.202 A 
ATOM      7  N   UNL d   1     -40.819  14.527  20.257  0.00  0.00    -0.125 N 
ENDROOT
BRANCH   2   8
ATOM      8  N   UNL d   1     -39.094  14.228  18.002  0.00  0.00    -0.224 NA
BRANCH   8   9
ATOM      9  C   UNL d   1     -38.343  14.179  17.686  0.00  0.00     0.101 C 
BRANCH   9  10
ATOM     10  C   UNL d   1     -38.241  14.043  16.875  0.00  0.00     0.019 A 
ATOM     11  C   UNL d   1     -38.071  13.300  16.606  0.00  0.00     0.004 A 
ATOM     12  C   UNL d   1     -37.969  13.166  15.791  0.00  0.00     0.030 A 
ATOM     13  C   UNL d   1     -38.042  13.795  15.262  0.00  0.00     0.140 A 
ATOM     14  C   UNL d   1     -38.211  14.537  15.531  0.00  0.00     0.030 A 
ATOM     15  F   UNL d   1     -37.940  13.655  14.458  0.00  0.00    -0.204 F 
ATOM     16  C   UNL d   1     -38.313  14.674  16.337  0.00  0.00     0.004 A 
ENDBRANCH   9  10
ENDBRANCH   8   9
ENDBRANCH   2   8
BRANCH   1  17
ATOM     17  N   UNL d   1     -40.625  14.388  18.643  0.00  0.00    -0.107 N 
ATOM     18  O   UNL d   1     -40.895  15.100  18.359  0.00  0.00    -0.531 OA
ATOM     19  O   UNL d   1     -41.003  13.688  18.448  0.00  0.00    -0.531 OA
ENDBRANCH   1  17
TORSDOF 4
ENDMDL
MODEL 7
REMARK VINA RESULT:      -4.9      8.492      9.826
REMARK  4 active torsions:
REMARK  status: ('A' for Active; 'I' for Inactive)
REMARK    1  A    between atoms: C_2  and  N_1 
REMARK    2  A    between atoms: N_7  and  C_3 
REMARK    3  A    between atoms: C_12  and  N_7 
REMARK    4  A    between atoms: C_14  and  C_12 
ROOT
ATOM      1  C   UNL d   1     -39.647  15.422  20.755  0.00  0.00     0.200 A 
ATOM      2  C   UNL d   1     -40.079  15.238  20.065  0.00  0.00     0.189 A 
ATOM      3  C   UNL d   1     -40.040  15.738  21.395  0.00  0.00     0.210 A 
ATOM      4  N   UNL d   1     -40.892  15.374  20.035  0.00  0.00    -0.203 NA
ATOM      5  N   UNL d   1     -40.839  15.877  21.380  0.00  0.00    -0.202 NA
ATOM      6  C   UNL d   1     -41.271  15.693  20.691  0.00  0.00     0.202 A 
ATOM      7  N   UNL d   1     -39.608  15.922  22.084  0.00  0.00    -0.125 N 
ENDROOT
BRANCH   2   8
ATOM      8  N   UNL d   1     -39.705  14.921  19.412  0.00  0.00    -0.224 NA
BRANCH   8   9
ATOM      9  C   UNL d   1     -40.135  14.693  18.756  0.00  0.00     0.101 C 
BRANCH   9  10
ATOM     10  C   UNL d   1     -39.746  14.437  18.072  0.00  0.00     0.019 A 
ATOM     11  C   UNL d   1     -39.457  13.684  18.027  0.00  0.00     0.004 A 
ATOM     12  C   UNL d   1     -39.066  13.427  17.338  0.00  0.00     0.030 A 
ATOM     13  C   UNL d   1     -38.975  13.947  16.704  0.00  0.00     0.140 A 
ATOM     14  C   UNL d   1     -39.264  14.700  16.748  0.00  0.00     0.030 A 
ATOM     15  F   UNL d   1     -38.588  13.688  16.027  0.00  0.00    -0.204 F 
ATOM     16  C   UNL d   1     -39.652  14.957  17.429  0.00  0.00     0.004 A 
ENDBRANCH   9  10
ENDBRANCH   8   9
ENDBRANCH   2   8
BRANCH   1  17
ATOM     17  N   UNL d   1     -38.842  15.289  20.790  0.00  0.00    -0.107 N 
ATOM     18  O   UNL d   1     -38.334  15.875  20.547  0.00  0.00    -0.531 OA
ATOM     19  O   UNL d   1     -38.554  14.573  21.067  0.00  0.00    -0.531 OA
ENDBRANCH   1  17
TORSDOF 4
ENDMDL
MODEL 8
REMARK VINA RESULT:      -4.9      9.000      9.917
REMARK  4 active torsions:
REMARK  status: ('A' for Active; 'I' for Inactive)
REMARK    1  A    between atoms: C_2  and  N_1 
REMARK    2  A    between atoms: N_7  and  C_3 
REMARK    3  A    between atoms: C_12  and  N_7 
REMARK    4  A    between atoms: C_14  and  C_12 
ROOT
ATOM      1  C   UNL d   1     -39.461  14.323  20.979  0.00  0.00     0.200 A 
ATOM      2  C   UNL d   1     -39.199  14.244  20.191  0.00  0.00     0.189 A 
ATOM      3  C   UNL d   1     -39.022  13.987  21.577  0.00  0.00     0.210 A 
ATOM      4  N   UNL d   1     -38.505  13.831  20.023  0.00  0.00    -0.203 NA
ATOM      5  N   UNL d   1     -38.338  13.578  21.427  0.00  0.00    -0.202 NA
ATOM      6  C   UNL d   1     -38.076  13.499  20.640  0.00  0.00     0.202 A 
ATOM      7  N   UNL d   1     -39.284  14.066  22.365  0.00  0.00    -0.125 N 
ENDROOT
BRANCH   2   8
ATOM      8  N   UNL d   1     -39.624  14.573  19.576  0.00  0.00    -0.224 NA
BRANCH   8   9
ATOM      9  C   UNL d   1     -39.372  14.487  18.804  0.00  0.00     0.101 C 
BRANCH   9  10
ATOM     10  C   UNL d   1     -39.800  14.836  18.186  0.00  0.00     0.019 A 
ATOM     11  C   UNL d   1     -40.444  14.460  17.875  0.00  0.00     0.004 A 
ATOM     12  C   UNL d   1     -40.872  14.812  17.254  0.00  0.00     0.030 A 
ATOM     13  C   UNL d   1     -40.635  15.545  16.959  0.00  0.00     0.140 A 
ATOM     14  C   UNL d   1     -39.991  15.922  17.271  0.00  0.00     0.030 A 
ATOM     15  F   UNL d   1     -41.062  15.888  16.346  0.00  0.00    -0.204 F 
ATOM     16  C   UNL d   1     -39.565  15.576  17.886  0.00  0.00     0.004 A 
ENDBRANCH   9  10
ENDBRANCH   8   9
ENDBRANCH   2   8
BRANCH   1  17
ATOM     17  N   UNL d   1     -40.148  14.731  21.151  0.00  0.00    -0.107 N 
ATOM     18  O   UNL d   1     -40.106  15.527  21.309  0.00  0.00    -0.531 OA
ATOM     19  O   UNL d   1     -40.868  14.339  21.163  0.00  0.00    -0.531 OA
ENDBRANCH   1  17
TORSDOF 4
ENDMDL
