MODEL 1
REMARK VINA RESULT:      -3.6      0.000      0.000
REMARK  7 active torsions:
REMARK  status: ('A' for Active; 'I' for Inactive)
REMARK    1  A    between atoms: N_4  and  C_2 
REMARK    2  A    between atoms: C_8  and  C_3 
REMARK       I    between atoms: C_7  and  N_4 
REMARK    3  A    between atoms: C_13  and  C_7 
REMARK    4  A    between atoms: S_11  and  C_16 
REMARK    5  A    between atoms: C_12  and  S_11 
REMARK    6  A    between atoms: C_19  and  C_13 
REMARK    7  A    between atoms: C_16  and  C_19 
ROOT
ATOM      1  N   UNL d   1      32.746  19.030 -23.426  0.00  0.00    -0.183 NA
ATOM      2  C   UNL d   1      33.066  19.158 -22.670  0.00  0.00     0.281 C 
ATOM      3  O   UNL d   1      33.216  18.534 -22.166  0.00  0.00    -0.265 OA
ENDROOT
BRANCH   1   4
ATOM      4  C   UNL d   1      32.580  18.255 -23.664  0.00  0.00     0.197 A 
ATOM      5  N   UNL d   1      31.835  17.895 -23.652  0.00  0.00    -0.219 NA
ATOM      6  C   UNL d   1      31.928  17.125 -23.937  0.00  0.00     0.108 A 
ATOM      7  C   UNL d   1      32.724  17.014 -24.122  0.00  0.00     0.059 A 
ATOM      8  S   UNL d   1      33.131  17.710 -23.955  0.00  0.00    -0.046 SA
BRANCH   6   9
ATOM      9  C   UNL d   1      31.335  16.573 -24.019  0.00  0.00     0.100 A 
ATOM     10  N   UNL d   1      30.856  16.576 -24.701  0.00  0.00    -0.242 NA
ATOM     11  C   UNL d   1      30.257  16.012 -24.777  0.00  0.00     0.099 A 
ATOM     12  C   UNL d   1      30.134  15.453 -24.183  0.00  0.00     0.021 A 
ATOM     13  C   UNL d   1      30.611  15.455 -23.509  0.00  0.00     0.003 A 
ATOM     14  C   UNL d   1      31.213  16.017 -23.428  0.00  0.00     0.021 A 
ENDBRANCH   6   9
ENDBRANCH   1   4
BRANCH   2  15
ATOM     15  C   UNL d   1      33.232  19.935 -22.435  0.00  0.00     0.063 C 
BRANCH  15  16
ATOM     16  C   UNL d   1      32.967  20.203 -21.695  0.00  0.00     0.012 C 
BRANCH  16  17
ATOM     17  C   UNL d   1      32.930  21.009 -21.535  0.00  0.00     0.036 C 
BRANCH  17  18
ATOM     18  S   UNL d   1      32.652  21.276 -20.812  0.00  0.00    -0.086 SA
BRANCH  18  19
ATOM     19  C   UNL d   1      32.609  22.085 -20.659  0.00  0.00     0.029 A 
ATOM     20  C   UNL d   1      33.058  22.411 -20.048  0.00  0.00     0.005 A 
ATOM     21  C   UNL d   1      33.017  23.218 -19.891  0.00  0.00    -0.012 A 
ATOM     22  C   UNL d   1      32.527  23.702 -20.345  0.00  0.00     0.026 A 
ATOM     23  C   UNL d   1      32.078  23.378 -20.954  0.00  0.00    -0.012 A 
ATOM     24  C   UNL d   1      32.118  22.569 -21.112  0.00  0.00     0.005 A 
ENDBRANCH  18  19
ENDBRANCH  17  18
ENDBRANCH  16  17
ENDBRANCH  15  16
ENDBRANCH   2  15
TORSDOF 7
ENDMDL
MODEL 2
REMARK VINA RESULT:      -2.3      1.572      6.428
REMARK  7 active torsions:
REMARK  status: ('A' for Active; 'I' for Inactive)
REMARK    1  A    between atoms: N_4  and  C_2 
REMARK    2  A    between atoms: C_8  and  C_3 
REMARK       I    between atoms: C_7  and  N_4 
REMARK    3  A    between atoms: C_13  and  C_7 
REMARK    4  A    between atoms: S_11  and  C_16 
REMARK    5  A    between atoms: C_12  and  S_11 
REMARK    6  A    between atoms: C_19  and  C_13 
REMARK    7  A    between atoms: C_16  and  C_19 
ROOT
ATOM      1  N   UNL d   1      33.092  19.929 -21.441  0.00  0.00    -0.183 NA
ATOM      2  C   UNL d   1      33.166  19.682 -22.231  0.00  0.00     0.281 C 
ATOM      3  O   UNL d   1      33.224  20.226 -22.837  0.00  0.00    -0.265 OA
ENDROOT
BRANCH   1   4
ATOM      4  C   UNL d   1      33.077  20.739 -21.274  0.00  0.00     0.197 A 
ATOM      5  N   UNL d   1      32.965  21.077 -20.527  0.00  0.00    -0.219 NA
ATOM      6  C   UNL d   1      32.992  21.898 -20.621  0.00  0.00     0.108 A 
ATOM      7  C   UNL d   1      33.119  22.061 -21.419  0.00  0.00     0.059 A 
ATOM      8  S   UNL d   1      33.172  21.348 -21.827  0.00  0.00    -0.046 SA
BRANCH   6   9
ATOM      9  C   UNL d   1      32.906  22.447 -20.026  0.00  0.00     0.100 A 
ATOM     10  N   UNL d   1      33.240  22.304 -19.276  0.00  0.00    -0.242 NA
ATOM     11  C   UNL d   1      33.149  22.867 -18.678  0.00  0.00     0.099 A 
ATOM     12  C   UNL d   1      32.732  23.563 -18.823  0.00  0.00     0.021 A 
ATOM     13  C   UNL d   1      32.403  23.701 -19.568  0.00  0.00     0.003 A 
ATOM     14  C   UNL d   1      32.491  23.140 -20.171  0.00  0.00     0.021 A 
ENDBRANCH   6   9
ENDBRANCH   1   4
BRANCH   2  15
ATOM     15  C   UNL d   1      33.180  18.870 -22.395  0.00  0.00     0.063 C 
BRANCH  15  16
ATOM     16  C   UNL d   1      32.829  18.588 -23.093  0.00  0.00     0.012 C 
BRANCH  16  17
ATOM     17  C   UNL d   1      32.492  17.838 -23.114  0.00  0.00     0.036 C 
BRANCH  17  18
ATOM     18  S   UNL d   1      32.499  17.400 -23.805  0.00  0.00    -0.086 SA
BRANCH  18  19
ATOM     19  C   UNL d   1      31.918  16.831 -23.941  0.00  0.00     0.029 A 
ATOM     20  C   UNL d   1      31.893  16.151 -23.473  0.00  0.00     0.005 A 
ATOM     21  C   UNL d   1      31.314  15.580 -23.605  0.00  0.00    -0.012 A 
ATOM     22  C   UNL d   1      30.758  15.688 -24.205  0.00  0.00     0.026 A 
ATOM     23  C   UNL d   1      30.782  16.365 -24.673  0.00  0.00    -0.012 A 
ATOM     24  C   UNL d   1      31.362  16.939 -24.541  0.00  0.00     0.005 A 
ENDBRANCH  18  19
ENDBRANCH  17  18
ENDBRANCH  16  17
ENDBRANCH  15  16
ENDBRANCH   2  15
TORSDOF 7
ENDMDL
