MODEL 1
REMARK VINA RESULT:      -7.8      0.000      0.000
REMARK  3 active torsions:
REMARK  status: ('A' for Active; 'I' for Inactive)
REMARK    1  A    between atoms: N_3  and  C_1 
REMARK       I    between atoms: C_5  and  N_3 
REMARK    2  A    between atoms: C_9  and  C_5 
REMARK    3  A    between atoms: O_22  and  C_20 
ROOT
ATOM      1  N   UNL d   1     -48.150  13.111  23.371  0.00  0.00    -0.183 NA
ATOM      2  C   UNL d   1     -48.551  13.253  22.664  0.00  0.00     0.281 C 
ATOM      3  O   UNL d   1     -48.310  12.852  21.961  0.00  0.00    -0.265 OA
ENDROOT
BRANCH   1   4
ATOM      4  C   UNL d   1     -47.517  12.583  23.400  0.00  0.00     0.197 A 
ATOM      5  N   UNL d   1     -47.579  11.780  23.600  0.00  0.00    -0.221 NA
ATOM      6  C   UNL d   1     -46.812  11.461  23.559  0.00  0.00     0.090 A 
ATOM      7  C   UNL d   1     -46.533  10.698  23.698  0.00  0.00     0.022 A 
ATOM      8  C   UNL d   1     -46.297  12.066  23.338  0.00  0.00     0.052 A 
ATOM      9  C   UNL d   1     -45.720  10.547  23.610  0.00  0.00     0.026 A 
ATOM     10  C   UNL d   1     -45.211  11.146  23.391  0.00  0.00     0.095 A 
ATOM     11  C   UNL d   1     -45.485  11.917  23.250  0.00  0.00     0.032 A 
ATOM     12  S   UNL d   1     -46.739  12.747  23.243  0.00  0.00    -0.047 SA
BRANCH  10  13
ATOM     13  O   UNL d   1     -44.372  10.998  23.299  0.00  0.00    -0.328 OA
ATOM     14  C   UNL d   1     -44.054  10.272  23.575  0.00  0.00     0.181 C 
ENDBRANCH  10  13
ENDBRANCH   1   4
BRANCH   2  15
ATOM     15  C   UNL d   1     -49.183  13.781  22.635  0.00  0.00     0.059 A 
ATOM     16  C   UNL d   1     -49.251  14.365  23.209  0.00  0.00     0.013 A 
ATOM     17  C   UNL d   1     -49.874  14.896  23.191  0.00  0.00     0.049 A 
ATOM     18  S   UNL d   1     -50.081  15.530  23.686  0.00  0.00    -0.064 SA
ATOM     19  C   UNL d   1     -50.450  14.843  22.581  0.00  0.00     0.088 A 
ATOM     20  C   UNL d   1     -50.779  15.859  23.377  0.00  0.00     0.135 A 
ATOM     21  N   UNL d   1     -51.012  15.448  22.705  0.00  0.00    -0.236 NA
ATOM     22  C   UNL d   1     -50.393  14.257  21.996  0.00  0.00     0.020 A 
ATOM     23  C   UNL d   1     -49.759  13.729  22.026  0.00  0.00     0.006 A 
ENDBRANCH   2  15
TORSDOF 3
ENDMDL
MODEL 2
REMARK VINA RESULT:      -6.4      1.562      5.393
REMARK  3 active torsions:
REMARK  status: ('A' for Active; 'I' for Inactive)
REMARK    1  A    between atoms: N_3  and  C_1 
REMARK       I    between atoms: C_5  and  N_3 
REMARK    2  A    between atoms: C_9  and  C_5 
REMARK    3  A    between atoms: O_22  and  C_20 
ROOT
ATOM      1  N   UNL d   1     -47.017  12.741  22.247  0.00  0.00    -0.183 NA
ATOM      2  C   UNL d   1     -46.637  12.559  22.956  0.00  0.00     0.281 C 
ATOM      3  O   UNL d   1     -46.998  12.772  23.688  0.00  0.00    -0.265 OA
ENDROOT
BRANCH   1   4
ATOM      4  C   UNL d   1     -47.745  13.129  22.244  0.00  0.00     0.197 A 
ATOM      5  N   UNL d   1     -48.463  12.789  22.002  0.00  0.00    -0.221 NA
ATOM      6  C   UNL d   1     -49.048  13.372  22.090  0.00  0.00     0.090 A 
ATOM      7  C   UNL d   1     -49.859  13.356  21.938  0.00  0.00     0.022 A 
ATOM      8  C   UNL d   1     -48.686  14.053  22.381  0.00  0.00     0.052 A 
ATOM      9  C   UNL d   1     -50.307  14.040  22.085  0.00  0.00     0.026 A 
ATOM     10  C   UNL d   1     -49.948  14.715  22.373  0.00  0.00     0.095 A 
ATOM     11  C   UNL d   1     -49.133  14.739  22.528  0.00  0.00     0.032 A 
ATOM     12  S   UNL d   1     -47.890  13.893  22.471  0.00  0.00    -0.047 SA
BRANCH  10  13
ATOM     13  O   UNL d   1     -50.403  15.423  22.526  0.00  0.00    -0.328 OA
ATOM     14  C   UNL d   1     -50.513  15.673  23.321  0.00  0.00     0.181 C 
ENDBRANCH  10  13
ENDBRANCH   1   4
BRANCH   2  15
ATOM     15  C   UNL d   1     -45.909  12.171  22.958  0.00  0.00     0.059 A 
ATOM     16  C   UNL d   1     -45.836  11.449  23.343  0.00  0.00     0.013 A 
ATOM     17  C   UNL d   1     -45.119  11.054  23.353  0.00  0.00     0.049 A 
ATOM     18  S   UNL d   1     -44.884  10.331  23.690  0.00  0.00    -0.064 SA
ATOM     19  C   UNL d   1     -44.452  11.389  22.967  0.00  0.00     0.088 A 
ATOM     20  C   UNL d   1     -44.080  10.231  23.508  0.00  0.00     0.135 A 
ATOM     21  N   UNL d   1     -43.807  10.868  23.069  0.00  0.00    -0.236 NA
ATOM     22  C   UNL d   1     -44.514  12.118  22.575  0.00  0.00     0.020 A 
ATOM     23  C   UNL d   1     -45.243  12.506  22.573  0.00  0.00     0.006 A 
ENDBRANCH   2  15
TORSDOF 3
ENDMDL
MODEL 3
REMARK VINA RESULT:      -5.7      1.265      1.466
REMARK  3 active torsions:
REMARK  status: ('A' for Active; 'I' for Inactive)
REMARK    1  A    between atoms: N_3  and  C_1 
REMARK       I    between atoms: C_5  and  N_3 
REMARK    2  A    between atoms: C_9  and  C_5 
REMARK    3  A    between atoms: O_22  and  C_20 
ROOT
ATOM      1  N   UNL d   1     -47.567  13.686  23.236  0.00  0.00    -0.183 NA
ATOM      2  C   UNL d   1     -48.245  13.582  22.778  0.00  0.00     0.281 C 
ATOM      3  O   UNL d   1     -48.199  13.144  22.058  0.00  0.00    -0.265 OA
ENDROOT
BRANCH   1   4
ATOM      4  C   UNL d   1     -46.844  13.367  23.000  0.00  0.00     0.197 A 
ATOM      5  N   UNL d   1     -46.535  12.643  23.267  0.00  0.00    -0.221 NA
ATOM      6  C   UNL d   1     -45.802  12.540  22.889  0.00  0.00     0.090 A 
ATOM      7  C   UNL d   1     -45.248  11.931  22.936  0.00  0.00     0.022 A 
ATOM      8  C   UNL d   1     -45.673  13.193  22.402  0.00  0.00     0.052 A 
ATOM      9  C   UNL d   1     -44.553  11.987  22.483  0.00  0.00     0.026 A 
ATOM     10  C   UNL d   1     -44.426  12.633  22.001  0.00  0.00     0.095 A 
ATOM     11  C   UNL d   1     -44.979  13.250  21.948  0.00  0.00     0.032 A 
ATOM     12  S   UNL d   1     -46.316  13.691  22.478  0.00  0.00    -0.047 SA
BRANCH  10  13
ATOM     13  O   UNL d   1     -43.713  12.697  21.530  0.00  0.00    -0.328 OA
ATOM     14  C   UNL d   1     -43.032  12.265  21.763  0.00  0.00     0.181 C 
ENDBRANCH  10  13
ENDBRANCH   1   4
BRANCH   2  15
ATOM     15  C   UNL d   1     -48.968  13.901  23.013  0.00  0.00     0.059 A 
ATOM     16  C   UNL d   1     -49.060  14.717  23.048  0.00  0.00     0.013 A 
ATOM     17  C   UNL d   1     -49.772  15.047  23.281  0.00  0.00     0.049 A 
ATOM     18  S   UNL d   1     -50.021  15.835  23.366  0.00  0.00    -0.064 SA
ATOM     19  C   UNL d   1     -50.415  14.547  23.486  0.00  0.00     0.088 A 
ATOM     20  C   UNL d   1     -50.811  15.811  23.622  0.00  0.00     0.135 A 
ATOM     21  N   UNL d   1     -51.061  15.033  23.698  0.00  0.00    -0.236 NA
ATOM     22  C   UNL d   1     -50.335  13.721  23.455  0.00  0.00     0.020 A 
ATOM     23  C   UNL d   1     -49.612  13.402  23.219  0.00  0.00     0.006 A 
ENDBRANCH   2  15
TORSDOF 3
ENDMDL
MODEL 4
REMARK VINA RESULT:      -5.1      9.184     10.831
REMARK  3 active torsions:
REMARK  status: ('A' for Active; 'I' for Inactive)
REMARK    1  A    between atoms: N_3  and  C_1 
REMARK       I    between atoms: C_5  and  N_3 
REMARK    2  A    between atoms: C_9  and  C_5 
REMARK    3  A    between atoms: O_22  and  C_20 
ROOT
ATOM      1  N   UNL d   1     -38.540  14.635  18.873  0.00  0.00    -0.183 NA
ATOM      2  C   UNL d   1     -38.814  14.162  18.255  0.00  0.00     0.281 C 
ATOM      3  O   UNL d   1     -39.227  13.447  18.429  0.00  0.00    -0.265 OA
ENDROOT
BRANCH   1   4
ATOM      4  C   UNL d   1     -38.666  14.418  19.659  0.00  0.00     0.197 A 
ATOM      5  N   UNL d   1     -39.363  14.563  20.086  0.00  0.00    -0.221 NA
ATOM      6  C   UNL d   1     -39.248  14.254  20.849  0.00  0.00     0.090 A 
ATOM      7  C   UNL d   1     -39.744  14.236  21.508  0.00  0.00     0.022 A 
ATOM      8  C   UNL d   1     -38.491  13.928  20.879  0.00  0.00     0.052 A 
ATOM      9  C   UNL d   1     -39.466  13.881  22.206  0.00  0.00     0.026 A 
ATOM     10  C   UNL d   1     -38.717  13.558  22.237  0.00  0.00     0.095 A 
ATOM     11  C   UNL d   1     -38.213  13.574  21.577  0.00  0.00     0.032 A 
ATOM     12  S   UNL d   1     -38.145  14.035  20.147  0.00  0.00    -0.047 SA
BRANCH  10  13
ATOM     13  O   UNL d   1     -38.425  13.192  22.953  0.00  0.00    -0.328 OA
ATOM     14  C   UNL d   1     -38.777  13.395  23.688  0.00  0.00     0.181 C 
ENDBRANCH  10  13
ENDBRANCH   1   4
BRANCH   2  15
ATOM     15  C   UNL d   1     -38.689  14.378  17.469  0.00  0.00     0.059 A 
ATOM     16  C   UNL d   1     -38.374  13.831  16.943  0.00  0.00     0.013 A 
ATOM     17  C   UNL d   1     -38.245  14.034  16.160  0.00  0.00     0.049 A 
ATOM     18  S   UNL d   1     -37.940  13.606  15.516  0.00  0.00    -0.064 SA
ATOM     19  C   UNL d   1     -38.436  14.807  15.892  0.00  0.00     0.088 A 
ATOM     20  C   UNL d   1     -37.947  14.118  14.863  0.00  0.00     0.135 A 
ATOM     21  N   UNL d   1     -38.246  14.851  15.080  0.00  0.00    -0.236 NA
ATOM     22  C   UNL d   1     -38.755  15.368  16.414  0.00  0.00     0.020 A 
ATOM     23  C   UNL d   1     -38.880  15.150  17.201  0.00  0.00     0.006 A 
ENDBRANCH   2  15
TORSDOF 3
ENDMDL
