MODEL 1
REMARK VINA RESULT:      -4.4      0.000      0.000
REMARK  5 active torsions:
REMARK  status: ('A' for Active; 'I' for Inactive)
REMARK    1  A    between atoms: C_4  and  C_1 
REMARK       I    between atoms: N_8  and  C_4 
REMARK    2  A    between atoms: C_17  and  N_8 
REMARK    3  A    between atoms: C_18  and  N_8 
REMARK    4  A    between atoms: C_15  and  C_11 
REMARK    5  A    between atoms: C_12  and  C_15 
ROOT
ATOM      1  C   UNL d   1      56.617  -0.235  32.022  0.00  0.00     0.120 A 
ATOM      2  C   UNL d   1      56.706  -1.050  31.829  0.00  0.00     0.305 A 
ATOM      3  O   UNL d   1      57.197  -1.263  31.202  0.00  0.00    -0.273 OA
ATOM      4  C   UNL d   1      57.022   0.338  31.580  0.00  0.00     0.012 A 
ATOM      5  C   UNL d   1      57.598  -0.685  30.764  0.00  0.00     0.103 A 
ATOM      6  C   UNL d   1      57.511   0.115  30.954  0.00  0.00     0.023 A 
ATOM      7  O   UNL d   1      56.308  -1.654  32.260  0.00  0.00    -0.259 OA
ATOM      8  C   UNL d   1      58.076  -0.919  30.151  0.00  0.00     0.023 A 
ATOM      9  C   UNL d   1      57.901   0.682  30.529  0.00  0.00     0.002 A 
ATOM     10  C   UNL d   1      58.390   0.460  29.902  0.00  0.00     0.000 A 
ATOM     11  C   UNL d   1      58.479  -0.355  29.710  0.00  0.00     0.002 A 
ENDROOT
BRANCH   1  12
ATOM     12  C   UNL d   1      56.125   0.020  32.656  0.00  0.00     0.270 C 
ATOM     13  N   UNL d   1      56.477   0.304  33.338  0.00  0.00    -0.272 N 
ATOM     14  O   UNL d   1      55.279  -0.018  32.584  0.00  0.00    -0.266 OA
BRANCH  13  15
ATOM     15  C   UNL d   1      57.297   0.338  33.398  0.00  0.00     0.083 C 
ATOM     16  C   UNL d   1      57.649   0.682  34.047  0.00  0.00     0.021 C 
ENDBRANCH  13  15
BRANCH  13  17
ATOM     17  C   UNL d   1      56.015   0.559  33.970  0.00  0.00     0.083 C 
ATOM     18  C   UNL d   1      55.760   0.019  34.531  0.00  0.00     0.021 C 
ENDBRANCH  13  17
ENDBRANCH   1  12
BRANCH   8  19
ATOM     19  C   UNL d   1      58.158  -1.718  29.968  0.00  0.00     0.002 C 
BRANCH  19  20
ATOM     20  C   UNL d   1      58.803  -1.979  29.549  0.00  0.00     0.000 C 
ATOM     21  C   UNL d   1      58.778  -2.713  29.145  0.00  0.00     0.000 C 
ENDBRANCH  19  20
ENDBRANCH   8  19
TORSDOF 5
ENDMDL
MODEL 2
REMARK VINA RESULT:      -1.5      1.613      2.017
REMARK  5 active torsions:
REMARK  status: ('A' for Active; 'I' for Inactive)
REMARK    1  A    between atoms: C_4  and  C_1 
REMARK       I    between atoms: N_8  and  C_4 
REMARK    2  A    between atoms: C_17  and  N_8 
REMARK    3  A    between atoms: C_18  and  N_8 
REMARK    4  A    between atoms: C_15  and  C_11 
REMARK    5  A    between atoms: C_12  and  C_15 
ROOT
ATOM      1  C   UNL d   1      57.220   0.224  32.251  0.00  0.00     0.120 A 
ATOM      2  C   UNL d   1      58.039   0.289  32.437  0.00  0.00     0.305 A 
ATOM      3  O   UNL d   1      58.580   0.419  31.829  0.00  0.00    -0.273 OA
ATOM      4  C   UNL d   1      56.972   0.292  31.464  0.00  0.00     0.012 A 
ATOM      5  C   UNL d   1      58.324   0.485  31.043  0.00  0.00     0.103 A 
ATOM      6  C   UNL d   1      57.520   0.422  30.861  0.00  0.00     0.023 A 
ATOM      7  O   UNL d   1      58.321   0.224  33.228  0.00  0.00    -0.259 OA
ATOM      8  C   UNL d   1      58.875   0.613  30.460  0.00  0.00     0.023 A 
ATOM      9  C   UNL d   1      57.267   0.486  30.096  0.00  0.00     0.002 A 
ATOM     10  C   UNL d   1      57.815   0.616  29.493  0.00  0.00     0.000 A 
ATOM     11  C   UNL d   1      58.633   0.681  29.679  0.00  0.00     0.002 A 
ENDROOT
BRANCH   1  12
ATOM     12  C   UNL d   1      56.639   0.092  32.847  0.00  0.00     0.270 C 
ATOM     13  N   UNL d   1      56.220  -0.611  32.838  0.00  0.00    -0.272 N 
ATOM     14  O   UNL d   1      56.494   0.680  33.443  0.00  0.00    -0.266 OA
BRANCH  13  15
ATOM     15  C   UNL d   1      56.368  -1.175  32.257  0.00  0.00     0.083 C 
ATOM     16  C   UNL d   1      55.952  -1.875  32.247  0.00  0.00     0.021 C 
ENDBRANCH  13  15
BRANCH  13  17
ATOM     17  C   UNL d   1      55.648  -0.761  33.411  0.00  0.00     0.083 C 
ATOM     18  C   UNL d   1      54.910  -0.410  33.350  0.00  0.00     0.021 C 
ENDBRANCH  13  17
ENDBRANCH   1  12
BRANCH   8  19
ATOM     19  C   UNL d   1      59.674   0.676  30.650  0.00  0.00     0.002 C 
BRANCH  19  20
ATOM     20  C   UNL d   1      60.236   0.679  30.063  0.00  0.00     0.000 C 
ATOM     21  C   UNL d   1      61.022   0.438  30.227  0.00  0.00     0.000 C 
ENDBRANCH  19  20
ENDBRANCH   8  19
TORSDOF 5
ENDMDL
MODEL 3
REMARK VINA RESULT:      -1.5      1.549      4.117
REMARK  5 active torsions:
REMARK  status: ('A' for Active; 'I' for Inactive)
REMARK    1  A    between atoms: C_4  and  C_1 
REMARK       I    between atoms: N_8  and  C_4 
REMARK    2  A    between atoms: C_17  and  N_8 
REMARK    3  A    between atoms: C_18  and  N_8 
REMARK    4  A    between atoms: C_15  and  C_11 
REMARK    5  A    between atoms: C_12  and  C_15 
ROOT
ATOM      1  C   UNL d   1      58.186   0.113  30.785  0.00  0.00     0.120 A 
ATOM      2  C   UNL d   1      58.670   0.331  31.439  0.00  0.00     0.305 A 
ATOM      3  O   UNL d   1      58.324   0.425  32.182  0.00  0.00    -0.273 OA
ATOM      4  C   UNL d   1      57.373  -0.004  30.898  0.00  0.00     0.012 A 
ATOM      5  C   UNL d   1      57.511   0.306  32.286  0.00  0.00     0.103 A 
ATOM      6  C   UNL d   1      57.035   0.092  31.644  0.00  0.00     0.023 A 
ATOM      7  O   UNL d   1      59.499   0.456  31.355  0.00  0.00    -0.259 OA
ATOM      8  C   UNL d   1      57.192   0.404  33.027  0.00  0.00     0.023 A 
ATOM      9  C   UNL d   1      56.241  -0.024  31.743  0.00  0.00     0.002 A 
ATOM     10  C   UNL d   1      55.903   0.072  32.490  0.00  0.00     0.000 A 
ATOM     11  C   UNL d   1      56.387   0.290  33.143  0.00  0.00     0.002 A 
ENDROOT
BRANCH   1  12
ATOM     12  C   UNL d   1      58.504   0.008  30.012  0.00  0.00     0.270 C 
ATOM     13  N   UNL d   1      58.567  -0.750  29.712  0.00  0.00    -0.272 N 
ATOM     14  O   UNL d   1      58.754   0.681  29.557  0.00  0.00    -0.266 OA
BRANCH  13  15
ATOM     15  C   UNL d   1      58.323  -1.396  30.161  0.00  0.00     0.083 C 
ATOM     16  C   UNL d   1      58.273  -2.136  29.825  0.00  0.00     0.021 C 
ENDBRANCH  13  15
BRANCH  13  17
ATOM     17  C   UNL d   1      58.876  -0.876  28.959  0.00  0.00     0.083 C 
ATOM     18  C   UNL d   1      59.156  -1.617  28.753  0.00  0.00     0.021 C 
ENDBRANCH  13  17
ENDBRANCH   1  12
BRANCH   8  19
ATOM     19  C   UNL d   1      57.672   0.618  33.662  0.00  0.00     0.002 C 
BRANCH  19  20
ATOM     20  C   UNL d   1      57.361   0.678  34.409  0.00  0.00     0.000 C 
ATOM     21  C   UNL d   1      57.846   0.557  35.082  0.00  0.00     0.000 C 
ENDBRANCH  19  20
ENDBRANCH   8  19
TORSDOF 5
ENDMDL
