MODEL 1
REMARK VINA RESULT:      11.8      0.000      0.000
REMARK  1 active torsions:
REMARK  status: ('A' for Active; 'I' for Inactive)
REMARK    1  A    between atoms: C_8  and  C_3 
ROOT
ATOM      1  N   UNL d   1      59.085  49.659  49.847  0.00  0.00    -0.145 NA
ATOM      2  N   UNL d   1      59.904  49.659  50.008  0.00  0.00    -0.106 NA
ATOM      3  C   UNL d   1      58.548  49.683  50.467  0.00  0.00     0.103 A 
ATOM      4  C   UNL d   1      60.171  49.682  50.787  0.00  0.00     0.297 A 
ATOM      5  C   UNL d   1      58.825  49.706  51.252  0.00  0.00     0.026 A 
ATOM      6  C   UNL d   1      59.623  49.706  51.405  0.00  0.00     0.066 A 
ATOM      7  O   UNL d   1      60.974  49.682  50.941  0.00  0.00    -0.264 OA
ENDROOT
BRANCH   3   8
ATOM      8  C   UNL d   1      57.745  49.684  50.325  0.00  0.00     0.019 A 
ATOM      9  C   UNL d   1      57.478  49.704  49.538  0.00  0.00     0.002 A 
ATOM     10  C   UNL d   1      56.663  49.705  49.385  0.00  0.00     0.000 A 
ATOM     11  C   UNL d   1      56.124  49.686  50.013  0.00  0.00     0.000 A 
ATOM     12  C   UNL d   1      56.393  49.666  50.792  0.00  0.00     0.000 A 
ATOM     13  C   UNL d   1      57.204  49.665  50.940  0.00  0.00     0.002 A 
ENDBRANCH   3   8
TORSDOF 1
ENDMDL
MODEL 2
REMARK VINA RESULT:      13.3      1.524      3.085
REMARK  1 active torsions:
REMARK  status: ('A' for Active; 'I' for Inactive)
REMARK    1  A    between atoms: C_8  and  C_3 
ROOT
ATOM      1  N   UNL d   1      58.433  49.673  49.832  0.00  0.00    -0.145 NA
ATOM      2  N   UNL d   1      57.622  49.667  49.638  0.00  0.00    -0.106 NA
ATOM      3  C   UNL d   1      58.664  49.690  50.618  0.00  0.00     0.103 A 
ATOM      4  C   UNL d   1      57.055  49.679  50.236  0.00  0.00     0.297 A 
ATOM      5  C   UNL d   1      58.086  49.701  51.218  0.00  0.00     0.026 A 
ATOM      6  C   UNL d   1      57.297  49.696  51.026  0.00  0.00     0.066 A 
ATOM      7  O   UNL d   1      56.261  49.673  50.042  0.00  0.00    -0.264 OA
ENDROOT
BRANCH   3   8
ATOM      8  C   UNL d   1      59.454  49.696  50.823  0.00  0.00     0.019 A 
ATOM      9  C   UNL d   1      60.024  49.700  50.218  0.00  0.00     0.002 A 
ATOM     10  C   UNL d   1      60.829  49.706  50.417  0.00  0.00     0.000 A 
ATOM     11  C   UNL d   1      61.058  49.707  51.213  0.00  0.00     0.000 A 
ATOM     12  C   UNL d   1      60.490  49.703  51.809  0.00  0.00     0.000 A 
ATOM     13  C   UNL d   1      59.690  49.697  51.607  0.00  0.00     0.002 A 
ENDBRANCH   3   8
TORSDOF 1
ENDMDL
