MODEL 1
REMARK VINA RESULT:       5.2      0.000      0.000
REMARK  3 active torsions:
REMARK  status: ('A' for Active; 'I' for Inactive)
REMARK    1  A    between atoms: C_15  and  C_3 
REMARK    2  A    between atoms: C_10  and  N_4 
REMARK    3  A    between atoms: N_6  and  C_5 
ROOT
ATOM      1  C   UNL d   1      30.727  17.702 -23.875  0.00  0.00     0.070 A 
ATOM      2  C   UNL d   1      29.960  17.431 -23.933  0.00  0.00     0.152 A 
ATOM      3  C   UNL d   1      31.085  16.611 -23.844  0.00  0.00     0.023 A 
ATOM      4  N   UNL d   1      29.704  16.711 -23.951  0.00  0.00    -0.290 N 
ATOM      5  C   UNL d   1      30.877  18.502 -23.865  0.00  0.00     0.153 A 
ATOM      6  C   UNL d   1      30.375  16.399 -23.898  0.00  0.00     0.082 A 
ATOM      7  N   UNL d   1      29.343  17.959 -23.982  0.00  0.00    -0.206 NA
ATOM      8  N   UNL d   1      30.259  19.031 -23.914  0.00  0.00    -0.206 NA
ATOM      9  C   UNL d   1      29.493  18.760 -23.972  0.00  0.00     0.202 A 
ENDROOT
BRANCH   5  10
ATOM     10  N   UNL d   1      31.668  18.778 -23.805  0.00  0.00    -0.285 N 
ATOM     11  C   UNL d   1      32.056  18.756 -23.069  0.00  0.00     0.106 A 
ATOM     12  C   UNL d   1      32.833  19.025 -23.003  0.00  0.00     0.118 A 
ATOM     13  C   UNL d   1      33.232  19.007 -22.263  0.00  0.00     0.028 C 
ATOM     14  O   UNL d   1      33.236  19.325 -23.686  0.00  0.00    -0.304 OA
ATOM     15  C   UNL d   1      32.848  19.346 -24.421  0.00  0.00     0.118 A 
ATOM     16  C   UNL d   1      32.059  19.071 -24.481  0.00  0.00     0.106 A 
ATOM     17  C   UNL d   1      33.239  19.639 -25.097  0.00  0.00     0.028 C 
ENDBRANCH   5  10
BRANCH   3  18
ATOM     18  C   UNL d   1      31.796  16.234 -23.789  0.00  0.00     0.002 A 
ATOM     19  C   UNL d   1      32.316  16.236 -24.415  0.00  0.00     0.000 A 
ATOM     20  C   UNL d   1      33.029  15.856 -24.355  0.00  0.00     0.000 A 
ATOM     21  C   UNL d   1      33.240  15.463 -23.666  0.00  0.00     0.000 A 
ATOM     22  C   UNL d   1      32.712  15.463 -23.032  0.00  0.00     0.000 A 
ATOM     23  C   UNL d   1      31.996  15.845 -23.095  0.00  0.00     0.000 A 
ENDBRANCH   3  18
BRANCH   4  24
ATOM     24  C   UNL d   1      28.938  16.401 -24.009  0.00  0.00     0.066 A 
ATOM     25  C   UNL d   1      28.425  16.382 -23.351  0.00  0.00     0.020 A 
ATOM     26  C   UNL d   1      27.659  16.072 -23.409  0.00  0.00     0.031 A 
ATOM     27  C   UNL d   1      27.383  15.768 -24.139  0.00  0.00     0.140 A 
ATOM     28  C   UNL d   1      27.881  15.778 -24.809  0.00  0.00     0.031 A 
ATOM     29  F   UNL d   1      26.617  15.458 -24.197  0.00  0.00    -0.204 F 
ATOM     30  C   UNL d   1      28.658  16.094 -24.742  0.00  0.00     0.020 A 
ENDBRANCH   4  24
TORSDOF 3
ENDMDL
