MODEL 1
REMARK VINA RESULT:      50.8      0.000      0.000
REMARK  7 active torsions:
REMARK  status: ('A' for Active; 'I' for Inactive)
REMARK    1  A    between atoms: S_3  and  C_1 
REMARK    2  A    between atoms: C_10  and  S_3 
REMARK    3  A    between atoms: N_11  and  C_4 
REMARK    4  A    between atoms: C_9  and  C_5 
REMARK    5  A    between atoms: C_20  and  N_11 
REMARK    6  A    between atoms: C_22  and  C_20 
REMARK    7  A    between atoms: C_23  and  C_22 
ROOT
ATOM      1  C   UNL d   1      45.643 -17.762  40.132  0.00  0.00     0.042 A 
ATOM      2  C   UNL d   1      45.097 -17.846  40.739  0.00  0.00     0.006 A 
ATOM      3  C   UNL d   1      46.383 -18.135  40.174  0.00  0.00     0.006 A 
ATOM      4  C   UNL d   1      46.024 -18.686  41.455  0.00  0.00     0.094 A 
ATOM      5  C   UNL d   1      46.581 -18.597  40.829  0.00  0.00     0.024 A 
ATOM      6  C   UNL d   1      45.285 -18.308  41.402  0.00  0.00     0.024 A 
ATOM      7  O   UNL d   1      46.217 -19.149  42.117  0.00  0.00    -0.328 OA
ATOM      8  C   UNL d   1      46.404 -19.619  42.795  0.00  0.00     0.181 C 
ENDROOT
BRANCH   1   9
ATOM      9  C   UNL d   1      45.462 -17.303  39.468  0.00  0.00     0.185 A 
ATOM     10  N   UNL d   1      44.690 -17.195  39.205  0.00  0.00    -0.207 NA
ATOM     11  C   UNL d   1      44.713 -16.710  38.536  0.00  0.00     0.212 A 
ATOM     12  C   UNL d   1      45.499 -16.527  38.398  0.00  0.00     0.213 A 
ATOM     13  O   UNL d   1      45.964 -16.884  38.961  0.00  0.00    -0.269 OA
BRANCH  11  14
ATOM     14  S   UNL d   1      44.135 -16.396  38.015  0.00  0.00     0.230 S 
ATOM     15  O   UNL d   1      44.573 -17.064  37.579  0.00  0.00    -0.215 OA
ATOM     16  O   UNL d   1      43.706 -15.758  38.410  0.00  0.00    -0.215 OA
BRANCH  14  17
ATOM     17  C   UNL d   1      43.570 -16.087  37.506  0.00  0.00     0.090 A 
ATOM     18  C   UNL d   1      43.353 -16.505  36.839  0.00  0.00     0.011 A 
ATOM     19  C   UNL d   1      42.790 -16.201  36.330  0.00  0.00     0.001 A 
ATOM     20  C   UNL d   1      42.444 -15.479  36.490  0.00  0.00     0.000 A 
ATOM     21  C   UNL d   1      42.660 -15.054  37.162  0.00  0.00     0.001 A 
ATOM     22  C   UNL d   1      43.222 -15.357  37.670  0.00  0.00     0.011 A 
ENDBRANCH  14  17
ENDBRANCH  11  14
BRANCH  12  23
ATOM     23  N   UNL d   1      45.739 -16.045  37.764  0.00  0.00    -0.219 NA
BRANCH  23  24
ATOM     24  C   UNL d   1      46.348 -15.515  37.636  0.00  0.00     0.101 C 
BRANCH  24  25
ATOM     25  C   UNL d   1      46.209 -15.204  36.888  0.00  0.00     0.021 C 
BRANCH  25  26
ATOM     26  C   UNL d   1      46.645 -14.542  36.623  0.00  0.00     0.002 C 
ATOM     27  C   UNL d   1      46.426 -13.774  36.847  0.00  0.00     0.000 C 
ENDBRANCH  25  26
ENDBRANCH  24  25
ENDBRANCH  23  24
ENDBRANCH  12  23
ENDBRANCH   1   9
TORSDOF 7
ENDMDL
