MODEL 1
REMARK VINA RESULT:      12.8      0.000      0.000
REMARK  1 active torsions:
REMARK  status: ('A' for Active; 'I' for Inactive)
REMARK    1  A    between atoms: N_4  and  C_1 
ROOT
ATOM      1  C   UNL d   1     -51.353  25.567  33.325  0.00  0.00     0.735 A 
ATOM      2  N   UNL d   1     -51.151  24.753  33.326  0.00  0.00    -0.059 NA
ATOM      3  N   UNL d   1     -52.197  25.584  33.326  0.00  0.00    -0.059 NA
ATOM      4  C   UNL d   1     -51.827  24.311  33.328  0.00  0.00     0.118 A 
ATOM      5  C   UNL d   1     -52.474  24.825  33.327  0.00  0.00     0.118 A 
ATOM      6  C   UNL d   1     -51.937  23.480  33.329  0.00  0.00     0.021 A 
ATOM      7  C   UNL d   1     -53.238  24.514  33.328  0.00  0.00     0.021 A 
ATOM      8  C   UNL d   1     -52.718  23.190  33.330  0.00  0.00     0.002 A 
ATOM      9  C   UNL d   1     -53.365  23.704  33.330  0.00  0.00     0.002 A 
ENDROOT
BRANCH   1  10
ATOM     10  N   UNL d   1     -50.809  26.175  33.324  0.00  0.00    -0.133 N 
ATOM     11  C   UNL d   1     -50.014  26.213  33.331  0.00  0.00     0.125 A 
ATOM     12  C   UNL d   1     -49.616  26.931  33.327  0.00  0.00     0.142 A 
ATOM     13  O   UNL d   1     -50.027  27.640  33.315  0.00  0.00    -0.300 OA
ATOM     14  C   UNL d   1     -50.890  27.602  33.307  0.00  0.00     0.142 A 
ATOM     15  C   UNL d   1     -51.254  26.880  33.312  0.00  0.00     0.125 A 
ENDBRANCH   1  10
TORSDOF 1
ENDMDL
