MODEL 1
REMARK VINA RESULT:      11.6      0.000      0.000
REMARK  4 active torsions:
REMARK  status: ('A' for Active; 'I' for Inactive)
REMARK    1  A    between atoms: N_5  and  C_2 
REMARK    2  A    between atoms: C_9  and  C_3 
REMARK       I    between atoms: C_7  and  N_5 
REMARK    3  A    between atoms: C_8  and  C_7 
REMARK    4  A    between atoms: O_16  and  C_13 
ROOT
ATOM      1  N   UNL d   1      46.310 -17.518  43.620  0.00  0.00    -0.200 NA
ATOM      2  C   UNL d   1      46.228 -17.227  44.382  0.00  0.00     0.216 A 
ATOM      3  C   UNL d   1      46.373 -18.337  43.659  0.00  0.00     0.172 A 
ATOM      4  N   UNL d   1      46.330 -18.554  44.454  0.00  0.00    -0.187 NA
ATOM      5  S   UNL d   1      46.240 -17.867  44.896  0.00  0.00     0.054 SA
ENDROOT
BRANCH   2   6
ATOM      6  N   UNL d   1      46.148 -16.434  44.594  0.00  0.00    -0.181 NA
ATOM      7  C   UNL d   1      45.745 -15.922  44.099  0.00  0.00     0.281 C 
ATOM      8  O   UNL d   1      45.420 -16.195  43.392  0.00  0.00    -0.265 OA
BRANCH   7   9
ATOM      9  C   UNL d   1      45.664 -15.129  44.311  0.00  0.00     0.058 A 
ATOM     10  C   UNL d   1      46.242 -14.583  44.093  0.00  0.00     0.007 A 
ATOM     11  C   UNL d   1      46.162 -13.790  44.305  0.00  0.00     0.024 A 
ATOM     12  C   UNL d   1      45.504 -13.542  44.735  0.00  0.00     0.094 A 
ATOM     13  C   UNL d   1      44.927 -14.088  44.951  0.00  0.00     0.024 A 
ATOM     14  C   UNL d   1      45.007 -14.881  44.739  0.00  0.00     0.007 A 
BRANCH  12  15
ATOM     15  O   UNL d   1      45.424 -12.749  44.947  0.00  0.00    -0.328 OA
ATOM     16  C   UNL d   1      45.911 -12.180  44.607  0.00  0.00     0.181 C 
ENDBRANCH  12  15
ENDBRANCH   7   9
ENDBRANCH   2   6
BRANCH   3  17
ATOM     17  C   UNL d   1      46.463 -18.848  43.026  0.00  0.00     0.036 A 
ATOM     18  C   UNL d   1      46.553 -18.545  42.265  0.00  0.00     0.003 A 
ATOM     19  C   UNL d   1      46.645 -19.066  41.621  0.00  0.00     0.000 A 
ATOM     20  C   UNL d   1      46.644 -19.887  41.746  0.00  0.00     0.000 A 
ATOM     21  C   UNL d   1      46.552 -20.183  42.515  0.00  0.00     0.000 A 
ATOM     22  C   UNL d   1      46.462 -19.669  43.151  0.00  0.00     0.003 A 
ENDBRANCH   3  17
TORSDOF 4
ENDMDL
