MODEL 1
REMARK VINA RESULT:      -2.4      0.000      0.000
REMARK  6 active torsions:
REMARK  status: ('A' for Active; 'I' for Inactive)
REMARK    1  A    between atoms: C_5  and  N_1 
REMARK    2  A    between atoms: C_7  and  C_3 
REMARK    3  A    between atoms: C_12  and  C_4 
REMARK    4  A    between atoms: N_14  and  C_5 
REMARK    5  A    between atoms: O_16  and  C_9 
REMARK    6  A    between atoms: O_17  and  C_11 
ROOT
ATOM      1  N   UNL d   1      31.767  16.544 -24.020  0.00  0.00    -0.203 N 
ATOM      2  N   UNL d   1      31.116  16.039 -23.956  0.00  0.00    -0.163 NA
ATOM      3  C   UNL d   1      31.479  17.304 -24.135  0.00  0.00     0.087 A 
ATOM      4  C   UNL d   1      30.443  16.477 -24.030  0.00  0.00     0.103 A 
ATOM      5  C   UNL d   1      30.660  17.256 -24.141  0.00  0.00     0.040 A 
ENDROOT
BRANCH   3   6
ATOM      6  C   UNL d   1      31.923  18.000 -24.231  0.00  0.00     0.020 A 
ATOM      7  C   UNL d   1      32.251  18.390 -23.599  0.00  0.00     0.028 A 
ATOM      8  C   UNL d   1      32.687  19.074 -23.698  0.00  0.00     0.116 A 
ATOM      9  C   UNL d   1      32.795  19.374 -24.443  0.00  0.00     0.116 A 
ATOM     10  C   UNL d   1      32.469  18.991 -25.096  0.00  0.00     0.026 A 
ATOM     11  C   UNL d   1      32.033  18.306 -24.997  0.00  0.00     0.004 A 
BRANCH   8  12
ATOM     12  O   UNL d   1      33.025  19.477 -23.055  0.00  0.00    -0.326 OA
ATOM     13  C   UNL d   1      32.581  19.610 -22.367  0.00  0.00     0.181 C 
ENDBRANCH   8  12
BRANCH   9  14
ATOM     14  O   UNL d   1      33.241  20.076 -24.556  0.00  0.00    -0.326 OA
ATOM     15  C   UNL d   1      32.921  20.733 -24.931  0.00  0.00     0.181 C 
ENDBRANCH   9  14
ENDBRANCH   3   6
BRANCH   1  16
ATOM     16  C   UNL d   1      32.565  16.311 -23.974  0.00  0.00     0.222 C 
ATOM     17  S   UNL d   1      33.002  16.122 -24.662  0.00  0.00    -0.037 SA
BRANCH  16  18
ATOM     18  N   UNL d   1      32.955  16.261 -23.226  0.00  0.00    -0.214 NA
ATOM     19  C   UNL d   1      33.179  15.506 -22.936  0.00  0.00     0.122 C 
ENDBRANCH  16  18
ENDBRANCH   1  16
BRANCH   4  20
ATOM     20  C   UNL d   1      29.680  16.145 -23.992  0.00  0.00     0.019 A 
ATOM     21  C   UNL d   1      29.313  16.045 -23.272  0.00  0.00     0.002 A 
ATOM     22  C   UNL d   1      28.545  15.712 -23.215  0.00  0.00     0.000 A 
ATOM     23  C   UNL d   1      28.155  15.480 -23.920  0.00  0.00     0.000 A 
ATOM     24  C   UNL d   1      28.548  15.590 -24.654  0.00  0.00     0.000 A 
ATOM     25  C   UNL d   1      29.296  15.916 -24.691  0.00  0.00     0.002 A 
ENDBRANCH   4  20
TORSDOF 6
ENDMDL
