MODEL 1
REMARK VINA RESULT:      13.6      0.000      0.000
REMARK  7 active torsions:
REMARK  status: ('A' for Active; 'I' for Inactive)
REMARK    1  A    between atoms: C_4  and  C_10 
REMARK    2  A    between atoms: O_17  and  C_4 
REMARK    3  A    between atoms: O_19  and  C_5 
REMARK    4  A    between atoms: O_20  and  C_7 
REMARK    5  A    between atoms: C_12  and  C_8 
REMARK    6  A    between atoms: O_15  and  C_12 
REMARK    7  A    between atoms: C_16  and  O_15 
ROOT
ATOM      1  C   UNL d   1      46.418 -18.880  43.435  0.00  0.00     0.022 A 
ATOM      2  C   UNL d   1      46.480 -18.456  42.734  0.00  0.00     0.028 A 
ATOM      3  C   UNL d   1      46.432 -19.716  43.430  0.00  0.00     0.005 A 
ATOM      4  C   UNL d   1      46.556 -18.868  42.026  0.00  0.00     0.116 A 
ATOM      5  C   UNL d   1      46.508 -20.123  42.722  0.00  0.00     0.026 A 
ATOM      6  C   UNL d   1      46.570 -19.704  42.020  0.00  0.00     0.116 A 
ATOM      7  C   UNL d   1      46.343 -18.468  44.139  0.00  0.00     0.106 A 
ATOM      8  N   UNL d   1      46.281 -18.892  44.841  0.00  0.00    -0.242 NA
ATOM      9  C   UNL d   1      46.295 -19.728  44.835  0.00  0.00     0.099 A 
ATOM     10  C   UNL d   1      46.371 -20.135  44.128  0.00  0.00     0.021 A 
ENDROOT
BRANCH   7  11
ATOM     11  C   UNL d   1      46.329 -17.631  44.145  0.00  0.00     0.142 C 
BRANCH  11  12
ATOM     12  O   UNL d   1      45.761 -17.230  44.579  0.00  0.00    -0.304 OA
BRANCH  12  13
ATOM     13  C   UNL d   1      45.700 -16.403  44.526  0.00  0.00     0.100 A 
ATOM     14  C   UNL d   1      46.216 -15.913  44.942  0.00  0.00     0.025 A 
ATOM     15  C   UNL d   1      46.155 -15.086  44.889  0.00  0.00     0.007 A 
ATOM     16  C   UNL d   1      45.576 -14.734  44.419  0.00  0.00     0.063 A 
ATOM     17  C   UNL d   1      45.059 -15.224  44.003  0.00  0.00     0.007 A 
ATOM     18  C   UNL d   1      45.120 -16.051  44.056  0.00  0.00     0.025 A 
BRANCH  16  19
ATOM     19  C   UNL d   1      45.518 -13.906  44.369  0.00  0.00     0.296 C 
ATOM     20  O   UNL d   1      45.085 -13.477  44.917  0.00  0.00    -0.259 OA
BRANCH  19  21
ATOM     21  O   UNL d   1      45.904 -13.497  43.756  0.00  0.00    -0.296 OA
ATOM     22  C   UNL d   1      45.726 -12.689  43.604  0.00  0.00     0.185 C 
ENDBRANCH  19  21
ENDBRANCH  16  19
ENDBRANCH  12  13
ENDBRANCH  11  12
ENDBRANCH   7  11
BRANCH   4  23
ATOM     23  O   UNL d   1      46.619 -18.444  41.309  0.00  0.00    -0.326 OA
ATOM     24  C   UNL d   1      46.625 -17.624  41.321  0.00  0.00     0.181 C 
ENDBRANCH   4  23
BRANCH   6  25
ATOM     25  O   UNL d   1      46.647 -20.126  41.298  0.00  0.00    -0.326 OA
ATOM     26  C   UNL d   1      46.339 -19.789  40.610  0.00  0.00     0.181 C 
ENDBRANCH   6  25
TORSDOF 7
ENDMDL
