MODEL 1
REMARK VINA RESULT:      73.7      0.000      0.000
REMARK  3 active torsions:
REMARK  status: ('A' for Active; 'I' for Inactive)
REMARK    1  A    between atoms: C_10  and  C_2 
REMARK    2  A    between atoms: C_4  and  C_10 
REMARK    3  A    between atoms: C_27  and  N_13 
ROOT
ATOM      1  C   UNL d   1     -49.591  25.628  33.542  0.00  0.00     0.093 A 
ATOM      2  C   UNL d   1     -49.456  27.277  33.696  0.00  0.00     0.035 A 
ATOM      3  C   UNL d   1     -50.245  26.050  33.579  0.00  0.00    -0.012 A 
ATOM      4  C   UNL d   1     -51.771  24.437  33.424  0.00  0.00     0.056 A 
ATOM      5  C   UNL d   1     -48.790  26.857  33.659  0.00  0.00     0.180 A 
ATOM      6  C   UNL d   1     -52.418  24.855  33.461  0.00  0.00    -0.012 A 
ATOM      7  C   UNL d   1     -51.041  24.829  33.463  0.00  0.00    -0.016 A 
ATOM      8  C   UNL d   1     -50.973  25.647  33.540  0.00  0.00    -0.007 A 
ATOM      9  C   UNL d   1     -50.176  26.870  33.656  0.00  0.00    -0.001 A 
ATOM     10  C   UNL d   1     -52.344  25.682  33.539  0.00  0.00    -0.004 A 
ATOM     11  C   UNL d   1     -49.665  24.802  33.464  0.00  0.00    -0.016 A 
ATOM     12  C   UNL d   1     -51.621  26.077  33.578  0.00  0.00    -0.001 A 
ATOM     13  C   UNL d   1     -50.388  24.406  33.425  0.00  0.00    -0.007 A 
ATOM     14  C   UNL d   1     -51.840  23.619  33.347  0.00  0.00    -0.015 A 
ATOM     15  C   UNL d   1     -53.164  24.454  33.422  0.00  0.00     0.038 A 
ATOM     16  O   UNL d   1     -48.041  27.072  33.681  0.00  0.00    -0.291 OA
ATOM     17  C   UNL d   1     -48.930  25.201  33.504  0.00  0.00     0.017 C 
ATOM     18  C   UNL d   1     -52.570  23.197  33.306  0.00  0.00     0.038 A 
ATOM     19  C   UNL d   1     -53.231  23.624  33.344  0.00  0.00     0.195 A 
ATOM     20  C   UNL d   1     -50.883  23.853  33.372  0.00  0.00     0.013 C 
ATOM     21  O   UNL d   1     -53.943  23.242  33.306  0.00  0.00    -0.287 OA
ENDROOT
BRANCH   2  22
ATOM     22  C   UNL d   1     -49.428  28.081  33.771  0.00  0.00     0.006 C 
BRANCH  22  23
ATOM     23  C   UNL d   1     -48.941  28.459  34.314  0.00  0.00     0.039 A 
ATOM     24  C   UNL d   1     -48.789  29.218  34.537  0.00  0.00     0.085 A 
ATOM     25  N   UNL d   1     -48.208  29.193  35.145  0.00  0.00    -0.228 N 
ATOM     26  C   UNL d   1     -49.197  29.849  34.158  0.00  0.00     0.021 C 
ATOM     27  N   UNL d   1     -48.000  28.415  35.301  0.00  0.00    -0.164 NA
ATOM     28  C   UNL d   1     -48.457  27.956  34.782  0.00  0.00     0.122 A 
BRANCH  25  29
ATOM     29  C   UNL d   1     -47.894  29.869  35.531  0.00  0.00     0.101 C 
ATOM     30  C   UNL d   1     -47.080  29.879  35.774  0.00  0.00     0.022 C 
ENDBRANCH  25  29
ENDBRANCH  22  23
ENDBRANCH   2  22
TORSDOF 3
ENDMDL
