MODEL 1
REMARK VINA RESULT:      57.1      0.000      0.000
REMARK  7 active torsions:
REMARK  status: ('A' for Active; 'I' for Inactive)
REMARK    1  A    between atoms: C_4  and  C_1 
REMARK    2  A    between atoms: N_5  and  C_2 
REMARK    3  A    between atoms: C_15  and  C_4 
REMARK    4  A    between atoms: C_9  and  C_13 
REMARK    5  A    between atoms: O_21  and  C_9 
REMARK    6  A    between atoms: C_25  and  C_20 
REMARK    7  A    between atoms: C_26  and  O_21 
ROOT
ATOM      1  C   UNL d   1      13.574  12.912  -3.092  0.00  0.00     0.074 A 
ATOM      2  C   UNL d   1      14.062  13.323  -2.559  0.00  0.00     0.070 A 
ATOM      3  C   UNL d   1      14.308  12.962  -1.862  0.00  0.00     0.034 A 
ATOM      4  C   UNL d   1      13.337  12.141  -2.919  0.00  0.00     0.103 A 
ATOM      5  N   UNL d   1      13.588  11.781  -2.214  0.00  0.00    -0.244 NA
ATOM      6  C   UNL d   1      14.071  12.190  -1.689  0.00  0.00     0.083 A 
ATOM      7  C   UNL d   1      14.792  13.372  -1.336  0.00  0.00     0.003 A 
ATOM      8  C   UNL d   1      14.318  11.830  -0.991  0.00  0.00     0.019 A 
ATOM      9  C   UNL d   1      15.040  13.011  -0.635  0.00  0.00     0.000 A 
ATOM     10  C   UNL d   1      14.803  12.240  -0.462  0.00  0.00     0.002 A 
ENDROOT
BRANCH   2  11
ATOM     11  N   UNL d   1      14.303  14.106  -2.734  0.00  0.00    -0.304 N 
ATOM     12  C   UNL d   1      13.848  14.744  -2.481  0.00  0.00     0.080 A 
ATOM     13  C   UNL d   1      14.085  15.515  -2.654  0.00  0.00     0.024 A 
ATOM     14  C   UNL d   1      14.777  15.648  -3.079  0.00  0.00     0.067 A 
ATOM     15  C   UNL d   1      15.236  15.009  -3.334  0.00  0.00     0.024 A 
ATOM     16  C   UNL d   1      14.999  14.238  -3.161  0.00  0.00     0.080 A 
BRANCH  14  17
ATOM     17  C   UNL d   1      15.007  16.422  -3.247  0.00  0.00     0.300 C 
ATOM     18  O   UNL d   1      15.161  16.957  -2.636  0.00  0.00    -0.259 OA
BRANCH  17  19
ATOM     19  O   UNL d   1      15.084  16.661  -4.032  0.00  0.00    -0.271 OA
BRANCH  19  20
ATOM     20  C   UNL d   1      14.793  17.390  -4.283  0.00  0.00     0.126 C 
ATOM     21  C   UNL d   1      15.115  17.775  -4.940  0.00  0.00     0.029 C 
ENDBRANCH  19  20
ENDBRANCH  17  19
ENDBRANCH  14  17
ENDBRANCH   2  11
BRANCH   1  22
ATOM     22  C   UNL d   1      13.326  13.274  -3.793  0.00  0.00     0.198 C 
ATOM     23  O   UNL d   1      13.091  14.065  -3.797  0.00  0.00    -0.286 OA
BRANCH  22  24
ATOM     24  C   UNL d   1      13.312  12.843  -4.495  0.00  0.00     0.039 A 
ATOM     25  C   UNL d   1      12.783  12.215  -4.580  0.00  0.00     0.003 A 
ATOM     26  C   UNL d   1      12.770  11.785  -5.282  0.00  0.00     0.000 A 
ATOM     27  C   UNL d   1      13.284  11.982  -5.898  0.00  0.00     0.000 A 
ATOM     28  C   UNL d   1      13.814  12.609  -5.817  0.00  0.00     0.000 A 
ATOM     29  C   UNL d   1      13.825  13.042  -5.108  0.00  0.00     0.003 A 
ENDBRANCH  22  24
ENDBRANCH   1  22
BRANCH   9  30
ATOM     30  C   UNL d   1      15.529  13.425  -0.104  0.00  0.00     0.000 C 
ATOM     31  C   UNL d   1      15.434  14.240  -0.015  0.00  0.00     0.000 C 
ENDBRANCH   9  30
TORSDOF 7
ENDMDL
