MODEL 1
REMARK VINA RESULT:      54.0      0.000      0.000
REMARK  6 active torsions:
REMARK  status: ('A' for Active; 'I' for Inactive)
REMARK    1  A    between atoms: C_4  and  C_1 
REMARK    2  A    between atoms: C_3  and  N_8 
REMARK       I    between atoms: N_8  and  C_4 
REMARK    3  A    between atoms: C_14  and  C_6 
REMARK    4  A    between atoms: C_15  and  C_10 
REMARK    5  A    between atoms: C_12  and  C_16 
REMARK    6  A    between atoms: C_19  and  C_15 
ROOT
ATOM      1  C   UNL d   1     -50.509  27.012  33.803  0.00  0.00     0.083 A 
ATOM      2  C   UNL d   1     -50.525  26.192  33.855  0.00  0.00     0.032 A 
ATOM      3  C   UNL d   1     -51.246  25.930  33.552  0.00  0.00     0.100 A 
ATOM      4  C   UNL d   1     -51.222  27.261  33.468  0.00  0.00     0.105 A 
ATOM      5  O   UNL d   1     -51.678  26.592  33.312  0.00  0.00    -0.307 OA
ATOM      6  C   UNL d   1     -51.443  28.039  33.314  0.00  0.00     0.027 C 
ENDROOT
BRANCH   1   7
ATOM      7  C   UNL d   1     -49.890  27.501  34.045  0.00  0.00     0.283 C 
ATOM      8  N   UNL d   1     -49.588  27.433  34.812  0.00  0.00    -0.181 NA
ATOM      9  O   UNL d   1     -49.574  28.052  33.526  0.00  0.00    -0.265 OA
BRANCH   8  10
ATOM     10  C   UNL d   1     -48.969  27.920  35.054  0.00  0.00     0.216 A 
ATOM     11  N   UNL d   1     -49.034  28.711  35.264  0.00  0.00    -0.200 NA
ATOM     12  C   UNL d   1     -48.282  28.981  35.468  0.00  0.00     0.175 A 
ATOM     13  N   UNL d   1     -47.755  28.350  35.382  0.00  0.00    -0.187 NA
ATOM     14  S   UNL d   1     -48.185  27.697  35.126  0.00  0.00     0.054 SA
BRANCH  12  15
ATOM     15  C   UNL d   1     -48.090  29.742  35.713  0.00  0.00     0.082 C 
BRANCH  15  16
ATOM     16  C   UNL d   1     -47.741  30.269  35.182  0.00  0.00     0.199 C 
ATOM     17  O   UNL d   1     -47.196  30.826  35.458  0.00  0.00    -0.286 OA
ATOM     18  C   UNL d   1     -47.936  30.241  34.382  0.00  0.00     0.045 C 
ENDBRANCH  15  16
ENDBRANCH  12  15
ENDBRANCH   8  10
ENDBRANCH   1   7
BRANCH   3  19
ATOM     19  C   UNL d   1     -51.491  25.142  33.499  0.00  0.00     0.023 A 
ATOM     20  C   UNL d   1     -52.295  24.949  33.540  0.00  0.00     0.006 A 
ATOM     21  C   UNL d   1     -52.531  24.162  33.486  0.00  0.00     0.071 A 
ATOM     22  C   UNL d   1     -51.971  23.565  33.392  0.00  0.00     0.004 A 
ATOM     23  C   UNL d   1     -51.166  23.758  33.350  0.00  0.00     0.000 A 
ATOM     24  C   UNL d   1     -50.929  24.546  33.404  0.00  0.00     0.002 A 
BRANCH  21  25
ATOM     25  C   UNL d   1     -53.333  23.969  33.528  0.00  0.00     0.419 C 
ATOM     26  F   UNL d   1     -53.567  23.222  33.790  0.00  0.00    -0.166 F 
ATOM     27  F   UNL d   1     -53.904  24.523  33.307  0.00  0.00    -0.166 F 
ATOM     28  F   UNL d   1     -52.940  23.295  33.786  0.00  0.00    -0.166 F 
ENDBRANCH  21  25
ENDBRANCH   3  19
TORSDOF 6
ENDMDL
