MODEL 1
REMARK VINA RESULT:       0.0      0.000      0.000
REMARK  5 active torsions:
REMARK  status: ('A' for Active; 'I' for Inactive)
REMARK    1  A    between atoms: C_3  and  C_1 
REMARK    2  A    between atoms: S_2  and  C_3 
REMARK    3  A    between atoms: C_7  and  S_2 
REMARK    4  A    between atoms: C_9  and  C_3 
REMARK    5  A    between atoms: N_8  and  C_4 
ROOT
ATOM      1  C   UNL d   1      31.241  17.370 -24.001  0.00  0.00     0.128 A 
ATOM      2  C   UNL d   1      31.207  16.598 -23.712  0.00  0.00     0.166 A 
ATOM      3  N   UNL d   1      30.549  17.799 -24.113  0.00  0.00    -0.240 NA
ATOM      4  N   UNL d   1      30.472  16.256 -23.534  0.00  0.00    -0.225 NA
ATOM      5  C   UNL d   1      29.826  17.457 -23.937  0.00  0.00     0.099 A 
ATOM      6  C   UNL d   1      29.788  16.689 -23.648  0.00  0.00     0.101 A 
ATOM      7  C   UNL d   1      29.053  16.350 -23.472  0.00  0.00     0.021 A 
ATOM      8  C   UNL d   1      29.133  17.889 -24.050  0.00  0.00     0.021 A 
ATOM      9  C   UNL d   1      28.407  17.551 -23.875  0.00  0.00     0.002 A 
ATOM     10  C   UNL d   1      28.368  16.784 -23.587  0.00  0.00     0.002 A 
ENDROOT
BRANCH   1  11
ATOM     11  C   UNL d   1      31.967  17.712 -24.178  0.00  0.00     0.129 C 
BRANCH  11  12
ATOM     12  S   UNL d   1      32.106  18.553 -23.912  0.00  0.00     0.213 S 
ATOM     13  O   UNL d   1      31.821  18.603 -24.690  0.00  0.00    -0.217 OA
ATOM     14  O   UNL d   1      31.921  19.200 -24.496  0.00  0.00    -0.217 OA
BRANCH  12  15
ATOM     15  C   UNL d   1      32.383  18.889 -23.204  0.00  0.00     0.088 A 
ATOM     16  C   UNL d   1      32.082  19.611 -22.944  0.00  0.00     0.011 A 
ATOM     17  C   UNL d   1      32.356  19.949 -22.238  0.00  0.00     0.001 A 
ATOM     18  C   UNL d   1      32.055  20.670 -21.978  0.00  0.00     0.000 C 
ATOM     19  C   UNL d   1      32.936  19.555 -21.797  0.00  0.00     0.000 A 
ATOM     20  C   UNL d   1      33.239  18.827 -22.062  0.00  0.00     0.001 A 
ATOM     21  C   UNL d   1      33.213  19.883 -21.098  0.00  0.00     0.000 C 
ATOM     22  C   UNL d   1      32.961  18.496 -22.765  0.00  0.00     0.011 A 
ENDBRANCH  12  15
ENDBRANCH  11  12
BRANCH  11  23
ATOM     23  C   UNL d   1      32.648  17.386 -24.594  0.00  0.00     0.135 C 
ATOM     24  N   UNL d   1      33.240  17.819 -25.097  0.00  0.00    -0.146 N 
ENDBRANCH  11  23
ENDBRANCH   1  11
BRANCH   2  25
ATOM     25  N   UNL d   1      31.913  16.171 -23.601  0.00  0.00    -0.288 N 
ATOM     26  C   UNL d   1      32.369  15.822 -24.196  0.00  0.00     0.082 A 
ATOM     27  C   UNL d   1      33.026  15.453 -23.830  0.00  0.00     0.021 A 
ATOM     28  C   UNL d   1      32.969  15.578 -23.007  0.00  0.00     0.021 A 
ATOM     29  C   UNL d   1      32.276  16.025 -22.862  0.00  0.00     0.082 A 
ENDBRANCH   2  25
TORSDOF 5
ENDMDL
