MODEL 1
REMARK VINA RESULT:      -5.2      0.000      0.000
REMARK  3 active torsions:
REMARK  status: ('A' for Active; 'I' for Inactive)
REMARK    1  A    between atoms: C_4  and  C_1 
REMARK       I    between atoms: N_8  and  C_1 
REMARK    2  A    between atoms: S_14  and  C_2 
REMARK    3  A    between atoms: C_10  and  N_8 
ROOT
ATOM      1  C   UNL d   1      58.668  -0.059  29.444  0.00  0.00     0.136 A 
ATOM      2  N   UNL d   1      58.402  -0.798  29.693  0.00  0.00    -0.232 NA
ATOM      3  S   UNL d   1      58.390   0.530  29.913  0.00  0.00    -0.060 SA
ATOM      4  C   UNL d   1      57.924   0.157  30.491  0.00  0.00     0.051 A 
ATOM      5  C   UNL d   1      57.935  -0.662  30.350  0.00  0.00     0.089 A 
ATOM      6  C   UNL d   1      57.494   0.458  31.123  0.00  0.00     0.027 A 
ATOM      7  C   UNL d   1      57.069  -0.056  31.623  0.00  0.00     0.085 A 
ATOM      8  C   UNL d   1      57.515  -1.171  30.845  0.00  0.00     0.021 A 
ATOM      9  C   UNL d   1      57.085  -0.870  31.477  0.00  0.00     0.021 A 
ENDROOT
BRANCH   7  10
ATOM     10  N   UNL d   1      56.631   0.251  32.267  0.00  0.00    -0.208 NA
ATOM     11  C   UNL d   1      56.439  -0.249  32.893  0.00  0.00     0.283 C 
ATOM     12  O   UNL d   1      56.665  -1.034  32.901  0.00  0.00    -0.265 OA
BRANCH  11  13
ATOM     13  C   UNL d   1      56.003   0.056  33.534  0.00  0.00     0.113 A 
ATOM     14  C   UNL d   1      55.180   0.028  33.506  0.00  0.00     0.147 A 
ATOM     15  F   UNL d   1      54.776  -0.302  32.844  0.00  0.00    -0.204 F 
ATOM     16  C   UNL d   1      54.740   0.336  34.153  0.00  0.00     0.030 A 
ATOM     17  C   UNL d   1      55.147   0.655  34.792  0.00  0.00     0.005 A 
ATOM     18  C   UNL d   1      55.960   0.682  34.819  0.00  0.00     0.030 A 
ATOM     19  C   UNL d   1      56.401   0.374  34.172  0.00  0.00     0.147 A 
ATOM     20  F   UNL d   1      57.235   0.395  34.185  0.00  0.00    -0.204 F 
ENDBRANCH  11  13
ENDBRANCH   7  10
BRANCH   1  21
ATOM     21  S   UNL d   1      59.156   0.056  28.796  0.00  0.00    -0.087 SA
ATOM     22  C   UNL d   1      59.894   0.381  28.901  0.00  0.00     0.076 C 
ENDBRANCH   1  21
TORSDOF 3
ENDMDL
MODEL 2
REMARK VINA RESULT:      -4.3      0.983      1.650
REMARK  3 active torsions:
REMARK  status: ('A' for Active; 'I' for Inactive)
REMARK    1  A    between atoms: C_4  and  C_1 
REMARK       I    between atoms: N_8  and  C_1 
REMARK    2  A    between atoms: S_14  and  C_2 
REMARK    3  A    between atoms: C_10  and  N_8 
ROOT
ATOM      1  C   UNL d   1      59.737   0.256  29.217  0.00  0.00     0.136 A 
ATOM      2  N   UNL d   1      59.003   0.395  28.870  0.00  0.00    -0.232 NA
ATOM      3  S   UNL d   1      59.690   0.250  30.018  0.00  0.00    -0.060 SA
ATOM      4  C   UNL d   1      58.891   0.390  30.198  0.00  0.00     0.051 A 
ATOM      5  C   UNL d   1      58.472   0.479  29.486  0.00  0.00     0.089 A 
ATOM      6  C   UNL d   1      58.496   0.447  30.916  0.00  0.00     0.027 A 
ATOM      7  C   UNL d   1      57.675   0.594  30.932  0.00  0.00     0.085 A 
ATOM      8  C   UNL d   1      57.660   0.624  29.501  0.00  0.00     0.021 A 
ATOM      9  C   UNL d   1      57.265   0.682  30.219  0.00  0.00     0.021 A 
ENDROOT
BRANCH   7  10
ATOM     10  N   UNL d   1      57.272   0.653  31.662  0.00  0.00    -0.208 NA
ATOM     11  C   UNL d   1      56.988  -0.034  32.018  0.00  0.00     0.283 C 
ATOM     12  O   UNL d   1      57.090  -0.768  31.676  0.00  0.00    -0.265 OA
BRANCH  11  13
ATOM     13  C   UNL d   1      56.587   0.024  32.745  0.00  0.00     0.113 A 
ATOM     14  C   UNL d   1      56.973   0.368  33.388  0.00  0.00     0.147 A 
ATOM     15  F   UNL d   1      57.760   0.660  33.319  0.00  0.00    -0.204 F 
ATOM     16  C   UNL d   1      56.568   0.427  34.123  0.00  0.00     0.030 A 
ATOM     17  C   UNL d   1      55.800   0.139  34.175  0.00  0.00     0.005 A 
ATOM     18  C   UNL d   1      55.419  -0.201  33.540  0.00  0.00     0.030 A 
ATOM     19  C   UNL d   1      55.824  -0.260  32.805  0.00  0.00     0.147 A 
ATOM     20  F   UNL d   1      55.447  -0.606  32.146  0.00  0.00    -0.204 F 
ENDBRANCH  11  13
ENDBRANCH   7  10
BRANCH   1  21
ATOM     21  S   UNL d   1      60.428   0.140  28.792  0.00  0.00    -0.087 SA
ATOM     22  C   UNL d   1      60.686  -0.616  28.642  0.00  0.00     0.076 C 
ENDBRANCH   1  21
TORSDOF 3
ENDMDL
MODEL 3
REMARK VINA RESULT:      -3.1      9.647      9.979
REMARK  3 active torsions:
REMARK  status: ('A' for Active; 'I' for Inactive)
REMARK    1  A    between atoms: C_4  and  C_1 
REMARK       I    between atoms: N_8  and  C_1 
REMARK    2  A    between atoms: S_14  and  C_2 
REMARK    3  A    between atoms: C_10  and  N_8 
ROOT
ATOM      1  C   UNL d   1      57.569  -9.757  30.117  0.00  0.00     0.136 A 
ATOM      2  N   UNL d   1      57.017  -9.780  30.728  0.00  0.00    -0.232 NA
ATOM      3  S   UNL d   1      58.321  -9.750  30.396  0.00  0.00    -0.060 SA
ATOM      4  C   UNL d   1      58.254  -9.771  31.224  0.00  0.00     0.051 A 
ATOM      5  C   UNL d   1      57.447  -9.789  31.423  0.00  0.00     0.089 A 
ATOM      6  C   UNL d   1      58.822  -9.775  31.818  0.00  0.00     0.027 A 
ATOM      7  C   UNL d   1      58.591  -9.798  32.619  0.00  0.00     0.085 A 
ATOM      8  C   UNL d   1      57.218  -9.812  32.215  0.00  0.00     0.021 A 
ATOM      9  C   UNL d   1      57.786  -9.816  32.809  0.00  0.00     0.021 A 
ENDROOT
BRANCH   7  10
ATOM     10  N   UNL d   1      59.169  -9.802  33.223  0.00  0.00    -0.208 NA
ATOM     11  C   UNL d   1      59.219  -9.156  33.733  0.00  0.00     0.283 C 
ATOM     12  O   UNL d   1      58.719  -8.515  33.663  0.00  0.00    -0.265 OA
BRANCH  11  13
ATOM     13  C   UNL d   1      59.794  -9.161  34.334  0.00  0.00     0.113 A 
ATOM     14  C   UNL d   1      60.537  -8.838  34.180  0.00  0.00     0.147 A 
ATOM     15  F   UNL d   1      60.720  -8.506  33.427  0.00  0.00    -0.204 F 
ATOM     16  C   UNL d   1      61.118  -8.842  34.788  0.00  0.00     0.030 A 
ATOM     17  C   UNL d   1      60.925  -9.169  35.517  0.00  0.00     0.005 A 
ATOM     18  C   UNL d   1      60.192  -9.488  35.669  0.00  0.00     0.030 A 
ATOM     19  C   UNL d   1      59.611  -9.484  35.062  0.00  0.00     0.147 A 
ATOM     20  F   UNL d   1      58.854  -9.807  35.203  0.00  0.00    -0.204 F 
ENDBRANCH  11  13
ENDBRANCH   7  10
BRANCH   1  21
ATOM     21  S   UNL d   1      57.369  -9.741  29.322  0.00  0.00    -0.087 SA
ATOM     22  C   UNL d   1      57.733  -9.209  28.826  0.00  0.00     0.076 C 
ENDBRANCH   1  21
TORSDOF 3
ENDMDL
