MODEL 1
REMARK VINA RESULT:      -9.8      0.000      0.000
REMARK  6 active torsions:
REMARK  status: ('A' for Active; 'I' for Inactive)
REMARK    1  A    between atoms: C_2  and  S_1 
REMARK    2  A    between atoms: N_4  and  S_1 
REMARK    3  A    between atoms: C_9  and  C_17 
REMARK       I    between atoms: N_20  and  C_9 
REMARK    4  A    between atoms: C_18  and  C_25 
REMARK    5  A    between atoms: C_24  and  N_20 
REMARK    6  A    between atoms: C_25  and  C_24 
ROOT
ATOM      1  N   UNL d   1      52.102  33.486  52.905  0.00  0.00    -0.229 N 
ATOM      2  C   UNL d   1      51.467  33.247  53.382  0.00  0.00     0.092 A 
ATOM      3  C   UNL d   1      51.977  34.045  52.313  0.00  0.00     0.092 A 
ATOM      4  C   UNL d   1      50.594  34.131  52.667  0.00  0.00     0.061 A 
ATOM      5  C   UNL d   1      51.227  34.367  52.195  0.00  0.00     0.025 A 
ATOM      6  C   UNL d   1      50.717  33.568  53.263  0.00  0.00     0.025 A 
ENDROOT
BRANCH   1   7
ATOM      7  S   UNL d   1      52.856  33.163  53.023  0.00  0.00     0.273 S 
ATOM      8  O   UNL d   1      53.604  32.843  53.141  0.00  0.00    -0.200 OA
ATOM      9  O   UNL d   1      52.663  32.531  52.529  0.00  0.00    -0.200 OA
BRANCH   7  10
ATOM     10  C   UNL d   1      53.050  33.798  53.520  0.00  0.00     0.125 A 
ATOM     11  C   UNL d   1      53.347  33.659  54.276  0.00  0.00     0.142 A 
ATOM     12  C   UNL d   1      53.540  34.290  54.769  0.00  0.00     0.131 A 
ATOM     13  N   UNL d   1      53.507  32.955  54.681  0.00  0.00    -0.101 NA
ATOM     14  N   UNL d   1      53.820  33.981  55.483  0.00  0.00    -0.102 NA
ATOM     15  C   UNL d   1      53.437  35.067  54.511  0.00  0.00     0.023 A 
ATOM     16  O   UNL d   1      53.801  33.162  55.431  0.00  0.00    -0.106 OA
ATOM     17  C   UNL d   1      53.138  35.211  53.748  0.00  0.00     0.002 A 
ATOM     18  C   UNL d   1      52.945  34.580  53.254  0.00  0.00     0.015 A 
ENDBRANCH   7  10
ENDBRANCH   1   7
BRANCH   4  19
ATOM     19  C   UNL d   1      49.850  34.454  52.545  0.00  0.00     0.279 C 
ATOM     20  O   UNL d   1      49.413  34.246  51.888  0.00  0.00    -0.265 OA
ATOM     21  N   UNL d   1      49.536  34.997  53.093  0.00  0.00    -0.206 NA
BRANCH  21  22
ATOM     22  C   UNL d   1      48.779  35.327  52.971  0.00  0.00     0.102 C 
BRANCH  22  23
ATOM     23  C   UNL d   1      48.517  35.958  53.441  0.00  0.00     0.021 C 
BRANCH  23  24
ATOM     24  C   UNL d   1      47.709  36.143  53.468  0.00  0.00     0.002 A 
ATOM     25  C   UNL d   1      47.350  36.511  52.830  0.00  0.00     0.000 A 
ATOM     26  C   UNL d   1      46.542  36.696  52.856  0.00  0.00     0.000 A 
ATOM     27  C   UNL d   1      46.096  36.513  53.520  0.00  0.00     0.000 A 
ATOM     28  C   UNL d   1      46.457  36.139  54.169  0.00  0.00     0.000 A 
ATOM     29  C   UNL d   1      47.265  35.954  54.143  0.00  0.00     0.000 A 
ENDBRANCH  23  24
ENDBRANCH  22  23
ENDBRANCH  21  22
ENDBRANCH   4  19
TORSDOF 6
ENDMDL
MODEL 2
REMARK VINA RESULT:      -9.4      1.003      1.325
REMARK  6 active torsions:
REMARK  status: ('A' for Active; 'I' for Inactive)
REMARK    1  A    between atoms: C_2  and  S_1 
REMARK    2  A    between atoms: N_4  and  S_1 
REMARK    3  A    between atoms: C_9  and  C_17 
REMARK       I    between atoms: N_20  and  C_9 
REMARK    4  A    between atoms: C_18  and  C_25 
REMARK    5  A    between atoms: C_24  and  N_20 
REMARK    6  A    between atoms: C_25  and  C_24 
ROOT
ATOM      1  N   UNL d   1      52.257  33.181  52.940  0.00  0.00    -0.229 N 
ATOM      2  C   UNL d   1      52.233  33.865  52.473  0.00  0.00     0.092 A 
ATOM      3  C   UNL d   1      51.601  32.976  53.394  0.00  0.00     0.092 A 
ATOM      4  C   UNL d   1      50.898  34.128  52.922  0.00  0.00     0.061 A 
ATOM      5  C   UNL d   1      50.924  33.447  53.385  0.00  0.00     0.025 A 
ATOM      6  C   UNL d   1      51.557  34.336  52.464  0.00  0.00     0.025 A 
ENDROOT
BRANCH   1   7
ATOM      7  S   UNL d   1      52.938  32.707  52.950  0.00  0.00     0.273 S 
ATOM      8  O   UNL d   1      53.612  32.237  52.959  0.00  0.00    -0.200 OA
ATOM      9  O   UNL d   1      52.611  32.227  52.364  0.00  0.00    -0.200 OA
BRANCH   7  10
ATOM     10  C   UNL d   1      53.266  33.190  53.539  0.00  0.00     0.125 A 
ATOM     11  C   UNL d   1      53.549  32.858  54.238  0.00  0.00     0.142 A 
ATOM     12  C   UNL d   1      53.876  33.338  54.823  0.00  0.00     0.131 A 
ATOM     13  N   UNL d   1      53.578  32.073  54.500  0.00  0.00    -0.101 NA
ATOM     14  N   UNL d   1      54.108  32.853  55.451  0.00  0.00    -0.102 NA
ATOM     15  C   UNL d   1      53.921  34.154  54.715  0.00  0.00     0.023 A 
ATOM     16  O   UNL d   1      53.927  32.077  55.255  0.00  0.00    -0.106 OA
ATOM     17  C   UNL d   1      53.636  34.493  54.010  0.00  0.00     0.002 A 
ATOM     18  C   UNL d   1      53.310  34.013  53.425  0.00  0.00     0.015 A 
ENDBRANCH   7  10
ENDBRANCH   1   7
BRANCH   4  19
ATOM     19  C   UNL d   1      50.222  34.593  52.916  0.00  0.00     0.279 C 
ATOM     20  O   UNL d   1      50.093  35.140  53.509  0.00  0.00    -0.265 OA
ATOM     21  N   UNL d   1      49.664  34.510  52.305  0.00  0.00    -0.206 NA
BRANCH  21  22
ATOM     22  C   UNL d   1      48.975  34.982  52.297  0.00  0.00     0.102 C 
BRANCH  22  23
ATOM     23  C   UNL d   1      48.477  34.985  51.633  0.00  0.00     0.021 C 
BRANCH  23  24
ATOM     24  C   UNL d   1      47.751  35.383  51.666  0.00  0.00     0.002 A 
ATOM     25  C   UNL d   1      47.152  35.191  51.141  0.00  0.00     0.000 A 
ATOM     26  C   UNL d   1      46.425  35.589  51.175  0.00  0.00     0.000 A 
ATOM     27  C   UNL d   1      46.299  36.177  51.733  0.00  0.00     0.000 A 
ATOM     28  C   UNL d   1      46.905  36.375  52.268  0.00  0.00     0.000 A 
ATOM     29  C   UNL d   1      47.632  35.977  52.234  0.00  0.00     0.000 A 
ENDBRANCH  23  24
ENDBRANCH  22  23
ENDBRANCH  21  22
ENDBRANCH   4  19
TORSDOF 6
ENDMDL
MODEL 3
REMARK VINA RESULT:      -8.7      1.062      1.520
REMARK  6 active torsions:
REMARK  status: ('A' for Active; 'I' for Inactive)
REMARK    1  A    between atoms: C_2  and  S_1 
REMARK    2  A    between atoms: N_4  and  S_1 
REMARK    3  A    between atoms: C_9  and  C_17 
REMARK       I    between atoms: N_20  and  C_9 
REMARK    4  A    between atoms: C_18  and  C_25 
REMARK    5  A    between atoms: C_24  and  N_20 
REMARK    6  A    between atoms: C_25  and  C_24 
ROOT
ATOM      1  N   UNL d   1      52.552  34.249  53.385  0.00  0.00    -0.229 N 
ATOM      2  C   UNL d   1      52.308  34.293  52.594  0.00  0.00     0.092 A 
ATOM      3  C   UNL d   1      51.989  34.270  53.986  0.00  0.00     0.092 A 
ATOM      4  C   UNL d   1      50.942  34.379  53.018  0.00  0.00     0.061 A 
ATOM      5  C   UNL d   1      51.187  34.335  53.803  0.00  0.00     0.025 A 
ATOM      6  C   UNL d   1      51.507  34.358  52.411  0.00  0.00     0.025 A 
ENDROOT
BRANCH   1   7
ATOM      7  S   UNL d   1      53.358  34.184  53.569  0.00  0.00     0.273 S 
ATOM      8  O   UNL d   1      54.157  34.119  53.751  0.00  0.00    -0.200 OA
ATOM      9  O   UNL d   1      53.416  35.006  53.604  0.00  0.00    -0.200 OA
BRANCH   7  10
ATOM     10  C   UNL d   1      53.299  33.358  53.534  0.00  0.00     0.125 A 
ATOM     11  C   UNL d   1      53.516  32.897  54.182  0.00  0.00     0.142 A 
ATOM     12  C   UNL d   1      53.458  32.076  54.147  0.00  0.00     0.131 A 
ATOM     13  N   UNL d   1      53.807  33.106  54.929  0.00  0.00    -0.101 NA
ATOM     14  N   UNL d   1      53.712  31.770  54.872  0.00  0.00    -0.102 NA
ATOM     15  C   UNL d   1      53.182  31.707  53.463  0.00  0.00     0.023 A 
ATOM     16  O   UNL d   1      53.927  32.400  55.353  0.00  0.00    -0.106 OA
ATOM     17  C   UNL d   1      52.962  32.169  52.806  0.00  0.00     0.002 A 
ATOM     18  C   UNL d   1      53.020  32.990  52.841  0.00  0.00     0.015 A 
ENDBRANCH   7  10
ENDBRANCH   1   7
BRANCH   4  19
ATOM     19  C   UNL d   1      50.143  34.443  52.842  0.00  0.00     0.279 C 
ATOM     20  O   UNL d   1      49.751  33.828  52.474  0.00  0.00    -0.265 OA
ATOM     21  N   UNL d   1      49.728  35.137  53.036  0.00  0.00    -0.206 NA
BRANCH  21  22
ATOM     22  C   UNL d   1      48.915  35.205  52.858  0.00  0.00     0.102 C 
BRANCH  22  23
ATOM     23  C   UNL d   1      48.510  35.913  53.015  0.00  0.00     0.021 C 
BRANCH  23  24
ATOM     24  C   UNL d   1      47.706  35.977  52.821  0.00  0.00     0.002 A 
ATOM     25  C   UNL d   1      47.474  36.034  52.038  0.00  0.00     0.000 A 
ATOM     26  C   UNL d   1      46.671  36.098  51.844  0.00  0.00     0.000 A 
ATOM     27  C   UNL d   1      46.101  36.105  52.435  0.00  0.00     0.000 A 
ATOM     28  C   UNL d   1      46.333  36.047  53.232  0.00  0.00     0.000 A 
ATOM     29  C   UNL d   1      47.136  35.983  53.425  0.00  0.00     0.000 A 
ENDBRANCH  23  24
ENDBRANCH  22  23
ENDBRANCH  21  22
ENDBRANCH   4  19
TORSDOF 6
ENDMDL
MODEL 4
REMARK VINA RESULT:      -7.8      1.857      2.597
REMARK  6 active torsions:
REMARK  status: ('A' for Active; 'I' for Inactive)
REMARK    1  A    between atoms: C_2  and  S_1 
REMARK    2  A    between atoms: N_4  and  S_1 
REMARK    3  A    between atoms: C_9  and  C_17 
REMARK       I    between atoms: N_20  and  C_9 
REMARK    4  A    between atoms: C_18  and  C_25 
REMARK    5  A    between atoms: C_24  and  N_20 
REMARK    6  A    between atoms: C_25  and  C_24 
ROOT
ATOM      1  N   UNL d   1      53.394  32.816  53.582  0.00  0.00    -0.229 N 
ATOM      2  C   UNL d   1      52.897  33.022  54.213  0.00  0.00     0.092 A 
ATOM      3  C   UNL d   1      53.267  33.149  52.840  0.00  0.00     0.092 A 
ATOM      4  C   UNL d   1      52.155  33.891  53.348  0.00  0.00     0.061 A 
ATOM      5  C   UNL d   1      52.651  33.684  52.723  0.00  0.00     0.025 A 
ATOM      6  C   UNL d   1      52.280  33.558  54.096  0.00  0.00     0.025 A 
ENDROOT
BRANCH   1   7
ATOM      7  S   UNL d   1      54.014  32.278  53.700  0.00  0.00     0.273 S 
ATOM      8  O   UNL d   1      54.628  31.745  53.816  0.00  0.00    -0.200 OA
ATOM      9  O   UNL d   1      54.489  32.889  53.986  0.00  0.00    -0.200 OA
BRANCH   7  10
ATOM     10  C   UNL d   1      53.536  31.665  53.412  0.00  0.00     0.125 A 
ATOM     11  C   UNL d   1      53.398  30.994  53.872  0.00  0.00     0.142 A 
ATOM     12  C   UNL d   1      52.923  30.385  53.586  0.00  0.00     0.131 A 
ATOM     13  N   UNL d   1      53.660  30.786  54.629  0.00  0.00    -0.101 NA
ATOM     14  N   UNL d   1      52.888  29.795  54.164  0.00  0.00    -0.102 NA
ATOM     15  C   UNL d   1      52.581  30.440  52.838  0.00  0.00     0.023 A 
ATOM     16  O   UNL d   1      53.339  30.039  54.805  0.00  0.00    -0.106 OA
ATOM     17  C   UNL d   1      52.718  31.115  52.370  0.00  0.00     0.002 A 
ATOM     18  C   UNL d   1      53.193  31.724  52.656  0.00  0.00     0.015 A 
ENDBRANCH   7  10
ENDBRANCH   1   7
BRANCH   4  19
ATOM     19  C   UNL d   1      51.544  34.424  53.226  0.00  0.00     0.279 C 
ATOM     20  O   UNL d   1      51.650  35.218  53.387  0.00  0.00    -0.265 OA
ATOM     21  N   UNL d   1      50.810  34.158  52.937  0.00  0.00    -0.206 NA
BRANCH  21  22
ATOM     22  C   UNL d   1      50.186  34.698  52.812  0.00  0.00     0.102 C 
BRANCH  22  23
ATOM     23  C   UNL d   1      49.448  34.430  52.543  0.00  0.00     0.021 C 
BRANCH  23  24
ATOM     24  C   UNL d   1      48.834  34.973  52.420  0.00  0.00     0.002 A 
ATOM     25  C   UNL d   1      48.581  35.454  53.033  0.00  0.00     0.000 A 
ATOM     26  C   UNL d   1      47.966  35.997  52.911  0.00  0.00     0.000 A 
ATOM     27  C   UNL d   1      47.607  36.058  52.176  0.00  0.00     0.000 A 
ATOM     28  C   UNL d   1      47.861  35.572  51.551  0.00  0.00     0.000 A 
ATOM     29  C   UNL d   1      48.475  35.029  51.673  0.00  0.00     0.000 A 
ENDBRANCH  23  24
ENDBRANCH  22  23
ENDBRANCH  21  22
ENDBRANCH   4  19
TORSDOF 6
ENDMDL
MODEL 5
REMARK VINA RESULT:      -7.7      2.900      6.453
REMARK  6 active torsions:
REMARK  status: ('A' for Active; 'I' for Inactive)
REMARK    1  A    between atoms: C_2  and  S_1 
REMARK    2  A    between atoms: N_4  and  S_1 
REMARK    3  A    between atoms: C_9  and  C_17 
REMARK       I    between atoms: N_20  and  C_9 
REMARK    4  A    between atoms: C_18  and  C_25 
REMARK    5  A    between atoms: C_24  and  N_20 
REMARK    6  A    between atoms: C_25  and  C_24 
ROOT
ATOM      1  N   UNL d   1      46.550  35.939  51.825  0.00  0.00    -0.229 N 
ATOM      2  C   UNL d   1      46.671  35.217  51.437  0.00  0.00     0.092 A 
ATOM      3  C   UNL d   1      47.188  36.323  52.177  0.00  0.00     0.092 A 
ATOM      4  C   UNL d   1      48.066  35.275  51.759  0.00  0.00     0.061 A 
ATOM      5  C   UNL d   1      47.943  35.992  52.144  0.00  0.00     0.025 A 
ATOM      6  C   UNL d   1      47.426  34.886  51.404  0.00  0.00     0.025 A 
ENDROOT
BRANCH   1   7
ATOM      7  S   UNL d   1      45.791  36.272  51.858  0.00  0.00     0.273 S 
ATOM      8  O   UNL d   1      45.039  36.602  51.890  0.00  0.00    -0.200 OA
ATOM      9  O   UNL d   1      45.853  36.491  51.065  0.00  0.00    -0.200 OA
BRANCH   7  10
ATOM     10  C   UNL d   1      45.730  36.052  52.655  0.00  0.00     0.125 A 
ATOM     11  C   UNL d   1      45.212  35.452  52.882  0.00  0.00     0.142 A 
ATOM     12  C   UNL d   1      45.151  35.233  53.674  0.00  0.00     0.131 A 
ATOM     13  N   UNL d   1      44.695  34.979  52.441  0.00  0.00    -0.101 NA
ATOM     14  N   UNL d   1      44.595  34.624  53.729  0.00  0.00    -0.102 NA
ATOM     15  C   UNL d   1      45.606  35.613  54.247  0.00  0.00     0.023 A 
ATOM     16  O   UNL d   1      44.314  34.466  52.974  0.00  0.00    -0.106 OA
ATOM     17  C   UNL d   1      46.130  36.220  54.022  0.00  0.00     0.002 A 
ATOM     18  C   UNL d   1      46.191  36.439  53.230  0.00  0.00     0.015 A 
ENDBRANCH   7  10
ENDBRANCH   1   7
BRANCH   4  19
ATOM     19  C   UNL d   1      48.819  34.950  51.729  0.00  0.00     0.279 C 
ATOM     20  O   UNL d   1      49.157  34.756  51.011  0.00  0.00    -0.265 OA
ATOM     21  N   UNL d   1      49.244  34.817  52.432  0.00  0.00    -0.206 NA
BRANCH  21  22
ATOM     22  C   UNL d   1      50.010  34.487  52.405  0.00  0.00     0.102 C 
BRANCH  22  23
ATOM     23  C   UNL d   1      50.404  34.285  53.107  0.00  0.00     0.021 C 
BRANCH  23  24
ATOM     24  C   UNL d   1      51.193  34.032  53.077  0.00  0.00     0.002 A 
ATOM     25  C   UNL d   1      51.370  33.232  53.083  0.00  0.00     0.000 A 
ATOM     26  C   UNL d   1      52.159  32.979  53.053  0.00  0.00     0.000 A 
ATOM     27  C   UNL d   1      52.769  33.527  53.016  0.00  0.00     0.000 A 
ATOM     28  C   UNL d   1      52.593  34.340  53.009  0.00  0.00     0.000 A 
ATOM     29  C   UNL d   1      51.804  34.593  53.040  0.00  0.00     0.000 A 
ENDBRANCH  23  24
ENDBRANCH  22  23
ENDBRANCH  21  22
ENDBRANCH   4  19
TORSDOF 6
ENDMDL
