MODEL 1
REMARK VINA RESULT:      -2.5      0.000      0.000
REMARK  2 active torsions:
REMARK  status: ('A' for Active; 'I' for Inactive)
REMARK    1  A    between atoms: N_8  and  C_3 
REMARK    2  A    between atoms: C_7  and  N_9 
ROOT
ATOM      1  N   UNL d   1      32.670  17.607 -23.862  0.00  0.00    -0.286 N 
ATOM      2  N   UNL d   1      32.892  19.050 -23.054  0.00  0.00    -0.135 N 
ATOM      3  C   UNL d   1      32.594  18.335 -24.241  0.00  0.00     0.101 A 
ATOM      4  C   UNL d   1      32.860  17.598 -23.065  0.00  0.00     0.101 A 
ATOM      5  C   UNL d   1      32.976  18.299 -22.636  0.00  0.00     0.117 A 
ATOM      6  C   UNL d   1      32.704  19.052 -23.840  0.00  0.00     0.117 A 
ENDROOT
BRANCH   1   7
ATOM      7  C   UNL d   1      32.564  16.917 -24.248  0.00  0.00     0.152 A 
ATOM      8  C   UNL d   1      31.820  16.570 -24.323  0.00  0.00     0.059 A 
ATOM      9  C   UNL d   1      31.710  15.853 -24.725  0.00  0.00     0.115 A 
ATOM     10  C   UNL d   1      31.099  16.818 -24.053  0.00  0.00     0.011 A 
ATOM     11  S   UNL d   1      30.923  15.669 -24.696  0.00  0.00    -0.068 SA
ATOM     12  N   UNL d   1      32.343  15.474 -25.056  0.00  0.00    -0.217 NA
ATOM     13  C   UNL d   1      30.555  16.248 -24.293  0.00  0.00     0.031 A 
ATOM     14  C   UNL d   1      29.731  16.283 -24.129  0.00  0.00     0.007 C 
ATOM     15  C   UNL d   1      33.127  15.792 -25.005  0.00  0.00     0.201 A 
ATOM     16  N   UNL d   1      33.241  16.537 -24.588  0.00  0.00    -0.206 NA
ATOM     17  C   UNL d   1      30.903  17.525 -23.604  0.00  0.00     0.001 C 
ENDBRANCH   1   7
BRANCH   2  18
ATOM     18  C   UNL d   1      33.014  19.780 -22.601  0.00  0.00     0.735 A 
ATOM     19  N   UNL d   1      33.015  19.723 -21.817  0.00  0.00    -0.059 NA
ATOM     20  C   UNL d   1      33.131  20.411 -21.347  0.00  0.00     0.120 A 
ATOM     21  C   UNL d   1      33.241  21.126 -21.718  0.00  0.00     0.043 A 
ATOM     22  C   UNL d   1      33.237  21.162 -22.540  0.00  0.00     0.120 A 
ATOM     23  N   UNL d   1      33.126  20.506 -22.988  0.00  0.00    -0.059 NA
ENDBRANCH   2  18
TORSDOF 2
ENDMDL
MODEL 2
REMARK VINA RESULT:      -1.1      3.835      5.806
REMARK  2 active torsions:
REMARK  status: ('A' for Active; 'I' for Inactive)
REMARK    1  A    between atoms: N_8  and  C_3 
REMARK    2  A    between atoms: C_7  and  N_9 
ROOT
ATOM      1  N   UNL d   1      32.644  22.674 -20.942  0.00  0.00    -0.286 N 
ATOM      2  N   UNL d   1      32.614  23.052 -19.316  0.00  0.00    -0.135 N 
ATOM      3  C   UNL d   1      33.237  23.124 -20.588  0.00  0.00     0.101 A 
ATOM      4  C   UNL d   1      32.025  22.407 -20.476  0.00  0.00     0.101 A 
ATOM      5  C   UNL d   1      31.982  22.579 -19.666  0.00  0.00     0.117 A 
ATOM      6  C   UNL d   1      33.223  23.312 -19.780  0.00  0.00     0.117 A 
ENDROOT
BRANCH   1   7
ATOM      7  C   UNL d   1      32.658  22.494 -21.718  0.00  0.00     0.152 A 
ATOM      8  C   UNL d   1      32.809  21.729 -21.985  0.00  0.00     0.059 A 
ATOM      9  C   UNL d   1      32.824  21.541 -22.793  0.00  0.00     0.115 A 
ATOM     10  C   UNL d   1      32.962  21.052 -21.569  0.00  0.00     0.011 A 
ATOM     11  S   UNL d   1      32.986  20.751 -22.863  0.00  0.00    -0.068 SA
ATOM     12  N   UNL d   1      32.688  22.117 -23.344  0.00  0.00    -0.217 NA
ATOM     13  C   UNL d   1      33.069  20.457 -22.128  0.00  0.00     0.031 A 
ATOM     14  C   UNL d   1      33.241  19.655 -21.939  0.00  0.00     0.007 C 
ATOM     15  C   UNL d   1      32.528  22.918 -23.118  0.00  0.00     0.201 A 
ATOM     16  N   UNL d   1      32.513  23.113 -22.279  0.00  0.00    -0.206 NA
ATOM     17  C   UNL d   1      33.011  20.939 -20.717  0.00  0.00     0.001 C 
ENDBRANCH   1   7
BRANCH   2  18
ATOM     18  C   UNL d   1      32.566  23.228 -18.468  0.00  0.00     0.735 A 
ATOM     19  N   UNL d   1      33.202  23.080 -18.031  0.00  0.00    -0.059 NA
ATOM     20  C   UNL d   1      33.190  23.238 -17.205  0.00  0.00     0.120 A 
ATOM     21  C   UNL d   1      32.513  23.545 -16.875  0.00  0.00     0.043 A 
ATOM     22  C   UNL d   1      31.859  23.692 -17.351  0.00  0.00     0.120 A 
ATOM     23  N   UNL d   1      31.870  23.541 -18.139  0.00  0.00    -0.059 NA
ENDBRANCH   2  18
TORSDOF 2
ENDMDL
MODEL 3
REMARK VINA RESULT:      -0.9      2.286      4.353
REMARK  2 active torsions:
REMARK  status: ('A' for Active; 'I' for Inactive)
REMARK    1  A    between atoms: N_8  and  C_3 
REMARK    2  A    between atoms: C_7  and  N_9 
ROOT
ATOM      1  N   UNL d   1      30.870  16.210 -24.428  0.00  0.00    -0.286 N 
ATOM      2  N   UNL d   1      29.265  16.122 -23.978  0.00  0.00    -0.135 N 
ATOM      3  C   UNL d   1      30.261  16.426 -24.940  0.00  0.00     0.101 A 
ATOM      4  C   UNL d   1      30.674  15.945 -23.677  0.00  0.00     0.101 A 
ATOM      5  C   UNL d   1      29.885  15.891 -23.425  0.00  0.00     0.117 A 
ATOM      6  C   UNL d   1      29.464  16.382 -24.717  0.00  0.00     0.117 A 
ENDROOT
BRANCH   1   7
ATOM      7  C   UNL d   1      31.636  16.251 -24.642  0.00  0.00     0.152 A 
ATOM      8  C   UNL d   1      32.040  16.969 -24.680  0.00  0.00     0.059 A 
ATOM      9  C   UNL d   1      32.837  17.013 -24.904  0.00  0.00     0.115 A 
ATOM     10  C   UNL d   1      31.782  17.721 -24.526  0.00  0.00     0.011 A 
ATOM     11  S   UNL d   1      33.060  17.790 -24.884  0.00  0.00    -0.068 SA
ATOM     12  N   UNL d   1      33.241  16.338 -25.092  0.00  0.00    -0.217 NA
ATOM     13  C   UNL d   1      32.427  18.216 -24.656  0.00  0.00     0.031 A 
ATOM     14  C   UNL d   1      32.408  19.052 -24.561  0.00  0.00     0.007 C 
ATOM     15  C   UNL d   1      32.869  15.577 -25.068  0.00  0.00     0.201 A 
ATOM     16  N   UNL d   1      32.041  15.532 -24.836  0.00  0.00    -0.206 NA
ATOM     17  C   UNL d   1      31.003  17.986 -24.274  0.00  0.00     0.001 C 
ENDBRANCH   1   7
BRANCH   2  18
ATOM     18  C   UNL d   1      28.441  16.064 -23.710  0.00  0.00     0.735 A 
ATOM     19  N   UNL d   1      28.199  16.584 -23.173  0.00  0.00    -0.059 NA
ATOM     20  C   UNL d   1      27.408  16.557 -22.890  0.00  0.00     0.120 A 
ATOM     21  C   UNL d   1      26.906  15.986 -23.182  0.00  0.00     0.043 A 
ATOM     22  C   UNL d   1      27.182  15.453 -23.743  0.00  0.00     0.120 A 
ATOM     23  N   UNL d   1      27.937  15.479 -24.013  0.00  0.00    -0.059 NA
ENDBRANCH   2  18
TORSDOF 2
ENDMDL
MODEL 4
REMARK VINA RESULT:      -0.5      2.273      5.314
REMARK  2 active torsions:
REMARK  status: ('A' for Active; 'I' for Inactive)
REMARK    1  A    between atoms: N_8  and  C_3 
REMARK    2  A    between atoms: C_7  and  N_9 
ROOT
ATOM      1  N   UNL d   1      32.653  20.525 -21.735  0.00  0.00    -0.286 N 
ATOM      2  N   UNL d   1      32.601  19.144 -22.670  0.00  0.00    -0.135 N 
ATOM      3  C   UNL d   1      32.051  20.392 -22.282  0.00  0.00     0.101 A 
ATOM      4  C   UNL d   1      33.240  19.959 -21.653  0.00  0.00     0.101 A 
ATOM      5  C   UNL d   1      33.241  19.263 -22.103  0.00  0.00     0.117 A 
ATOM      6  C   UNL d   1      32.024  19.705 -22.746  0.00  0.00     0.117 A 
ENDROOT
BRANCH   1   7
ATOM      7  C   UNL d   1      32.678  21.185 -21.289  0.00  0.00     0.152 A 
ATOM      8  C   UNL d   1      32.826  21.928 -21.616  0.00  0.00     0.059 A 
ATOM      9  C   UNL d   1      32.852  22.614 -21.152  0.00  0.00     0.115 A 
ATOM     10  C   UNL d   1      32.966  22.140 -22.384  0.00  0.00     0.011 A 
ATOM     11  S   UNL d   1      33.008  23.240 -21.640  0.00  0.00    -0.068 SA
ATOM     12  N   UNL d   1      32.731  22.567 -20.354  0.00  0.00    -0.217 NA
ATOM     13  C   UNL d   1      33.076  22.956 -22.381  0.00  0.00     0.031 A 
ATOM     14  C   UNL d   1      33.238  23.414 -23.068  0.00  0.00     0.007 C 
ATOM     15  C   UNL d   1      32.575  21.827 -19.972  0.00  0.00     0.201 A 
ATOM     16  N   UNL d   1      32.548  21.114 -20.454  0.00  0.00    -0.206 NA
ATOM     17  C   UNL d   1      33.000  21.644 -23.086  0.00  0.00     0.001 C 
ENDBRANCH   1   7
BRANCH   2  18
ATOM     18  C   UNL d   1      32.606  18.413 -23.138  0.00  0.00     0.735 A 
ATOM     19  N   UNL d   1      32.327  18.453 -23.872  0.00  0.00    -0.059 NA
ATOM     20  C   UNL d   1      32.317  17.764 -24.354  0.00  0.00     0.120 A 
ATOM     21  C   UNL d   1      32.600  17.066 -24.047  0.00  0.00     0.043 A 
ATOM     22  C   UNL d   1      32.887  17.048 -23.277  0.00  0.00     0.120 A 
ATOM     23  N   UNL d   1      32.897  17.705 -22.817  0.00  0.00    -0.059 NA
ENDBRANCH   2  18
TORSDOF 2
ENDMDL
MODEL 5
REMARK VINA RESULT:       0.2      1.760      4.589
REMARK  2 active torsions:
REMARK  status: ('A' for Active; 'I' for Inactive)
REMARK    1  A    between atoms: N_8  and  C_3 
REMARK    2  A    between atoms: C_7  and  N_9 
ROOT
ATOM      1  N   UNL d   1      32.646  19.446 -23.493  0.00  0.00    -0.286 N 
ATOM      2  N   UNL d   1      32.244  17.852 -23.782  0.00  0.00    -0.135 N 
ATOM      3  C   UNL d   1      31.862  19.195 -23.538  0.00  0.00     0.101 A 
ATOM      4  C   UNL d   1      33.241  18.891 -23.594  0.00  0.00     0.101 A 
ATOM      5  C   UNL d   1      33.072  18.092 -23.739  0.00  0.00     0.117 A 
ATOM      6  C   UNL d   1      31.662  18.404 -23.681  0.00  0.00     0.117 A 
ENDROOT
BRANCH   1   7
ATOM      7  C   UNL d   1      32.839  20.207 -23.355  0.00  0.00     0.152 A 
ATOM      8  C   UNL d   1      32.952  20.496 -22.591  0.00  0.00     0.059 A 
ATOM      9  C   UNL d   1      33.152  21.288 -22.447  0.00  0.00     0.115 A 
ATOM     10  C   UNL d   1      32.900  20.118 -21.877  0.00  0.00     0.011 A 
ATOM     11  S   UNL d   1      33.221  21.387 -21.647  0.00  0.00    -0.068 SA
ATOM     12  N   UNL d   1      33.241  21.801 -23.066  0.00  0.00    -0.217 NA
ATOM     13  C   UNL d   1      33.070  20.684 -21.304  0.00  0.00     0.031 A 
ATOM     14  C   UNL d   1      33.079  20.532 -20.477  0.00  0.00     0.007 C 
ATOM     15  C   UNL d   1      33.135  21.550 -23.868  0.00  0.00     0.201 A 
ATOM     16  N   UNL d   1      32.927  20.728 -24.018  0.00  0.00    -0.206 NA
ATOM     17  C   UNL d   1      32.710  19.295 -21.712  0.00  0.00     0.001 C 
ENDBRANCH   1   7
BRANCH   2  18
ATOM     18  C   UNL d   1      32.073  17.015 -23.934  0.00  0.00     0.735 A 
ATOM     19  N   UNL d   1      32.026  16.786 -24.684  0.00  0.00    -0.059 NA
ATOM     20  C   UNL d   1      31.861  15.982 -24.868  0.00  0.00     0.120 A 
ATOM     21  C   UNL d   1      31.753  15.455 -24.258  0.00  0.00     0.043 A 
ATOM     22  C   UNL d   1      31.807  15.716 -23.481  0.00  0.00     0.120 A 
ATOM     23  N   UNL d   1      31.964  16.483 -23.305  0.00  0.00    -0.059 NA
ENDBRANCH   2  18
TORSDOF 2
ENDMDL
