MODEL 1
REMARK VINA RESULT:      -2.2      0.000      0.000
REMARK  2 active torsions:
REMARK  status: ('A' for Active; 'I' for Inactive)
REMARK    1  A    between atoms: C_5  and  N_2 
REMARK    2  A    between atoms: C_4  and  C_5 
ROOT
ATOM      1  C   UNL d   1      29.171  16.161 -23.639  0.00  0.00     0.206 A 
ATOM      2  N   UNL d   1      29.853  16.457 -24.005  0.00  0.00    -0.279 N 
ATOM      3  N   UNL d   1      28.532  16.654 -23.853  0.00  0.00    -0.215 NA
ATOM      4  C   UNL d   1      28.827  17.244 -24.346  0.00  0.00     0.120 A 
ATOM      5  C   UNL d   1      29.640  17.125 -24.442  0.00  0.00     0.103 A 
ATOM      6  S   UNL d   1      29.130  15.497 -23.148  0.00  0.00    -0.038 SA
ENDROOT
BRANCH   2   7
ATOM      7  C   UNL d   1      30.618  16.138 -23.945  0.00  0.00     0.089 C 
BRANCH   7   8
ATOM      8  C   UNL d   1      31.268  16.590 -24.155  0.00  0.00     0.047 A 
ATOM      9  S   UNL d   1      31.645  16.583 -24.884  0.00  0.00    -0.085 SA
ATOM     10  C   UNL d   1      32.271  17.120 -24.860  0.00  0.00     0.035 A 
ATOM     11  C   UNL d   1      32.276  17.460 -24.104  0.00  0.00     0.007 A 
ATOM     12  C   UNL d   1      31.657  17.132 -23.672  0.00  0.00     0.009 A 
ENDBRANCH   7   8
ENDBRANCH   2   7
TORSDOF 2
ENDMDL
MODEL 2
REMARK VINA RESULT:      -2.2      1.040      2.969
REMARK  2 active torsions:
REMARK  status: ('A' for Active; 'I' for Inactive)
REMARK    1  A    between atoms: C_5  and  N_2 
REMARK    2  A    between atoms: C_4  and  C_5 
ROOT
ATOM      1  C   UNL d   1      31.171  17.186 -24.495  0.00  0.00     0.206 A 
ATOM      2  N   UNL d   1      30.536  16.696 -24.286  0.00  0.00    -0.279 N 
ATOM      3  N   UNL d   1      31.810  17.005 -23.988  0.00  0.00    -0.215 NA
ATOM      4  C   UNL d   1      31.560  16.409 -23.478  0.00  0.00     0.120 A 
ATOM      5  C   UNL d   1      30.777  16.217 -23.659  0.00  0.00     0.103 A 
ATOM      6  S   UNL d   1      31.173  17.753 -25.097  0.00  0.00    -0.038 SA
ENDROOT
BRANCH   2   7
ATOM      7  C   UNL d   1      29.786  16.687 -24.646  0.00  0.00     0.089 C 
BRANCH   7   8
ATOM      8  C   UNL d   1      29.140  16.392 -24.238  0.00  0.00     0.047 A 
ATOM      9  S   UNL d   1      28.867  15.618 -24.263  0.00  0.00    -0.085 SA
ATOM     10  C   UNL d   1      28.205  15.560 -23.772  0.00  0.00     0.035 A 
ATOM     11  C   UNL d   1      28.074  16.309 -23.442  0.00  0.00     0.007 A 
ATOM     12  C   UNL d   1      28.651  16.820 -23.731  0.00  0.00     0.009 A 
ENDBRANCH   7   8
ENDBRANCH   2   7
TORSDOF 2
ENDMDL
MODEL 3
REMARK VINA RESULT:      -2.0      2.142      3.471
REMARK  2 active torsions:
REMARK  status: ('A' for Active; 'I' for Inactive)
REMARK    1  A    between atoms: C_5  and  N_2 
REMARK    2  A    between atoms: C_4  and  C_5 
ROOT
ATOM      1  C   UNL d   1      32.986  18.889 -24.177  0.00  0.00     0.206 A 
ATOM      2  N   UNL d   1      32.695  18.159 -23.911  0.00  0.00    -0.279 N 
ATOM      3  N   UNL d   1      33.172  19.349 -23.506  0.00  0.00    -0.215 NA
ATOM      4  C   UNL d   1      32.994  18.899 -22.839  0.00  0.00     0.120 A 
ATOM      5  C   UNL d   1      32.701  18.167 -23.086  0.00  0.00     0.103 A 
ATOM      6  S   UNL d   1      33.075  19.120 -24.966  0.00  0.00    -0.038 SA
ENDROOT
BRANCH   2   7
ATOM      7  C   UNL d   1      32.441  17.530 -24.392  0.00  0.00     0.089 C 
BRANCH   7   8
ATOM      8  C   UNL d   1      31.968  16.941 -24.077  0.00  0.00     0.047 A 
ATOM      9  S   UNL d   1      32.227  16.220 -23.781  0.00  0.00    -0.085 SA
ATOM     10  C   UNL d   1      31.570  15.793 -23.520  0.00  0.00     0.035 A 
ATOM     11  C   UNL d   1      30.899  16.261 -23.660  0.00  0.00     0.007 A 
ATOM     12  C   UNL d   1      31.147  16.967 -24.003  0.00  0.00     0.009 A 
ENDBRANCH   7   8
ENDBRANCH   2   7
TORSDOF 2
ENDMDL
