MODEL 1
REMARK VINA RESULT:      86.5      0.000      0.000
REMARK  6 active torsions:
REMARK  status: ('A' for Active; 'I' for Inactive)
REMARK    1  A    between atoms: C_16  and  N_1 
REMARK    2  A    between atoms: C_11  and  C_2 
REMARK    3  A    between atoms: S_15  and  C_3 
REMARK    4  A    between atoms: C_8  and  C_11 
REMARK    5  A    between atoms: C_13  and  C_17 
REMARK       I    between atoms: N_14  and  C_13 
REMARK    6  A    between atoms: C_17  and  S_15 
ROOT
ATOM      1  N   UNL d   1     -57.814 -98.850 -44.551  0.00  0.00    -0.269 N 
ATOM      2  C   UNL d   1     -58.091 -98.785 -45.333  0.00  0.00     0.172 A 
ATOM      3  C   UNL d   1     -56.993 -98.859 -44.583  0.00  0.00     0.201 A 
ATOM      4  N   UNL d   1     -57.443 -98.755 -45.832  0.00  0.00    -0.128 NA
ATOM      5  N   UNL d   1     -56.761 -98.801 -45.362  0.00  0.00    -0.121 NA
ENDROOT
BRANCH   3   6
ATOM      6  S   UNL d   1     -56.471 -98.918 -43.931  0.00  0.00    -0.043 SA
BRANCH   6   7
ATOM      7  C   UNL d   1     -55.887 -99.512 -43.919  0.00  0.00     0.099 C 
BRANCH   7   8
ATOM      8  C   UNL d   1     -55.833-100.036 -44.548  0.00  0.00     0.271 C 
ATOM      9  N   UNL d   1     -55.465-100.768 -44.447  0.00  0.00    -0.272 N 
ATOM     10  C   UNL d   1     -55.409-101.300 -45.081  0.00  0.00     0.083 A 
ATOM     11  C   UNL d   1     -55.149-100.976 -43.713  0.00  0.00     0.083 A 
ATOM     12  C   UNL d   1     -55.042-102.031 -44.980  0.00  0.00     0.019 A 
ATOM     13  C   UNL d   1     -54.728-102.232 -44.241  0.00  0.00     0.003 A 
ATOM     14  C   UNL d   1     -54.782-101.707 -43.612  0.00  0.00     0.019 A 
ATOM     15  O   UNL d   1     -56.149 -99.834 -45.291  0.00  0.00    -0.266 OA
ENDBRANCH   7   8
ENDBRANCH   6   7
ENDBRANCH   3   6
BRANCH   1  16
ATOM     16  C   UNL d   1     -58.248 -98.899 -43.855  0.00  0.00     0.067 A 
ATOM     17  C   UNL d   1     -57.855 -98.820 -43.123  0.00  0.00     0.018 A 
ATOM     18  C   UNL d   1     -58.286 -98.868 -42.414  0.00  0.00     0.002 A 
ATOM     19  C   UNL d   1     -59.101 -98.994 -42.451  0.00  0.00     0.000 A 
ATOM     20  C   UNL d   1     -59.491 -99.072 -43.163  0.00  0.00     0.002 A 
ATOM     21  C   UNL d   1     -59.060 -99.024 -43.873  0.00  0.00     0.018 A 
ENDBRANCH   1  16
BRANCH   2  22
ATOM     22  C   UNL d   1     -58.911 -98.763 -45.476  0.00  0.00     0.059 C 
BRANCH  22  23
ATOM     23  C   UNL d   1     -59.223 -99.166 -46.132  0.00  0.00     0.094 A 
ATOM     24  C   UNL d   1     -59.438 -99.961 -46.074  0.00  0.00     0.082 A 
ATOM     25  C   UNL d   1     -59.746-100.352 -46.728  0.00  0.00     0.285 A 
ATOM     26  O   UNL d   1     -59.960-101.147 -46.670  0.00  0.00    -0.265 OA
ATOM     27  N   UNL d   1     -59.840 -99.949 -47.441  0.00  0.00    -0.152 NA
ATOM     28  C   UNL d   1     -59.630 -99.167 -47.505  0.00  0.00     0.371 A 
ATOM     29  N   UNL d   1     -59.317 -98.764 -46.845  0.00  0.00    -0.191 NA
ATOM     30  O   UNL d   1     -59.735 -98.777 -48.241  0.00  0.00    -0.242 OA
ENDBRANCH  22  23
ENDBRANCH   2  22
TORSDOF 6
ENDMDL
