MODEL 1
REMARK VINA RESULT:      -7.9      0.000      0.000
REMARK  4 active torsions:
REMARK  status: ('A' for Active; 'I' for Inactive)
REMARK    1  A    between atoms: C_4  and  C_1 
REMARK    2  A    between atoms: C_12  and  N_2 
REMARK    3  A    between atoms: C_11  and  N_5 
REMARK    4  A    between atoms: C_14  and  C_12 
ROOT
ATOM      1  C   UNL d   1     -48.318  12.742  23.127  0.00  0.00     0.149 A 
ATOM      2  N   UNL d   1     -48.978  13.134  22.788  0.00  0.00    -0.289 N 
ATOM      3  N   UNL d   1     -48.593  12.067  23.519  0.00  0.00    -0.227 NA
ATOM      4  C   UNL d   1     -49.655  12.690  22.979  0.00  0.00     0.083 A 
ATOM      5  C   UNL d   1     -49.424  12.034  23.428  0.00  0.00     0.099 A 
ATOM      6  C   UNL d   1     -50.461  12.804  22.797  0.00  0.00     0.019 A 
ATOM      7  C   UNL d   1     -49.982  11.493  23.696  0.00  0.00     0.021 A 
ATOM      8  C   UNL d   1     -51.020  12.255  23.071  0.00  0.00     0.002 A 
ATOM      9  C   UNL d   1     -50.781  11.601  23.519  0.00  0.00     0.002 A 
ENDROOT
BRANCH   1  10
ATOM     10  C   UNL d   1     -47.534  12.992  23.074  0.00  0.00     0.057 A 
ATOM     11  C   UNL d   1     -46.991  12.769  22.501  0.00  0.00     0.081 A 
ATOM     12  N   UNL d   1     -46.275  13.154  22.665  0.00  0.00    -0.298 N 
ATOM     13  C   UNL d   1     -46.380  13.614  23.341  0.00  0.00     0.261 A 
ATOM     14  C   UNL d   1     -47.159  13.515  23.596  0.00  0.00     0.065 A 
ATOM     15  O   UNL d   1     -45.812  14.087  23.698  0.00  0.00    -0.267 OA
BRANCH  12  16
ATOM     16  C   UNL d   1     -45.578  13.087  22.227  0.00  0.00     0.071 C 
ATOM     17  C   UNL d   1     -44.874  12.904  21.853  0.00  0.00     0.023 C 
ATOM     18  C   UNL d   1     -45.109  12.419  22.304  0.00  0.00     0.023 C 
ATOM     19  C   UNL d   1     -45.361  13.696  21.715  0.00  0.00     0.023 C 
ENDBRANCH  12  16
ENDBRANCH   1  10
BRANCH   2  20
ATOM     20  C   UNL d   1     -48.957  13.826  22.351  0.00  0.00     0.082 C 
BRANCH  20  21
ATOM     21  C   UNL d   1     -49.377  14.492  22.606  0.00  0.00     0.018 A 
ATOM     22  C   UNL d   1     -49.997  14.785  22.145  0.00  0.00     0.002 A 
ATOM     23  C   UNL d   1     -50.417  15.446  22.394  0.00  0.00     0.000 A 
ATOM     24  C   UNL d   1     -50.219  15.814  23.103  0.00  0.00     0.000 A 
ATOM     25  C   UNL d   1     -49.598  15.517  23.562  0.00  0.00     0.000 A 
ATOM     26  C   UNL d   1     -49.183  14.861  23.310  0.00  0.00     0.002 A 
ENDBRANCH  20  21
ENDBRANCH   2  20
TORSDOF 4
ENDMDL
MODEL 2
REMARK VINA RESULT:      -7.6      0.912      2.413
REMARK  4 active torsions:
REMARK  status: ('A' for Active; 'I' for Inactive)
REMARK    1  A    between atoms: C_4  and  C_1 
REMARK    2  A    between atoms: C_12  and  N_2 
REMARK    3  A    between atoms: C_11  and  N_5 
REMARK    4  A    between atoms: C_14  and  C_12 
ROOT
ATOM      1  C   UNL d   1     -47.955  14.213  23.039  0.00  0.00     0.149 A 
ATOM      2  N   UNL d   1     -48.702  13.878  23.224  0.00  0.00    -0.289 N 
ATOM      3  N   UNL d   1     -48.059  15.026  22.925  0.00  0.00    -0.227 NA
ATOM      4  C   UNL d   1     -49.259  14.496  23.221  0.00  0.00     0.083 A 
ATOM      5  C   UNL d   1     -48.870  15.203  23.038  0.00  0.00     0.099 A 
ATOM      6  C   UNL d   1     -50.081  14.501  23.364  0.00  0.00     0.019 A 
ATOM      7  C   UNL d   1     -49.285  15.911  22.996  0.00  0.00     0.021 A 
ATOM      8  C   UNL d   1     -50.495  15.218  23.320  0.00  0.00     0.002 A 
ATOM      9  C   UNL d   1     -50.098  15.922  23.137  0.00  0.00     0.002 A 
ENDROOT
BRANCH   1  10
ATOM     10  C   UNL d   1     -47.246  13.798  22.982  0.00  0.00     0.057 A 
ATOM     11  C   UNL d   1     -46.742  13.783  22.334  0.00  0.00     0.081 A 
ATOM     12  N   UNL d   1     -46.098  13.295  22.523  0.00  0.00    -0.298 N 
ATOM     13  C   UNL d   1     -46.207  13.012  23.289  0.00  0.00     0.261 A 
ATOM     14  C   UNL d   1     -46.917  13.321  23.575  0.00  0.00     0.065 A 
ATOM     15  O   UNL d   1     -45.701  12.510  23.696  0.00  0.00    -0.267 OA
BRANCH  12  16
ATOM     16  C   UNL d   1     -45.459  13.125  22.029  0.00  0.00     0.071 C 
ATOM     17  C   UNL d   1     -44.760  13.048  21.611  0.00  0.00     0.023 C 
ATOM     18  C   UNL d   1     -44.747  13.519  22.131  0.00  0.00     0.023 C 
ATOM     19  C   UNL d   1     -45.544  12.559  21.436  0.00  0.00     0.023 C 
ENDBRANCH  12  16
ENDBRANCH   1  10
BRANCH   2  20
ATOM     20  C   UNL d   1     -48.852  13.087  23.379  0.00  0.00     0.082 C 
BRANCH  20  21
ATOM     21  C   UNL d   1     -49.357  12.655  22.884  0.00  0.00     0.018 A 
ATOM     22  C   UNL d   1     -50.003  12.256  23.208  0.00  0.00     0.002 A 
ATOM     23  C   UNL d   1     -50.506  11.826  22.721  0.00  0.00     0.000 A 
ATOM     24  C   UNL d   1     -50.364  11.795  21.910  0.00  0.00     0.000 A 
ATOM     25  C   UNL d   1     -49.715  12.197  21.590  0.00  0.00     0.000 A 
ATOM     26  C   UNL d   1     -49.218  12.622  22.078  0.00  0.00     0.002 A 
ENDBRANCH  20  21
ENDBRANCH   2  20
TORSDOF 4
ENDMDL
MODEL 3
REMARK VINA RESULT:      -7.4      9.049     10.429
REMARK  4 active torsions:
REMARK  status: ('A' for Active; 'I' for Inactive)
REMARK    1  A    between atoms: C_4  and  C_1 
REMARK    2  A    between atoms: C_12  and  N_2 
REMARK    3  A    between atoms: C_11  and  N_5 
REMARK    4  A    between atoms: C_14  and  C_12 
ROOT
ATOM      1  C   UNL d   1     -39.842  15.376  19.041  0.00  0.00     0.149 A 
ATOM      2  N   UNL d   1     -39.504  15.274  18.281  0.00  0.00    -0.289 N 
ATOM      3  N   UNL d   1     -40.623  15.632  18.943  0.00  0.00    -0.227 NA
ATOM      4  C   UNL d   1     -40.087  15.470  17.720  0.00  0.00     0.083 A 
ATOM      5  C   UNL d   1     -40.776  15.691  18.122  0.00  0.00     0.099 A 
ATOM      6  C   UNL d   1     -40.074  15.475  16.887  0.00  0.00     0.019 A 
ATOM      7  C   UNL d   1     -41.450  15.915  17.706  0.00  0.00     0.021 A 
ATOM      8  C   UNL d   1     -40.756  15.702  16.472  0.00  0.00     0.002 A 
ATOM      9  C   UNL d   1     -41.442  15.922  16.881  0.00  0.00     0.002 A 
ENDROOT
BRANCH   1  10
ATOM     10  C   UNL d   1     -39.458  15.243  19.758  0.00  0.00     0.057 A 
ATOM     11  C   UNL d   1     -39.566  14.598  20.255  0.00  0.00     0.081 A 
ATOM     12  N   UNL d   1     -39.066  14.695  20.910  0.00  0.00    -0.298 N 
ATOM     13  C   UNL d   1     -38.652  15.400  20.814  0.00  0.00     0.261 A 
ATOM     14  C   UNL d   1     -38.893  15.742  20.102  0.00  0.00     0.065 A 
ATOM     15  O   UNL d   1     -38.097  15.710  21.334  0.00  0.00    -0.267 OA
BRANCH  12  16
ATOM     16  C   UNL d   1     -38.997  14.174  21.546  0.00  0.00     0.071 C 
ATOM     17  C   UNL d   1     -39.044  13.709  22.218  0.00  0.00     0.023 C 
ATOM     18  C   UNL d   1     -39.578  14.156  22.125  0.00  0.00     0.023 C 
ATOM     19  C   UNL d   1     -38.343  13.674  21.594  0.00  0.00     0.023 C 
ENDBRANCH  12  16
ENDBRANCH   1  10
BRANCH   2  20
ATOM     20  C   UNL d   1     -38.739  15.026  18.121  0.00  0.00     0.082 C 
BRANCH  20  21
ATOM     21  C   UNL d   1     -38.608  14.308  17.730  0.00  0.00     0.018 A 
ATOM     22  C   UNL d   1     -38.137  14.293  17.052  0.00  0.00     0.002 A 
ATOM     23  C   UNL d   1     -38.004  13.582  16.660  0.00  0.00     0.000 A 
ATOM     24  C   UNL d   1     -38.341  12.888  16.946  0.00  0.00     0.000 A 
ATOM     25  C   UNL d   1     -38.812  12.908  17.626  0.00  0.00     0.000 A 
ATOM     26  C   UNL d   1     -38.941  13.616  18.011  0.00  0.00     0.002 A 
ENDBRANCH  20  21
ENDBRANCH   2  20
TORSDOF 4
ENDMDL
MODEL 4
REMARK VINA RESULT:      -6.5      8.045     10.168
REMARK  4 active torsions:
REMARK  status: ('A' for Active; 'I' for Inactive)
REMARK    1  A    between atoms: C_4  and  C_1 
REMARK    2  A    between atoms: C_12  and  N_2 
REMARK    3  A    between atoms: C_11  and  N_5 
REMARK    4  A    between atoms: C_14  and  C_12 
ROOT
ATOM      1  C   UNL d   1     -38.414  14.222  19.896  0.00  0.00     0.149 A 
ATOM      2  N   UNL d   1     -38.799  14.594  20.542  0.00  0.00    -0.289 N 
ATOM      3  N   UNL d   1     -38.037  13.542  20.179  0.00  0.00    -0.227 NA
ATOM      4  C   UNL d   1     -38.652  14.134  21.219  0.00  0.00     0.083 A 
ATOM      5  C   UNL d   1     -38.184  13.486  21.001  0.00  0.00     0.099 A 
ATOM      6  C   UNL d   1     -38.887  14.224  22.013  0.00  0.00     0.019 A 
ATOM      7  C   UNL d   1     -37.950  12.931  21.561  0.00  0.00     0.021 A 
ATOM      8  C   UNL d   1     -38.649  13.662  22.574  0.00  0.00     0.002 A 
ATOM      9  C   UNL d   1     -38.181  13.017  22.349  0.00  0.00     0.002 A 
ENDROOT
BRANCH   1  10
ATOM     10  C   UNL d   1     -38.416  14.493  19.118  0.00  0.00     0.057 A 
ATOM     11  C   UNL d   1     -38.694  14.084  18.462  0.00  0.00     0.081 A 
ATOM     12  N   UNL d   1     -38.586  14.568  17.797  0.00  0.00    -0.298 N 
ATOM     13  C   UNL d   1     -38.241  15.273  18.045  0.00  0.00     0.261 A 
ATOM     14  C   UNL d   1     -38.135  15.229  18.863  0.00  0.00     0.065 A 
ATOM     15  O   UNL d   1     -38.038  15.908  17.566  0.00  0.00    -0.267 OA
BRANCH  12  16
ATOM     16  C   UNL d   1     -38.790  14.374  17.020  0.00  0.00     0.071 C 
ATOM     17  C   UNL d   1     -38.885  14.103  16.255  0.00  0.00     0.023 C 
ATOM     18  C   UNL d   1     -38.334  13.837  16.600  0.00  0.00     0.023 C 
ATOM     19  C   UNL d   1     -39.451  14.724  16.674  0.00  0.00     0.023 C 
ENDBRANCH  12  16
ENDBRANCH   1  10
BRANCH   2  20
ATOM     20  C   UNL d   1     -39.239  15.285  20.510  0.00  0.00     0.082 C 
BRANCH  20  21
ATOM     21  C   UNL d   1     -40.059  15.261  20.618  0.00  0.00     0.018 A 
ATOM     22  C   UNL d   1     -40.448  15.917  20.935  0.00  0.00     0.002 A 
ATOM     23  C   UNL d   1     -41.263  15.898  21.044  0.00  0.00     0.000 A 
ATOM     24  C   UNL d   1     -41.689  15.224  20.836  0.00  0.00     0.000 A 
ATOM     25  C   UNL d   1     -41.294  14.569  20.519  0.00  0.00     0.000 A 
ATOM     26  C   UNL d   1     -40.485  14.593  20.413  0.00  0.00     0.002 A 
ENDBRANCH  20  21
ENDBRANCH   2  20
TORSDOF 4
ENDMDL
MODEL 5
REMARK VINA RESULT:      -5.8      1.647      3.921
REMARK  4 active torsions:
REMARK  status: ('A' for Active; 'I' for Inactive)
REMARK    1  A    between atoms: C_4  and  C_1 
REMARK    2  A    between atoms: C_12  and  N_2 
REMARK    3  A    between atoms: C_11  and  N_5 
REMARK    4  A    between atoms: C_14  and  C_12 
ROOT
ATOM      1  C   UNL d   1     -48.372  11.990  23.246  0.00  0.00     0.149 A 
ATOM      2  N   UNL d   1     -47.653  12.389  23.410  0.00  0.00    -0.289 N 
ATOM      3  N   UNL d   1     -48.217  11.178  23.225  0.00  0.00    -0.227 NA
ATOM      4  C   UNL d   1     -47.059  11.811  23.488  0.00  0.00     0.083 A 
ATOM      5  C   UNL d   1     -47.400  11.065  23.375  0.00  0.00     0.099 A 
ATOM      6  C   UNL d   1     -46.244  11.872  23.649  0.00  0.00     0.019 A 
ATOM      7  C   UNL d   1     -46.942  10.384  23.420  0.00  0.00     0.021 A 
ATOM      8  C   UNL d   1     -45.786  11.182  23.693  0.00  0.00     0.002 A 
ATOM      9  C   UNL d   1     -46.134  10.440  23.580  0.00  0.00     0.002 A 
ENDROOT
BRANCH   1  10
ATOM     10  C   UNL d   1     -49.103  12.351  23.128  0.00  0.00     0.057 A 
ATOM     11  C   UNL d   1     -49.354  12.729  22.443  0.00  0.00     0.081 A 
ATOM     12  N   UNL d   1     -50.124  13.008  22.573  0.00  0.00    -0.298 N 
ATOM     13  C   UNL d   1     -50.345  12.802  23.340  0.00  0.00     0.261 A 
ATOM     14  C   UNL d   1     -49.715  12.395  23.685  0.00  0.00     0.065 A 
ATOM     15  O   UNL d   1     -51.064  12.971  23.698  0.00  0.00    -0.267 OA
BRANCH  12  16
ATOM     16  C   UNL d   1     -50.587  13.422  22.029  0.00  0.00     0.071 C 
ATOM     17  C   UNL d   1     -51.050  13.927  21.582  0.00  0.00     0.023 C 
ATOM     18  C   UNL d   1     -50.873  14.167  22.218  0.00  0.00     0.023 C 
ATOM     19  C   UNL d   1     -50.757  13.080  21.298  0.00  0.00     0.023 C 
ENDBRANCH  12  16
ENDBRANCH   1  10
BRANCH   2  20
ATOM     20  C   UNL d   1     -47.554  13.200  23.480  0.00  0.00     0.082 C 
BRANCH  20  21
ATOM     21  C   UNL d   1     -46.977  13.589  23.031  0.00  0.00     0.018 A 
ATOM     22  C   UNL d   1     -46.393  14.031  23.413  0.00  0.00     0.002 A 
ATOM     23  C   UNL d   1     -45.818  14.419  22.973  0.00  0.00     0.000 A 
ATOM     24  C   UNL d   1     -45.826  14.366  22.151  0.00  0.00     0.000 A 
ATOM     25  C   UNL d   1     -46.413  13.922  21.773  0.00  0.00     0.000 A 
ATOM     26  C   UNL d   1     -46.982  13.538  22.215  0.00  0.00     0.002 A 
ENDBRANCH  20  21
ENDBRANCH   2  20
TORSDOF 4
ENDMDL
