MODEL 1
REMARK VINA RESULT:      -3.2      0.000      0.000
REMARK  3 active torsions:
REMARK  status: ('A' for Active; 'I' for Inactive)
REMARK    1  A    between atoms: N_12  and  C_6 
REMARK    2  A    between atoms: C_18  and  N_12 
REMARK    3  A    between atoms: C_19  and  C_18 
ROOT
ATOM      1  N   UNL d   1      58.661  -9.814  31.158  0.00  0.00    -0.175 N 
ATOM      2  C   UNL d   1      59.443  -9.814  31.013  0.00  0.00     0.167 A 
ATOM      3  N   UNL d   1      58.130  -9.815  30.527  0.00  0.00    -0.142 NA
ATOM      4  C   UNL d   1      58.386  -9.813  31.903  0.00  0.00     0.283 A 
ATOM      5  N   UNL d   1      59.968  -9.812  31.609  0.00  0.00    -0.227 NA
ATOM      6  C   UNL d   1      58.399  -9.817  29.747  0.00  0.00     0.182 A 
ATOM      7  C   UNL d   1      58.917  -9.812  32.535  0.00  0.00     0.076 A 
ATOM      8  C   UNL d   1      59.712  -9.815  30.233  0.00  0.00     0.039 A 
ATOM      9  C   UNL d   1      59.699  -9.811  32.389  0.00  0.00     0.088 A 
ATOM     10  C   UNL d   1      59.181  -9.816  29.602  0.00  0.00     0.041 A 
ATOM     11  O   UNL d   1      57.568  -9.813  32.055  0.00  0.00    -0.265 OA
ATOM     12  C   UNL d   1      58.648  -9.811  33.315  0.00  0.00     0.006 A 
ATOM     13  C   UNL d   1      60.529  -9.815  30.081  0.00  0.00     0.003 A 
ATOM     14  C   UNL d   1      59.449  -9.817  28.822  0.00  0.00     0.003 A 
ATOM     15  C   UNL d   1      60.230  -9.810  33.021  0.00  0.00     0.019 A 
ATOM     16  C   UNL d   1      59.203  -9.809  33.941  0.00  0.00     0.000 A 
ATOM     17  C   UNL d   1      60.798  -9.816  29.301  0.00  0.00     0.000 A 
ATOM     18  C   UNL d   1      60.266  -9.817  28.670  0.00  0.00     0.000 A 
ATOM     19  C   UNL d   1      59.938  -9.809  33.805  0.00  0.00     0.002 A 
ENDROOT
BRANCH   6  20
ATOM     20  N   UNL d   1      57.890  -9.818  29.075  0.00  0.00    -0.220 NA
BRANCH  20  21
ATOM     21  C   UNL d   1      57.069  -9.779  29.172  0.00  0.00     0.146 C 
BRANCH  21  22
ATOM     22  C   UNL d   1      56.567  -9.804  28.536  0.00  0.00     0.255 C 
ATOM     23  O   UNL d   1      55.748  -9.679  28.662  0.00  0.00    -0.281 OA
ENDBRANCH  21  22
ENDBRANCH  20  21
ENDBRANCH   6  20
TORSDOF 3
ENDMDL
MODEL 2
REMARK VINA RESULT:      -2.8      8.466      8.854
REMARK  3 active torsions:
REMARK  status: ('A' for Active; 'I' for Inactive)
REMARK    1  A    between atoms: N_12  and  C_6 
REMARK    2  A    between atoms: C_18  and  N_12 
REMARK    3  A    between atoms: C_19  and  C_18 
ROOT
ATOM      1  N   UNL d   1      59.159  -1.909  29.244  0.00  0.00    -0.175 N 
ATOM      2  C   UNL d   1      59.913  -1.689  29.127  0.00  0.00     0.167 A 
ATOM      3  N   UNL d   1      58.601  -1.346  29.476  0.00  0.00    -0.142 NA
ATOM      4  C   UNL d   1      58.934  -2.664  29.142  0.00  0.00     0.283 A 
ATOM      5  N   UNL d   1      60.462  -2.218  28.904  0.00  0.00    -0.227 NA
ATOM      6  C   UNL d   1      58.817  -0.558  29.586  0.00  0.00     0.182 A 
ATOM      7  C   UNL d   1      59.492  -3.227  28.911  0.00  0.00     0.076 A 
ATOM      8  C   UNL d   1      60.129  -0.900  29.238  0.00  0.00     0.039 A 
ATOM      9  C   UNL d   1      60.246  -3.007  28.793  0.00  0.00     0.088 A 
ATOM     10  C   UNL d   1      59.572  -0.337  29.469  0.00  0.00     0.041 A 
ATOM     11  O   UNL d   1      58.145  -2.895  29.265  0.00  0.00    -0.265 OA
ATOM     12  C   UNL d   1      59.276  -4.016  28.800  0.00  0.00     0.006 A 
ATOM     13  C   UNL d   1      60.918  -0.669  29.115  0.00  0.00     0.003 A 
ATOM     14  C   UNL d   1      59.787   0.452  29.579  0.00  0.00     0.003 A 
ATOM     15  C   UNL d   1      60.804  -3.570  28.562  0.00  0.00     0.019 A 
ATOM     16  C   UNL d   1      59.856  -4.572  28.566  0.00  0.00     0.000 A 
ATOM     17  C   UNL d   1      61.133   0.119  29.225  0.00  0.00     0.000 A 
ATOM     18  C   UNL d   1      60.576   0.682  29.456  0.00  0.00     0.000 A 
ATOM     19  C   UNL d   1      60.565  -4.365  28.455  0.00  0.00     0.002 A 
ENDROOT
BRANCH   6  20
ATOM     20  N   UNL d   1      58.280   0.048  29.822  0.00  0.00    -0.220 NA
BRANCH  20  21
ATOM     21  C   UNL d   1      57.667  -0.121  30.352  0.00  0.00     0.146 C 
BRANCH  21  22
ATOM     22  C   UNL d   1      57.274   0.470  30.744  0.00  0.00     0.255 C 
ATOM     23  O   UNL d   1      56.751   0.264  31.366  0.00  0.00    -0.281 OA
ENDBRANCH  21  22
ENDBRANCH  20  21
ENDBRANCH   6  20
TORSDOF 3
ENDMDL
MODEL 3
REMARK VINA RESULT:      -2.2      1.617      2.539
REMARK  3 active torsions:
REMARK  status: ('A' for Active; 'I' for Inactive)
REMARK    1  A    between atoms: N_12  and  C_6 
REMARK    2  A    between atoms: C_18  and  N_12 
REMARK    3  A    between atoms: C_19  and  C_18 
ROOT
ATOM      1  N   UNL d   1      59.308  -9.262  33.551  0.00  0.00    -0.175 N 
ATOM      2  C   UNL d   1      60.056  -9.257  33.281  0.00  0.00     0.167 A 
ATOM      3  N   UNL d   1      58.691  -9.447  33.036  0.00  0.00    -0.142 NA
ATOM      4  C   UNL d   1      59.149  -9.093  34.310  0.00  0.00     0.283 A 
ATOM      5  N   UNL d   1      60.662  -9.083  33.763  0.00  0.00    -0.227 NA
ATOM      6  C   UNL d   1      58.839  -9.625  32.244  0.00  0.00     0.182 A 
ATOM      7  C   UNL d   1      59.767  -8.909  34.826  0.00  0.00     0.076 A 
ATOM      8  C   UNL d   1      60.204  -9.436  32.489  0.00  0.00     0.039 A 
ATOM      9  C   UNL d   1      60.514  -8.904  34.555  0.00  0.00     0.088 A 
ATOM     10  C   UNL d   1      59.586  -9.620  31.974  0.00  0.00     0.041 A 
ATOM     11  O   UNL d   1      58.366  -9.098  34.593  0.00  0.00    -0.265 OA
ATOM     12  C   UNL d   1      59.619  -8.730  35.618  0.00  0.00     0.006 A 
ATOM     13  C   UNL d   1      60.985  -9.431  32.206  0.00  0.00     0.003 A 
ATOM     14  C   UNL d   1      59.734  -9.799  31.182  0.00  0.00     0.003 A 
ATOM     15  C   UNL d   1      61.132  -8.720  35.071  0.00  0.00     0.019 A 
ATOM     16  C   UNL d   1      60.259  -8.546  36.124  0.00  0.00     0.000 A 
ATOM     17  C   UNL d   1      61.133  -9.610  31.415  0.00  0.00     0.000 A 
ATOM     18  C   UNL d   1      60.516  -9.794  30.900  0.00  0.00     0.000 A 
ATOM     19  C   UNL d   1      60.962  -8.541  35.870  0.00  0.00     0.002 A 
ENDROOT
BRANCH   6  20
ATOM     20  N   UNL d   1      58.237  -9.818  31.686  0.00  0.00    -0.220 NA
BRANCH  20  21
ATOM     21  C   UNL d   1      57.455  -9.579  31.815  0.00  0.00     0.146 C 
BRANCH  21  22
ATOM     22  C   UNL d   1      56.870  -9.744  31.279  0.00  0.00     0.255 C 
ATOM     23  O   UNL d   1      56.076  -9.776  31.545  0.00  0.00    -0.281 OA
ENDBRANCH  21  22
ENDBRANCH  20  21
ENDBRANCH   6  20
TORSDOF 3
ENDMDL
MODEL 4
REMARK VINA RESULT:      -0.6     10.456     10.700
REMARK  3 active torsions:
REMARK  status: ('A' for Active; 'I' for Inactive)
REMARK    1  A    between atoms: N_12  and  C_6 
REMARK    2  A    between atoms: C_18  and  N_12 
REMARK    3  A    between atoms: C_19  and  C_18 
ROOT
ATOM      1  N   UNL d   1      58.273   0.641  31.435  0.00  0.00    -0.175 N 
ATOM      2  C   UNL d   1      57.626   0.644  30.974  0.00  0.00     0.167 A 
ATOM      3  N   UNL d   1      59.021   0.647  31.087  0.00  0.00    -0.142 NA
ATOM      4  C   UNL d   1      58.208   0.632  32.227  0.00  0.00     0.283 A 
ATOM      5  N   UNL d   1      56.898   0.638  31.292  0.00  0.00    -0.227 NA
ATOM      6  C   UNL d   1      59.106   0.656  30.267  0.00  0.00     0.182 A 
ATOM      7  C   UNL d   1      57.459   0.627  32.575  0.00  0.00     0.076 A 
ATOM      8  C   UNL d   1      57.711   0.652  30.153  0.00  0.00     0.039 A 
ATOM      9  C   UNL d   1      56.812   0.629  32.113  0.00  0.00     0.088 A 
ATOM     10  C   UNL d   1      58.459   0.658  29.806  0.00  0.00     0.041 A 
ATOM     11  O   UNL d   1      58.885   0.630  32.710  0.00  0.00    -0.265 OA
ATOM     12  C   UNL d   1      57.374   0.618  33.396  0.00  0.00     0.006 A 
ATOM     13  C   UNL d   1      57.035   0.655  29.670  0.00  0.00     0.003 A 
ATOM     14  C   UNL d   1      58.545   0.667  28.985  0.00  0.00     0.003 A 
ATOM     15  C   UNL d   1      56.064   0.623  32.461  0.00  0.00     0.019 A 
ATOM     16  C   UNL d   1      56.606   0.612  33.729  0.00  0.00     0.000 A 
ATOM     17  C   UNL d   1      57.120   0.664  28.850  0.00  0.00     0.000 A 
ATOM     18  C   UNL d   1      57.868   0.670  28.502  0.00  0.00     0.000 A 
ATOM     19  C   UNL d   1      55.998   0.614  33.295  0.00  0.00     0.002 A 
ENDROOT
BRANCH   6  20
ATOM     20  N   UNL d   1      59.851   0.662  29.873  0.00  0.00    -0.220 NA
BRANCH  20  21
ATOM     21  C   UNL d   1      60.476   0.198  30.153  0.00  0.00     0.146 C 
BRANCH  21  22
ATOM     22  C   UNL d   1      61.069  -0.054  29.660  0.00  0.00     0.255 C 
ATOM     23  O   UNL d   1      61.047  -0.840  29.369  0.00  0.00    -0.281 OA
ENDBRANCH  21  22
ENDBRANCH  20  21
ENDBRANCH   6  20
TORSDOF 3
ENDMDL
