MODEL 1
REMARK VINA RESULT:      43.7      0.000      0.000
REMARK  3 active torsions:
REMARK  status: ('A' for Active; 'I' for Inactive)
REMARK    1  A    between atoms: C_5  and  N_1 
REMARK    2  A    between atoms: C_11  and  C_3 
REMARK    3  A    between atoms: C_7  and  C_5 
ROOT
ATOM      1  N   UNL d   1     -55.707 -99.495 -44.395  0.00  0.00    -0.286 N 
ATOM      2  N   UNL d   1     -54.711 -99.954 -43.607  0.00  0.00    -0.224 NA
ATOM      3  C   UNL d   1     -55.140 -99.274 -43.833  0.00  0.00     0.191 A 
ATOM      4  C   UNL d   1     -55.636-100.317 -44.525  0.00  0.00     0.083 A 
ATOM      5  C   UNL d   1     -55.024-100.594 -44.039  0.00  0.00     0.099 A 
ATOM      6  C   UNL d   1     -56.045-100.852 -45.019  0.00  0.00     0.019 A 
ATOM      7  C   UNL d   1     -54.816-101.405 -44.043  0.00  0.00     0.021 A 
ATOM      8  C   UNL d   1     -55.842-101.651 -45.024  0.00  0.00     0.002 A 
ATOM      9  C   UNL d   1     -55.229-101.927 -44.537  0.00  0.00     0.002 A 
ENDROOT
BRANCH   1  10
ATOM     10  C   UNL d   1     -56.175 -98.875 -44.672  0.00  0.00     0.082 C 
BRANCH  10  11
ATOM     11  C   UNL d   1     -56.971 -98.844 -44.480  0.00  0.00     0.018 A 
ATOM     12  C   UNL d   1     -57.535 -98.789 -45.070  0.00  0.00     0.001 A 
ATOM     13  C   UNL d   1     -58.334 -98.757 -44.879  0.00  0.00     0.000 A 
ATOM     14  C   UNL d   1     -57.294 -98.765 -45.859  0.00  0.00     0.000 C 
ATOM     15  C   UNL d   1     -58.571 -98.781 -44.089  0.00  0.00     0.000 A 
ATOM     16  C   UNL d   1     -58.003 -98.837 -43.493  0.00  0.00     0.000 A 
ATOM     17  C   UNL d   1     -57.205 -98.868 -43.689  0.00  0.00     0.002 A 
ATOM     18  C   UNL d   1     -58.237 -98.861 -42.701  0.00  0.00     0.000 C 
ENDBRANCH  10  11
ENDBRANCH   1  10
BRANCH   3  19
ATOM     19  C   UNL d   1     -54.735 -98.755 -43.346  0.00  0.00     0.271 C 
ATOM     20  O   UNL d   1     -54.791 -98.826 -42.526  0.00  0.00    -0.280 OA
ENDBRANCH   3  19
TORSDOF 3
ENDMDL
