MODEL 1
REMARK VINA RESULT:      -1.6      0.000      0.000
REMARK  4 active torsions:
REMARK  status: ('A' for Active; 'I' for Inactive)
REMARK    1  A    between atoms: C_5  and  C_1 
REMARK    2  A    between atoms: C_2  and  C_5 
REMARK    3  A    between atoms: C_12  and  N_3 
REMARK    4  A    between atoms: C_13  and  N_4 
ROOT
ATOM      1  C   UNL d   1      31.987  17.286 -24.013  0.00  0.00     0.133 C 
ATOM      2 CL   UNL d   1      31.607  17.965 -24.315  0.00  0.00    -0.076 Cl
ENDROOT
BRANCH   1   3
ATOM      3  C   UNL d   1      32.431  17.321 -23.319  0.00  0.00     0.202 A 
ATOM      4  N   UNL d   1      32.852  17.989 -23.146  0.00  0.00    -0.191 N 
ATOM      5  N   UNL d   1      33.237  17.873 -22.430  0.00  0.00    -0.039 NA
ATOM      6  N   UNL d   1      33.053  17.130 -22.161  0.00  0.00    -0.022 NA
ATOM      7  N   UNL d   1      32.551  16.784 -22.711  0.00  0.00    -0.107 NA
BRANCH   4   8
ATOM      8  C   UNL d   1      32.890  18.665 -23.603  0.00  0.00     0.086 A 
ATOM      9  C   UNL d   1      32.622  19.384 -23.301  0.00  0.00     0.019 A 
ATOM     10  C   UNL d   1      32.662  20.066 -23.764  0.00  0.00     0.002 A 
ATOM     11  C   UNL d   1      32.968  20.026 -24.526  0.00  0.00     0.000 A 
ATOM     12  C   UNL d   1      33.238  19.306 -24.834  0.00  0.00     0.002 A 
ATOM     13  C   UNL d   1      33.011  20.718 -25.003  0.00  0.00     0.000 C 
ATOM     14  C   UNL d   1      33.197  18.629 -24.369  0.00  0.00     0.019 A 
ENDBRANCH   4   8
ENDBRANCH   1   3
BRANCH   1  15
ATOM     15  C   UNL d   1      31.918  16.563 -24.417  0.00  0.00     0.202 A 
ATOM     16  N   UNL d   1      31.225  16.149 -24.549  0.00  0.00    -0.191 N 
ATOM     17  N   UNL d   1      31.414  15.470 -24.968  0.00  0.00    -0.039 NA
ATOM     18  N   UNL d   1      32.224  15.471 -25.092  0.00  0.00    -0.022 NA
ATOM     19  N   UNL d   1      32.535  16.135 -24.758  0.00  0.00    -0.107 NA
BRANCH  16  20
ATOM     20  C   UNL d   1      30.457  16.345 -24.318  0.00  0.00     0.086 A 
ATOM     21  C   UNL d   1      30.044  16.951 -24.706  0.00  0.00     0.019 A 
ATOM     22  C   UNL d   1      29.275  17.147 -24.475  0.00  0.00     0.002 A 
ATOM     23  C   UNL d   1      28.919  16.738 -23.855  0.00  0.00     0.000 A 
ATOM     24  C   UNL d   1      29.320  16.140 -23.469  0.00  0.00     0.002 A 
ATOM     25  C   UNL d   1      28.138  16.931 -23.614  0.00  0.00     0.000 C 
ATOM     26  C   UNL d   1      30.089  15.944 -23.700  0.00  0.00     0.019 A 
ENDBRANCH  16  20
ENDBRANCH   1  15
TORSDOF 4
ENDMDL
MODEL 2
REMARK VINA RESULT:      -1.2      1.210      1.930
REMARK  4 active torsions:
REMARK  status: ('A' for Active; 'I' for Inactive)
REMARK    1  A    between atoms: C_5  and  C_1 
REMARK    2  A    between atoms: C_2  and  C_5 
REMARK    3  A    between atoms: C_12  and  N_3 
REMARK    4  A    between atoms: C_13  and  N_4 
ROOT
ATOM      1  C   UNL d   1      31.258  16.954 -23.592  0.00  0.00     0.133 C 
ATOM      2 CL   UNL d   1      31.176  17.780 -23.500  0.00  0.00    -0.076 Cl
ENDROOT
BRANCH   1   3
ATOM      3  C   UNL d   1      31.911  16.633 -23.977  0.00  0.00     0.202 A 
ATOM      4  N   UNL d   1      32.614  17.031 -23.974  0.00  0.00    -0.191 N 
ATOM      5  N   UNL d   1      33.164  16.588 -24.395  0.00  0.00    -0.039 NA
ATOM      6  N   UNL d   1      32.798  15.914 -24.658  0.00  0.00    -0.022 NA
ATOM      7  N   UNL d   1      32.019  15.939 -24.400  0.00  0.00    -0.107 NA
BRANCH   4   8
ATOM      8  C   UNL d   1      32.757  17.751 -23.615  0.00  0.00     0.086 A 
ATOM      9  C   UNL d   1      32.568  18.453 -24.004  0.00  0.00     0.019 A 
ATOM     10  C   UNL d   1      32.713  19.179 -23.640  0.00  0.00     0.002 A 
ATOM     11  C   UNL d   1      33.047  19.200 -22.888  0.00  0.00     0.000 A 
ATOM     12  C   UNL d   1      33.238  18.498 -22.493  0.00  0.00     0.002 A 
ATOM     13  C   UNL d   1      33.197  19.937 -22.512  0.00  0.00     0.000 C 
ATOM     14  C   UNL d   1      33.092  17.776 -22.860  0.00  0.00     0.019 A 
ENDBRANCH   4   8
ENDBRANCH   1   3
BRANCH   1  15
ATOM     15  C   UNL d   1      30.671  16.449 -23.292  0.00  0.00     0.202 A 
ATOM     16  N   UNL d   1      29.864  16.526 -23.403  0.00  0.00    -0.191 N 
ATOM     17  N   UNL d   1      29.495  15.908 -23.010  0.00  0.00    -0.039 NA
ATOM     18  N   UNL d   1      30.079  15.453 -22.659  0.00  0.00    -0.022 NA
ATOM     19  N   UNL d   1      30.796  15.778 -22.828  0.00  0.00    -0.107 NA
BRANCH  16  20
ATOM     20  C   UNL d   1      29.457  17.107 -23.827  0.00  0.00     0.086 A 
ATOM     21  C   UNL d   1      29.422  17.075 -24.655  0.00  0.00     0.019 A 
ATOM     22  C   UNL d   1      29.015  17.656 -25.079  0.00  0.00     0.002 A 
ATOM     23  C   UNL d   1      28.643  18.269 -24.674  0.00  0.00     0.000 A 
ATOM     24  C   UNL d   1      28.673  18.306 -23.859  0.00  0.00     0.002 A 
ATOM     25  C   UNL d   1      28.226  18.864 -25.097  0.00  0.00     0.000 C 
ATOM     26  C   UNL d   1      29.081  17.726 -23.435  0.00  0.00     0.019 A 
ENDBRANCH  16  20
ENDBRANCH   1  15
TORSDOF 4
ENDMDL
MODEL 3
REMARK VINA RESULT:      -1.1      1.255      1.935
REMARK  4 active torsions:
REMARK  status: ('A' for Active; 'I' for Inactive)
REMARK    1  A    between atoms: C_5  and  C_1 
REMARK    2  A    between atoms: C_2  and  C_5 
REMARK    3  A    between atoms: C_12  and  N_3 
REMARK    4  A    between atoms: C_13  and  N_4 
ROOT
ATOM      1  C   UNL d   1      32.267  17.623 -23.411  0.00  0.00     0.133 C 
ATOM      2 CL   UNL d   1      31.752  17.967 -22.852  0.00  0.00    -0.076 Cl
ENDROOT
BRANCH   1   3
ATOM      3  C   UNL d   1      32.626  18.080 -23.995  0.00  0.00     0.202 A 
ATOM      4  N   UNL d   1      32.917  18.810 -23.810  0.00  0.00    -0.191 N 
ATOM      5  N   UNL d   1      33.241  19.140 -24.490  0.00  0.00    -0.039 NA
ATOM      6  N   UNL d   1      33.149  18.608 -25.097  0.00  0.00    -0.022 NA
ATOM      7  N   UNL d   1      32.767  17.949 -24.792  0.00  0.00    -0.107 NA
BRANCH   4   8
ATOM      8  C   UNL d   1      32.894  19.165 -23.074  0.00  0.00     0.086 A 
ATOM      9  C   UNL d   1      33.239  18.792 -22.424  0.00  0.00     0.019 A 
ATOM     10  C   UNL d   1      33.215  19.151 -21.682  0.00  0.00     0.002 A 
ATOM     11  C   UNL d   1      32.847  19.882 -21.593  0.00  0.00     0.000 A 
ATOM     12  C   UNL d   1      32.500  20.260 -22.242  0.00  0.00     0.002 A 
ATOM     13  C   UNL d   1      32.820  20.253 -20.838  0.00  0.00     0.000 C 
ATOM     14  C   UNL d   1      32.525  19.898 -22.981  0.00  0.00     0.019 A 
ENDBRANCH   4   8
ENDBRANCH   1   3
BRANCH   1  15
ATOM     15  C   UNL d   1      32.421  16.807 -23.378  0.00  0.00     0.202 A 
ATOM     16  N   UNL d   1      31.887  16.209 -23.539  0.00  0.00    -0.191 N 
ATOM     17  N   UNL d   1      32.273  15.493 -23.438  0.00  0.00    -0.039 NA
ATOM     18  N   UNL d   1      33.045  15.655 -23.215  0.00  0.00    -0.022 NA
ATOM     19  N   UNL d   1      33.139  16.455 -23.177  0.00  0.00    -0.107 NA
BRANCH  16  20
ATOM     20  C   UNL d   1      31.095  16.274 -23.766  0.00  0.00     0.086 A 
ATOM     21  C   UNL d   1      30.501  16.370 -23.193  0.00  0.00     0.019 A 
ATOM     22  C   UNL d   1      29.710  16.435 -23.419  0.00  0.00     0.002 A 
ATOM     23  C   UNL d   1      29.510  16.403 -24.218  0.00  0.00     0.000 A 
ATOM     24  C   UNL d   1      30.089  16.308 -24.786  0.00  0.00     0.002 A 
ATOM     25  C   UNL d   1      28.708  16.468 -24.456  0.00  0.00     0.000 C 
ATOM     26  C   UNL d   1      30.881  16.243 -24.560  0.00  0.00     0.019 A 
ENDBRANCH  16  20
ENDBRANCH   1  15
TORSDOF 4
ENDMDL
