MODEL 1
REMARK VINA RESULT:      -8.3      0.000      0.000
REMARK  4 active torsions:
REMARK  status: ('A' for Active; 'I' for Inactive)
REMARK    1  A    between atoms: C_11  and  C_3 
REMARK    2  A    between atoms: N_10  and  C_4 
REMARK    3  A    between atoms: C_12  and  N_10 
REMARK    4  A    between atoms: C_13  and  C_12 
ROOT
ATOM      1  C   UNL d   1     -47.743  13.090  23.036  0.00  0.00     0.167 A 
ATOM      2  N   UNL d   1     -46.950  12.866  23.071  0.00  0.00    -0.195 N 
ATOM      3  C   UNL d   1     -47.774  13.867  22.782  0.00  0.00     0.057 A 
ATOM      4  C   UNL d   1     -46.747  12.107  23.311  0.00  0.00     0.167 A 
ATOM      5  N   UNL d   1     -46.499  13.508  22.837  0.00  0.00    -0.161 NA
ATOM      6  N   UNL d   1     -48.331  12.554  23.243  0.00  0.00    -0.227 NA
ATOM      7  C   UNL d   1     -47.341  11.568  23.519  0.00  0.00     0.058 A 
ATOM      8  C   UNL d   1     -46.998  14.121  22.659  0.00  0.00     0.124 A 
ATOM      9  C   UNL d   1     -48.125  11.789  23.485  0.00  0.00     0.086 A 
ATOM     10  C   UNL d   1     -48.700  11.235  23.696  0.00  0.00     0.021 C 
ENDROOT
BRANCH   4  11
ATOM     11  N   UNL d   1     -45.954  11.883  23.345  0.00  0.00    -0.225 NA
BRANCH  11  12
ATOM     12  C   UNL d   1     -45.752  11.087  23.368  0.00  0.00     0.101 C 
BRANCH  12  13
ATOM     13  C   UNL d   1     -44.951  10.859  23.357  0.00  0.00     0.019 A 
ATOM     14  C   UNL d   1     -44.717  10.142  23.698  0.00  0.00     0.002 A 
ATOM     15  C   UNL d   1     -43.929   9.918  23.687  0.00  0.00     0.000 A 
ATOM     16  C   UNL d   1     -43.361  10.409  23.336  0.00  0.00     0.000 A 
ATOM     17  C   UNL d   1     -43.596  11.123  22.997  0.00  0.00     0.000 A 
ATOM     18  C   UNL d   1     -44.393  11.349  23.008  0.00  0.00     0.002 A 
ENDBRANCH  12  13
ENDBRANCH  11  12
ENDBRANCH   4  11
BRANCH   3  19
ATOM     19  C   UNL d   1     -48.499  14.253  22.690  0.00  0.00     0.004 A 
ATOM     20  C   UNL d   1     -48.906  14.184  21.973  0.00  0.00     0.000 A 
ATOM     21  C   UNL d   1     -49.627  14.565  21.875  0.00  0.00     0.000 A 
ATOM     22  C   UNL d   1     -49.948  15.018  22.495  0.00  0.00     0.000 A 
ATOM     23  C   UNL d   1     -49.535  15.081  23.205  0.00  0.00     0.000 A 
ATOM     24  C   UNL d   1     -48.810  14.697  23.301  0.00  0.00     0.000 A 
ENDBRANCH   3  19
TORSDOF 4
ENDMDL
MODEL 2
REMARK VINA RESULT:      -7.9      1.114      1.804
REMARK  4 active torsions:
REMARK  status: ('A' for Active; 'I' for Inactive)
REMARK    1  A    between atoms: C_11  and  C_3 
REMARK    2  A    between atoms: N_10  and  C_4 
REMARK    3  A    between atoms: C_12  and  N_10 
REMARK    4  A    between atoms: C_13  and  C_12 
ROOT
ATOM      1  C   UNL d   1     -48.183  12.591  23.064  0.00  0.00     0.167 A 
ATOM      2  N   UNL d   1     -47.598  12.044  23.259  0.00  0.00    -0.195 N 
ATOM      3  C   UNL d   1     -48.902  12.201  23.071  0.00  0.00     0.057 A 
ATOM      4  C   UNL d   1     -46.810  12.279  23.296  0.00  0.00     0.167 A 
ATOM      5  N   UNL d   1     -47.962  11.322  23.384  0.00  0.00    -0.161 NA
ATOM      6  N   UNL d   1     -47.980  13.373  22.907  0.00  0.00    -0.227 NA
ATOM      7  C   UNL d   1     -46.608  13.067  23.137  0.00  0.00     0.058 A 
ATOM      8  C   UNL d   1     -48.758  11.414  23.271  0.00  0.00     0.124 A 
ATOM      9  C   UNL d   1     -47.187  13.608  22.944  0.00  0.00     0.086 A 
ATOM     10  C   UNL d   1     -46.962  14.387  22.790  0.00  0.00     0.021 C 
ENDROOT
BRANCH   4  11
ATOM     11  N   UNL d   1     -46.225  11.733  23.490  0.00  0.00    -0.225 NA
BRANCH  11  12
ATOM     12  C   UNL d   1     -45.513  11.729  23.080  0.00  0.00     0.101 C 
BRANCH  12  13
ATOM     13  C   UNL d   1     -44.948  11.136  23.231  0.00  0.00     0.019 A 
ATOM     14  C   UNL d   1     -44.147  11.271  23.063  0.00  0.00     0.002 A 
ATOM     15  C   UNL d   1     -43.592  10.687  23.212  0.00  0.00     0.000 A 
ATOM     16  C   UNL d   1     -43.826   9.959  23.530  0.00  0.00     0.000 A 
ATOM     17  C   UNL d   1     -44.624   9.827  23.696  0.00  0.00     0.000 A 
ATOM     18  C   UNL d   1     -45.186  10.417  23.546  0.00  0.00     0.002 A 
ENDBRANCH  12  13
ENDBRANCH  11  12
ENDBRANCH   4  11
BRANCH   3  19
ATOM     19  C   UNL d   1     -49.603  12.605  22.897  0.00  0.00     0.004 A 
ATOM     20  C   UNL d   1     -49.873  12.625  22.115  0.00  0.00     0.000 A 
ATOM     21  C   UNL d   1     -50.568  13.024  21.934  0.00  0.00     0.000 A 
ATOM     22  C   UNL d   1     -50.999  13.406  22.534  0.00  0.00     0.000 A 
ATOM     23  C   UNL d   1     -50.721  13.380  23.310  0.00  0.00     0.000 A 
ATOM     24  C   UNL d   1     -50.023  12.979  23.489  0.00  0.00     0.000 A 
ENDBRANCH   3  19
TORSDOF 4
ENDMDL
MODEL 3
REMARK VINA RESULT:      -7.2      1.558      2.355
REMARK  4 active torsions:
REMARK  status: ('A' for Active; 'I' for Inactive)
REMARK    1  A    between atoms: C_11  and  C_3 
REMARK    2  A    between atoms: N_10  and  C_4 
REMARK    3  A    between atoms: C_12  and  N_10 
REMARK    4  A    between atoms: C_13  and  C_12 
ROOT
ATOM      1  C   UNL d   1     -48.095  12.990  22.814  0.00  0.00     0.167 A 
ATOM      2  N   UNL d   1     -47.321  12.709  22.797  0.00  0.00    -0.195 N 
ATOM      3  C   UNL d   1     -48.593  12.347  22.905  0.00  0.00     0.057 A 
ATOM      4  C   UNL d   1     -46.694  13.235  22.709  0.00  0.00     0.167 A 
ATOM      5  N   UNL d   1     -47.348  11.896  22.878  0.00  0.00    -0.161 NA
ATOM      6  N   UNL d   1     -48.243  13.796  22.744  0.00  0.00    -0.227 NA
ATOM      7  C   UNL d   1     -46.845  14.046  22.639  0.00  0.00     0.058 A 
ATOM      8  C   UNL d   1     -48.123  11.670  22.944  0.00  0.00     0.124 A 
ATOM      9  C   UNL d   1     -47.611  14.324  22.656  0.00  0.00     0.086 A 
ATOM     10  C   UNL d   1     -47.737  15.137  22.583  0.00  0.00     0.021 C 
ENDROOT
BRANCH   4  11
ATOM     11  N   UNL d   1     -45.919  12.954  22.692  0.00  0.00    -0.225 NA
BRANCH  11  12
ATOM     12  C   UNL d   1     -45.379  13.271  22.160  0.00  0.00     0.101 C 
BRANCH  12  13
ATOM     13  C   UNL d   1     -44.639  12.905  22.050  0.00  0.00     0.019 A 
ATOM     14  C   UNL d   1     -44.093  13.221  21.513  0.00  0.00     0.002 A 
ATOM     15  C   UNL d   1     -43.365  12.862  21.405  0.00  0.00     0.000 A 
ATOM     16  C   UNL d   1     -43.170  12.179  21.832  0.00  0.00     0.000 A 
ATOM     17  C   UNL d   1     -43.715  11.865  22.366  0.00  0.00     0.000 A 
ATOM     18  C   UNL d   1     -44.451  12.229  22.475  0.00  0.00     0.002 A 
ENDBRANCH  12  13
ENDBRANCH  11  12
ENDBRANCH   4  11
BRANCH   3  19
ATOM     19  C   UNL d   1     -49.413  12.450  22.942  0.00  0.00     0.004 A 
ATOM     20  C   UNL d   1     -49.855  12.431  22.243  0.00  0.00     0.000 A 
ATOM     21  C   UNL d   1     -50.669  12.532  22.272  0.00  0.00     0.000 A 
ATOM     22  C   UNL d   1     -51.049  12.653  23.002  0.00  0.00     0.000 A 
ATOM     23  C   UNL d   1     -50.601  12.671  23.694  0.00  0.00     0.000 A 
ATOM     24  C   UNL d   1     -49.782  12.569  23.661  0.00  0.00     0.000 A 
ENDBRANCH   3  19
TORSDOF 4
ENDMDL
MODEL 4
REMARK VINA RESULT:      -7.1      1.131      1.766
REMARK  4 active torsions:
REMARK  status: ('A' for Active; 'I' for Inactive)
REMARK    1  A    between atoms: C_11  and  C_3 
REMARK    2  A    between atoms: N_10  and  C_4 
REMARK    3  A    between atoms: C_12  and  N_10 
REMARK    4  A    between atoms: C_13  and  C_12 
ROOT
ATOM      1  C   UNL d   1     -48.376  13.951  22.960  0.00  0.00     0.167 A 
ATOM      2  N   UNL d   1     -47.570  13.942  22.792  0.00  0.00    -0.195 N 
ATOM      3  C   UNL d   1     -48.662  14.696  22.780  0.00  0.00     0.057 A 
ATOM      4  C   UNL d   1     -47.130  13.259  22.920  0.00  0.00     0.167 A 
ATOM      5  N   UNL d   1     -47.365  14.682  22.509  0.00  0.00    -0.161 NA
ATOM      6  N   UNL d   1     -48.743  13.277  23.256  0.00  0.00    -0.227 NA
ATOM      7  C   UNL d   1     -47.501  12.581  23.218  0.00  0.00     0.058 A 
ATOM      8  C   UNL d   1     -48.029  15.146  22.500  0.00  0.00     0.124 A 
ATOM      9  C   UNL d   1     -48.299  12.590  23.385  0.00  0.00     0.086 A 
ATOM     10  C   UNL d   1     -48.647  11.902  23.681  0.00  0.00     0.021 C 
ENDROOT
BRANCH   4  11
ATOM     11  N   UNL d   1     -46.323  13.250  22.751  0.00  0.00    -0.225 NA
BRANCH  11  12
ATOM     12  C   UNL d   1     -45.942  12.537  22.602  0.00  0.00     0.101 C 
BRANCH  12  13
ATOM     13  C   UNL d   1     -45.152  12.534  22.339  0.00  0.00     0.019 A 
ATOM     14  C   UNL d   1     -44.903  13.071  21.760  0.00  0.00     0.002 A 
ATOM     15  C   UNL d   1     -44.126  13.068  21.501  0.00  0.00     0.000 A 
ATOM     16  C   UNL d   1     -43.583  12.528  21.818  0.00  0.00     0.000 A 
ATOM     17  C   UNL d   1     -43.833  11.994  22.395  0.00  0.00     0.000 A 
ATOM     18  C   UNL d   1     -44.619  11.997  22.656  0.00  0.00     0.002 A 
ENDBRANCH  12  13
ENDBRANCH  11  12
ENDBRANCH   4  11
BRANCH   3  19
ATOM     19  C   UNL d   1     -49.460  14.881  22.890  0.00  0.00     0.004 A 
ATOM     20  C   UNL d   1     -49.694  15.271  23.582  0.00  0.00     0.000 A 
ATOM     21  C   UNL d   1     -50.485  15.457  23.698  0.00  0.00     0.000 A 
ATOM     22  C   UNL d   1     -51.051  15.254  23.122  0.00  0.00     0.000 A 
ATOM     23  C   UNL d   1     -50.809  14.866  22.436  0.00  0.00     0.000 A 
ATOM     24  C   UNL d   1     -50.013  14.680  22.322  0.00  0.00     0.000 A 
ENDBRANCH   3  19
TORSDOF 4
ENDMDL
MODEL 5
REMARK VINA RESULT:      -6.1      8.102     10.190
REMARK  4 active torsions:
REMARK  status: ('A' for Active; 'I' for Inactive)
REMARK    1  A    between atoms: C_11  and  C_3 
REMARK    2  A    between atoms: N_10  and  C_4 
REMARK    3  A    between atoms: C_12  and  N_10 
REMARK    4  A    between atoms: C_13  and  C_12 
ROOT
ATOM      1  C   UNL d   1     -39.122  14.445  17.148  0.00  0.00     0.167 A 
ATOM      2  N   UNL d   1     -39.112  14.342  17.966  0.00  0.00    -0.195 N 
ATOM      3  C   UNL d   1     -38.414  14.161  16.851  0.00  0.00     0.057 A 
ATOM      4  C   UNL d   1     -39.758  14.579  18.418  0.00  0.00     0.167 A 
ATOM      5  N   UNL d   1     -38.399  13.996  18.166  0.00  0.00    -0.161 NA
ATOM      6  N   UNL d   1     -39.776  14.784  16.783  0.00  0.00    -0.227 NA
ATOM      7  C   UNL d   1     -40.416  14.920  18.048  0.00  0.00     0.058 A 
ATOM      8  C   UNL d   1     -37.969  13.884  17.489  0.00  0.00     0.124 A 
ATOM      9  C   UNL d   1     -40.425  15.022  17.240  0.00  0.00     0.086 A 
ATOM     10  C   UNL d   1     -41.092  15.364  16.893  0.00  0.00     0.021 C 
ENDROOT
BRANCH   4  11
ATOM     11  N   UNL d   1     -39.748  14.476  19.236  0.00  0.00    -0.225 NA
BRANCH  11  12
ATOM     12  C   UNL d   1     -40.211  14.957  19.716  0.00  0.00     0.101 C 
BRANCH  12  13
ATOM     13  C   UNL d   1     -40.033  15.031  20.526  0.00  0.00     0.019 A 
ATOM     14  C   UNL d   1     -40.045  14.364  21.018  0.00  0.00     0.002 A 
ATOM     15  C   UNL d   1     -39.871  14.437  21.815  0.00  0.00     0.000 A 
ATOM     16  C   UNL d   1     -39.681  15.177  22.134  0.00  0.00     0.000 A 
ATOM     17  C   UNL d   1     -39.669  15.840  21.643  0.00  0.00     0.000 A 
ATOM     18  C   UNL d   1     -39.845  15.767  20.837  0.00  0.00     0.002 A 
ENDBRANCH  12  13
ENDBRANCH  11  12
ENDBRANCH   4  11
BRANCH   3  19
ATOM     19  C   UNL d   1     -38.255  14.187  16.040  0.00  0.00     0.004 A 
ATOM     20  C   UNL d   1     -38.258  13.483  15.605  0.00  0.00     0.000 A 
ATOM     21  C   UNL d   1     -38.101  13.501  14.799  0.00  0.00     0.000 A 
ATOM     22  C   UNL d   1     -37.940  14.225  14.421  0.00  0.00     0.000 A 
ATOM     23  C   UNL d   1     -37.940  14.921  14.863  0.00  0.00     0.000 A 
ATOM     24  C   UNL d   1     -38.098  14.900  15.673  0.00  0.00     0.000 A 
ENDBRANCH   3  19
TORSDOF 4
ENDMDL
MODEL 6
REMARK VINA RESULT:      -5.9      0.716      5.188
REMARK  4 active torsions:
REMARK  status: ('A' for Active; 'I' for Inactive)
REMARK    1  A    between atoms: C_11  and  C_3 
REMARK    2  A    between atoms: N_10  and  C_4 
REMARK    3  A    between atoms: C_12  and  N_10 
REMARK    4  A    between atoms: C_13  and  C_12 
ROOT
ATOM      1  C   UNL d   1     -46.696  12.664  23.180  0.00  0.00     0.167 A 
ATOM      2  N   UNL d   1     -47.483  12.898  23.247  0.00  0.00    -0.195 N 
ATOM      3  C   UNL d   1     -46.657  11.864  23.348  0.00  0.00     0.057 A 
ATOM      4  C   UNL d   1     -47.693  13.681  23.108  0.00  0.00     0.167 A 
ATOM      5  N   UNL d   1     -47.923  12.240  23.455  0.00  0.00    -0.161 NA
ATOM      6  N   UNL d   1     -46.119  13.213  22.974  0.00  0.00    -0.227 NA
ATOM      7  C   UNL d   1     -47.110  14.232  22.901  0.00  0.00     0.058 A 
ATOM      8  C   UNL d   1     -47.423  11.607  23.518  0.00  0.00     0.124 A 
ATOM      9  C   UNL d   1     -46.332  14.001  22.835  0.00  0.00     0.086 A 
ATOM     10  C   UNL d   1     -45.768  14.568  22.628  0.00  0.00     0.021 C 
ENDROOT
BRANCH   4  11
ATOM     11  N   UNL d   1     -48.480  13.915  23.175  0.00  0.00    -0.225 NA
BRANCH  11  12
ATOM     12  C   UNL d   1     -48.737  14.604  22.806  0.00  0.00     0.101 C 
BRANCH  12  13
ATOM     13  C   UNL d   1     -49.515  14.876  22.927  0.00  0.00     0.019 A 
ATOM     14  C   UNL d   1     -49.683  15.395  23.550  0.00  0.00     0.002 A 
ATOM     15  C   UNL d   1     -50.448  15.662  23.669  0.00  0.00     0.000 A 
ATOM     16  C   UNL d   1     -51.059  15.415  23.167  0.00  0.00     0.000 A 
ATOM     17  C   UNL d   1     -50.890  14.898  22.546  0.00  0.00     0.000 A 
ATOM     18  C   UNL d   1     -50.116  14.628  22.426  0.00  0.00     0.002 A 
ENDBRANCH  12  13
ENDBRANCH  11  12
ENDBRANCH   4  11
BRANCH   3  19
ATOM     19  C   UNL d   1     -45.935  11.462  23.327  0.00  0.00     0.004 A 
ATOM     20  C   UNL d   1     -45.871  10.724  23.695  0.00  0.00     0.000 A 
ATOM     21  C   UNL d   1     -45.157  10.319  23.679  0.00  0.00     0.000 A 
ATOM     22  C   UNL d   1     -44.498  10.650  23.293  0.00  0.00     0.000 A 
ATOM     23  C   UNL d   1     -44.571  11.387  22.929  0.00  0.00     0.000 A 
ATOM     24  C   UNL d   1     -45.290  11.791  22.947  0.00  0.00     0.000 A 
ENDBRANCH   3  19
TORSDOF 4
ENDMDL
MODEL 7
REMARK VINA RESULT:      -5.5      8.095      9.653
REMARK  4 active torsions:
REMARK  status: ('A' for Active; 'I' for Inactive)
REMARK    1  A    between atoms: C_11  and  C_3 
REMARK    2  A    between atoms: N_10  and  C_4 
REMARK    3  A    between atoms: C_12  and  N_10 
REMARK    4  A    between atoms: C_13  and  C_12 
ROOT
ATOM      1  C   UNL d   1     -38.935  14.428  18.633  0.00  0.00     0.167 A 
ATOM      2  N   UNL d   1     -38.802  14.128  19.389  0.00  0.00    -0.195 N 
ATOM      3  C   UNL d   1     -38.401  14.073  18.125  0.00  0.00     0.057 A 
ATOM      4  C   UNL d   1     -39.261  14.387  20.021  0.00  0.00     0.167 A 
ATOM      5  N   UNL d   1     -38.187  13.590  19.340  0.00  0.00    -0.161 NA
ATOM      6  N   UNL d   1     -39.526  14.986  18.510  0.00  0.00    -0.227 NA
ATOM      7  C   UNL d   1     -39.856  14.949  19.895  0.00  0.00     0.058 A 
ATOM      8  C   UNL d   1     -37.940  13.553  18.570  0.00  0.00     0.124 A 
ATOM      9  C   UNL d   1     -39.987  15.246  19.147  0.00  0.00     0.086 A 
ATOM     10  C   UNL d   1     -40.586  15.805  19.045  0.00  0.00     0.021 C 
ENDROOT
BRANCH   4  11
ATOM     11  N   UNL d   1     -39.128  14.087  20.777  0.00  0.00    -0.225 NA
BRANCH  11  12
ATOM     12  C   UNL d   1     -39.368  14.514  21.437  0.00  0.00     0.101 C 
BRANCH  12  13
ATOM     13  C   UNL d   1     -39.098  14.298  22.195  0.00  0.00     0.019 A 
ATOM     14  C   UNL d   1     -38.671  14.838  22.656  0.00  0.00     0.002 A 
ATOM     15  C   UNL d   1     -38.405  14.625  23.400  0.00  0.00     0.000 A 
ATOM     16  C   UNL d   1     -38.561  13.868  23.698  0.00  0.00     0.000 A 
ATOM     17  C   UNL d   1     -38.986  13.331  23.238  0.00  0.00     0.000 A 
ATOM     18  C   UNL d   1     -39.255  13.546  22.485  0.00  0.00     0.002 A 
ENDBRANCH  12  13
ENDBRANCH  11  12
ENDBRANCH   4  11
BRANCH   3  19
ATOM     19  C   UNL d   1     -38.395  14.261  17.320  0.00  0.00     0.004 A 
ATOM     20  C   UNL d   1     -37.957  14.913  17.060  0.00  0.00     0.000 A 
ATOM     21  C   UNL d   1     -37.946  15.105  16.262  0.00  0.00     0.000 A 
ATOM     22  C   UNL d   1     -38.375  14.647  15.716  0.00  0.00     0.000 A 
ATOM     23  C   UNL d   1     -38.809  13.999  15.984  0.00  0.00     0.000 A 
ATOM     24  C   UNL d   1     -38.817  13.808  16.787  0.00  0.00     0.000 A 
ENDBRANCH   3  19
TORSDOF 4
ENDMDL
