MODEL 1
REMARK VINA RESULT:      -3.1      0.000      0.000
REMARK  4 active torsions:
REMARK  status: ('A' for Active; 'I' for Inactive)
REMARK    1  A    between atoms: C_7  and  N_2 
REMARK    2  A    between atoms: C_15  and  C_7 
REMARK    3  A    between atoms: C_8  and  O_14 
REMARK    4  A    between atoms: O_14  and  C_15 
ROOT
ATOM      1  C   UNL d   1      32.604  21.129 -20.926  0.00  0.00     0.296 A 
ATOM      2  N   UNL d   1      32.858  21.300 -21.689  0.00  0.00    -0.266 N 
ATOM      3  S   UNL d   1      32.247  21.822 -20.616  0.00  0.00    -0.025 SA
ATOM      4  C   UNL d   1      32.663  22.089 -21.856  0.00  0.00     0.074 A 
ATOM      5  C   UNL d   1      32.289  22.408 -21.199  0.00  0.00     0.050 A 
ATOM      6  O   UNL d   1      32.683  20.413 -20.533  0.00  0.00    -0.259 OA
ATOM      7  C   UNL d   1      32.785  22.550 -22.532  0.00  0.00     0.018 A 
ATOM      8  C   UNL d   1      32.028  23.196 -21.203  0.00  0.00     0.008 A 
ATOM      9  C   UNL d   1      32.526  23.335 -22.540  0.00  0.00     0.002 A 
ATOM     10  C   UNL d   1      32.152  23.655 -21.883  0.00  0.00     0.001 A 
ENDROOT
BRANCH   2  11
ATOM     11  C   UNL d   1      33.241  20.779 -22.201  0.00  0.00     0.110 C 
BRANCH  11  12
ATOM     12  C   UNL d   1      32.867  20.088 -22.446  0.00  0.00     0.142 C 
BRANCH  12  13
ATOM     13  O   UNL d   1      33.149  19.658 -23.095  0.00  0.00    -0.304 OA
BRANCH  13  14
ATOM     14  C   UNL d   1      32.851  18.907 -23.258  0.00  0.00     0.100 A 
ATOM     15  C   UNL d   1      32.209  18.821 -23.770  0.00  0.00     0.025 A 
ATOM     16  C   UNL d   1      31.913  18.074 -23.932  0.00  0.00     0.002 A 
ATOM     17  C   UNL d   1      32.258  17.411 -23.582  0.00  0.00     0.000 A 
ATOM     18  C   UNL d   1      32.902  17.501 -23.069  0.00  0.00     0.002 A 
ATOM     19  C   UNL d   1      31.957  16.656 -23.747  0.00  0.00     0.000 C 
ATOM     20  C   UNL d   1      33.193  18.254 -22.912  0.00  0.00     0.025 A 
ENDBRANCH  13  14
ENDBRANCH  12  13
ENDBRANCH  11  12
ENDBRANCH   2  11
TORSDOF 4
ENDMDL
MODEL 2
REMARK VINA RESULT:      -2.7      2.699      5.237
REMARK  4 active torsions:
REMARK  status: ('A' for Active; 'I' for Inactive)
REMARK    1  A    between atoms: C_7  and  N_2 
REMARK    2  A    between atoms: C_15  and  C_7 
REMARK    3  A    between atoms: C_8  and  O_14 
REMARK    4  A    between atoms: O_14  and  C_15 
ROOT
ATOM      1  C   UNL d   1      31.382  15.834 -23.686  0.00  0.00     0.296 A 
ATOM      2  N   UNL d   1      31.232  16.583 -23.988  0.00  0.00    -0.266 N 
ATOM      3  S   UNL d   1      30.643  15.458 -23.560  0.00  0.00    -0.025 SA
ATOM      4  C   UNL d   1      30.410  16.676 -24.052  0.00  0.00     0.074 A 
ATOM      5  C   UNL d   1      30.049  15.987 -23.789  0.00  0.00     0.050 A 
ATOM      6  O   UNL d   1      32.119  15.507 -23.532  0.00  0.00    -0.259 OA
ATOM      7  C   UNL d   1      29.952  17.312 -24.319  0.00  0.00     0.018 A 
ATOM      8  C   UNL d   1      29.223  15.917 -23.788  0.00  0.00     0.008 A 
ATOM      9  C   UNL d   1      29.128  17.245 -24.319  0.00  0.00     0.002 A 
ATOM     10  C   UNL d   1      28.767  16.556 -24.056  0.00  0.00     0.001 A 
ENDROOT
BRANCH   2  11
ATOM     11  C   UNL d   1      31.799  17.145 -24.194  0.00  0.00     0.110 C 
BRANCH  11  12
ATOM     12  C   UNL d   1      32.296  17.463 -23.621  0.00  0.00     0.142 C 
BRANCH  12  13
ATOM     13  O   UNL d   1      32.826  18.072 -23.806  0.00  0.00    -0.304 OA
BRANCH  13  14
ATOM     14  C   UNL d   1      32.929  18.706 -23.289  0.00  0.00     0.100 A 
ATOM     15  C   UNL d   1      33.112  18.565 -22.496  0.00  0.00     0.025 A 
ATOM     16  C   UNL d   1      33.214  19.196 -21.983  0.00  0.00     0.002 A 
ATOM     17  C   UNL d   1      33.134  19.969 -22.261  0.00  0.00     0.000 A 
ATOM     18  C   UNL d   1      32.951  20.106 -23.057  0.00  0.00     0.002 A 
ATOM     19  C   UNL d   1      33.238  20.605 -21.740  0.00  0.00     0.000 C 
ATOM     20  C   UNL d   1      32.850  19.467 -23.565  0.00  0.00     0.025 A 
ENDBRANCH  13  14
ENDBRANCH  12  13
ENDBRANCH  11  12
ENDBRANCH   2  11
TORSDOF 4
ENDMDL
MODEL 3
REMARK VINA RESULT:      -2.5      2.988      4.329
REMARK  4 active torsions:
REMARK  status: ('A' for Active; 'I' for Inactive)
REMARK    1  A    between atoms: C_7  and  N_2 
REMARK    2  A    between atoms: C_15  and  C_7 
REMARK    3  A    between atoms: C_8  and  O_14 
REMARK    4  A    between atoms: O_14  and  C_15 
ROOT
ATOM      1  C   UNL d   1      32.884  17.576 -23.033  0.00  0.00     0.296 A 
ATOM      2  N   UNL d   1      32.526  17.548 -23.773  0.00  0.00    -0.266 N 
ATOM      3  S   UNL d   1      33.209  18.343 -22.938  0.00  0.00    -0.025 SA
ATOM      4  C   UNL d   1      32.625  18.286 -24.137  0.00  0.00     0.074 A 
ATOM      5  C   UNL d   1      33.044  18.773 -23.625  0.00  0.00     0.050 A 
ATOM      6  O   UNL d   1      32.920  16.968 -22.483  0.00  0.00    -0.259 OA
ATOM      7  C   UNL d   1      32.381  18.567 -24.876  0.00  0.00     0.018 A 
ATOM      8  C   UNL d   1      33.228  19.553 -23.841  0.00  0.00     0.008 A 
ATOM      9  C   UNL d   1      32.563  19.344 -25.094  0.00  0.00     0.002 A 
ATOM     10  C   UNL d   1      32.981  19.831 -24.582  0.00  0.00     0.001 A 
ENDROOT
BRANCH   2  11
ATOM     11  C   UNL d   1      32.136  16.897 -24.097  0.00  0.00     0.110 C 
BRANCH  11  12
ATOM     12  C   UNL d   1      31.341  16.765 -23.932  0.00  0.00     0.142 C 
BRANCH  12  13
ATOM     13  O   UNL d   1      30.952  16.093 -24.220  0.00  0.00    -0.304 OA
BRANCH  13  14
ATOM     14  C   UNL d   1      30.155  15.967 -24.046  0.00  0.00     0.100 A 
ATOM     15  C   UNL d   1      29.942  15.605 -23.335  0.00  0.00     0.025 A 
ATOM     16  C   UNL d   1      29.150  15.480 -23.163  0.00  0.00     0.002 A 
ATOM     17  C   UNL d   1      28.571  15.716 -23.701  0.00  0.00     0.000 A 
ATOM     18  C   UNL d   1      28.789  16.078 -24.413  0.00  0.00     0.002 A 
ATOM     19  C   UNL d   1      27.771  15.587 -23.525  0.00  0.00     0.000 C 
ATOM     20  C   UNL d   1      29.585  16.200 -24.578  0.00  0.00     0.025 A 
ENDBRANCH  13  14
ENDBRANCH  12  13
ENDBRANCH  11  12
ENDBRANCH   2  11
TORSDOF 4
ENDMDL
MODEL 4
REMARK VINA RESULT:      -2.5      1.236      1.918
REMARK  4 active torsions:
REMARK  status: ('A' for Active; 'I' for Inactive)
REMARK    1  A    between atoms: C_7  and  N_2 
REMARK    2  A    between atoms: C_15  and  C_7 
REMARK    3  A    between atoms: C_8  and  O_14 
REMARK    4  A    between atoms: O_14  and  C_15 
ROOT
ATOM      1  C   UNL d   1      33.222  19.707 -21.874  0.00  0.00     0.296 A 
ATOM      2  N   UNL d   1      33.231  19.835 -22.686  0.00  0.00    -0.266 N 
ATOM      3  S   UNL d   1      33.217  20.457 -21.499  0.00  0.00    -0.025 SA
ATOM      4  C   UNL d   1      33.233  20.653 -22.819  0.00  0.00     0.074 A 
ATOM      5  C   UNL d   1      33.224  21.034 -22.092  0.00  0.00     0.050 A 
ATOM      6  O   UNL d   1      33.217  18.980 -21.493  0.00  0.00    -0.259 OA
ATOM      7  C   UNL d   1      33.241  21.092 -23.521  0.00  0.00     0.018 A 
ATOM      8  C   UNL d   1      33.223  21.863 -22.050  0.00  0.00     0.008 A 
ATOM      9  C   UNL d   1      33.240  21.918 -23.482  0.00  0.00     0.002 A 
ATOM     10  C   UNL d   1      33.231  22.299 -22.755  0.00  0.00     0.001 A 
ENDROOT
BRANCH   2  11
ATOM     11  C   UNL d   1      33.239  19.250 -23.268  0.00  0.00     0.110 C 
BRANCH  11  12
ATOM     12  C   UNL d   1      32.618  18.713 -23.326  0.00  0.00     0.142 C 
BRANCH  12  13
ATOM     13  O   UNL d   1      32.543  18.218 -23.985  0.00  0.00    -0.304 OA
BRANCH  13  14
ATOM     14  C   UNL d   1      31.982  17.613 -23.990  0.00  0.00     0.100 A 
ATOM     15  C   UNL d   1      32.160  16.885 -23.645  0.00  0.00     0.025 A 
ATOM     16  C   UNL d   1      31.602  16.284 -23.650  0.00  0.00     0.002 A 
ATOM     17  C   UNL d   1      30.866  16.411 -24.000  0.00  0.00     0.000 A 
ATOM     18  C   UNL d   1      30.691  17.143 -24.346  0.00  0.00     0.002 A 
ATOM     19  C   UNL d   1      30.303  15.801 -24.004  0.00  0.00     0.000 C 
ATOM     20  C   UNL d   1      31.256  17.740 -24.337  0.00  0.00     0.025 A 
ENDBRANCH  13  14
ENDBRANCH  12  13
ENDBRANCH  11  12
ENDBRANCH   2  11
TORSDOF 4
ENDMDL
MODEL 5
REMARK VINA RESULT:      -0.8      3.182      5.590
REMARK  4 active torsions:
REMARK  status: ('A' for Active; 'I' for Inactive)
REMARK    1  A    between atoms: C_7  and  N_2 
REMARK    2  A    between atoms: C_15  and  C_7 
REMARK    3  A    between atoms: C_8  and  O_14 
REMARK    4  A    between atoms: O_14  and  C_15 
ROOT
ATOM      1  C   UNL d   1      28.984  17.663 -24.589  0.00  0.00     0.296 A 
ATOM      2  N   UNL d   1      29.569  17.119 -24.393  0.00  0.00    -0.266 N 
ATOM      3  S   UNL d   1      28.287  17.445 -24.178  0.00  0.00    -0.025 SA
ATOM      4  C   UNL d   1      29.244  16.568 -23.865  0.00  0.00     0.074 A 
ATOM      5  C   UNL d   1      28.459  16.768 -23.733  0.00  0.00     0.050 A 
ATOM      6  O   UNL d   1      29.062  18.304 -25.096  0.00  0.00    -0.259 OA
ATOM      7  C   UNL d   1      29.576  15.909 -23.492  0.00  0.00     0.018 A 
ATOM      8  C   UNL d   1      27.987  16.313 -23.225  0.00  0.00     0.008 A 
ATOM      9  C   UNL d   1      29.109  15.453 -22.984  0.00  0.00     0.002 A 
ATOM     10  C   UNL d   1      28.323  15.652 -22.852  0.00  0.00     0.001 A 
ENDROOT
BRANCH   2  11
ATOM     11  C   UNL d   1      30.345  17.121 -24.672  0.00  0.00     0.110 C 
BRANCH  11  12
ATOM     12  C   UNL d   1      30.942  17.486 -24.239  0.00  0.00     0.142 C 
BRANCH  12  13
ATOM     13  O   UNL d   1      31.667  17.678 -24.590  0.00  0.00    -0.304 OA
BRANCH  13  14
ATOM     14  C   UNL d   1      32.061  18.371 -24.380  0.00  0.00     0.100 A 
ATOM     15  C   UNL d   1      32.235  18.522 -23.587  0.00  0.00     0.025 A 
ATOM     16  C   UNL d   1      32.627  19.211 -23.379  0.00  0.00     0.002 A 
ATOM     17  C   UNL d   1      32.845  19.751 -23.963  0.00  0.00     0.000 A 
ATOM     18  C   UNL d   1      32.668  19.597 -24.757  0.00  0.00     0.002 A 
ATOM     19  C   UNL d   1      33.241  20.448 -23.750  0.00  0.00     0.000 C 
ATOM     20  C   UNL d   1      32.275  18.903 -24.958  0.00  0.00     0.025 A 
ENDBRANCH  13  14
ENDBRANCH  12  13
ENDBRANCH  11  12
ENDBRANCH   2  11
TORSDOF 4
ENDMDL
MODEL 6
REMARK VINA RESULT:      -0.7      2.547      5.135
REMARK  4 active torsions:
REMARK  status: ('A' for Active; 'I' for Inactive)
REMARK    1  A    between atoms: C_7  and  N_2 
REMARK    2  A    between atoms: C_15  and  C_7 
REMARK    3  A    between atoms: C_8  and  O_14 
REMARK    4  A    between atoms: O_14  and  C_15 
ROOT
ATOM      1  C   UNL d   1      32.662  21.578 -20.984  0.00  0.00     0.296 A 
ATOM      2  N   UNL d   1      32.718  22.378 -21.164  0.00  0.00    -0.266 N 
ATOM      3  S   UNL d   1      32.779  21.149 -21.695  0.00  0.00    -0.025 SA
ATOM      4  C   UNL d   1      32.868  22.450 -21.977  0.00  0.00     0.074 A 
ATOM      5  C   UNL d   1      32.905  21.697 -22.302  0.00  0.00     0.050 A 
ATOM      6  O   UNL d   1      32.518  21.251 -20.245  0.00  0.00    -0.259 OA
ATOM      7  C   UNL d   1      32.974  23.117 -22.454  0.00  0.00     0.018 A 
ATOM      8  C   UNL d   1      33.050  21.594 -23.112  0.00  0.00     0.008 A 
ATOM      9  C   UNL d   1      33.119  23.018 -23.263  0.00  0.00     0.002 A 
ATOM     10  C   UNL d   1      33.156  22.265 -23.588  0.00  0.00     0.001 A 
ENDROOT
BRANCH   2  11
ATOM     11  C   UNL d   1      32.639  23.001 -20.630  0.00  0.00     0.110 C 
BRANCH  11  12
ATOM     12  C   UNL d   1      32.710  22.867 -19.821  0.00  0.00     0.142 C 
BRANCH  12  13
ATOM     13  O   UNL d   1      32.560  23.471 -19.274  0.00  0.00    -0.304 OA
BRANCH  13  14
ATOM     14  C   UNL d   1      32.615  23.322 -18.465  0.00  0.00     0.100 A 
ATOM     15  C   UNL d   1      32.101  23.700 -17.941  0.00  0.00     0.025 A 
ATOM     16  C   UNL d   1      32.156  23.552 -17.137  0.00  0.00     0.002 A 
ATOM     17  C   UNL d   1      32.726  23.026 -16.855  0.00  0.00     0.000 A 
ATOM     18  C   UNL d   1      33.240  22.649 -17.384  0.00  0.00     0.002 A 
ATOM     19  C   UNL d   1      32.780  22.878 -16.041  0.00  0.00     0.000 C 
ATOM     20  C   UNL d   1      33.178  22.803 -18.189  0.00  0.00     0.025 A 
ENDBRANCH  13  14
ENDBRANCH  12  13
ENDBRANCH  11  12
ENDBRANCH   2  11
TORSDOF 4
ENDMDL
MODEL 7
REMARK VINA RESULT:      -0.6      1.830      4.688
REMARK  4 active torsions:
REMARK  status: ('A' for Active; 'I' for Inactive)
REMARK    1  A    between atoms: C_7  and  N_2 
REMARK    2  A    between atoms: C_15  and  C_7 
REMARK    3  A    between atoms: C_8  and  O_14 
REMARK    4  A    between atoms: O_14  and  C_15 
ROOT
ATOM      1  C   UNL d   1      32.669  17.574 -22.980  0.00  0.00     0.296 A 
ATOM      2  N   UNL d   1      32.464  18.108 -23.569  0.00  0.00    -0.266 N 
ATOM      3  S   UNL d   1      32.187  16.894 -23.074  0.00  0.00    -0.025 SA
ATOM      4  C   UNL d   1      31.862  17.770 -24.028  0.00  0.00     0.074 A 
ATOM      5  C   UNL d   1      31.692  17.026 -23.724  0.00  0.00     0.050 A 
ATOM      6  O   UNL d   1      33.241  17.679 -22.400  0.00  0.00    -0.259 OA
ATOM      7  C   UNL d   1      31.451  18.057 -24.686  0.00  0.00     0.018 A 
ATOM      8  C   UNL d   1      31.107  16.552 -24.072  0.00  0.00     0.008 A 
ATOM      9  C   UNL d   1      30.867  17.586 -25.035  0.00  0.00     0.002 A 
ATOM     10  C   UNL d   1      30.697  16.842 -24.732  0.00  0.00     0.001 A 
ENDROOT
BRANCH   2  11
ATOM     11  C   UNL d   1      32.799  18.853 -23.686  0.00  0.00     0.110 C 
BRANCH  11  12
ATOM     12  C   UNL d   1      33.089  19.283 -23.047  0.00  0.00     0.142 C 
BRANCH  12  13
ATOM     13  O   UNL d   1      33.209  20.100 -23.102  0.00  0.00    -0.304 OA
BRANCH  13  14
ATOM     14  C   UNL d   1      33.141  20.577 -22.432  0.00  0.00     0.100 A 
ATOM     15  C   UNL d   1      32.974  20.236 -21.699  0.00  0.00     0.025 A 
ATOM     16  C   UNL d   1      32.908  20.711 -21.034  0.00  0.00     0.002 A 
ATOM     17  C   UNL d   1      33.008  21.527 -21.101  0.00  0.00     0.000 A 
ATOM     18  C   UNL d   1      33.175  21.866 -21.838  0.00  0.00     0.002 A 
ATOM     19  C   UNL d   1      32.940  22.005 -20.427  0.00  0.00     0.000 C 
ATOM     20  C   UNL d   1      33.241  21.382 -22.500  0.00  0.00     0.025 A 
ENDBRANCH  13  14
ENDBRANCH  12  13
ENDBRANCH  11  12
ENDBRANCH   2  11
TORSDOF 4
ENDMDL
