MODEL 1
REMARK VINA RESULT:      -5.2      0.000      0.000
REMARK  3 active torsions:
REMARK  status: ('A' for Active; 'I' for Inactive)
REMARK    1  A    between atoms: N_6  and  S_1 
REMARK    2  A    between atoms: C_7  and  S_1 
REMARK    3  A    between atoms: C_10  and  N_6 
ROOT
ATOM      1  S   UNL d   1      57.374  -0.022  31.591  0.00  0.00     0.327 S 
ATOM      2  O   UNL d   1      58.095   0.326  31.410  0.00  0.00    -0.186 OA
ATOM      3  O   UNL d   1      57.034  -0.560  31.068  0.00  0.00    -0.186 OA
ENDROOT
BRANCH   1   4
ATOM      4  N   UNL d   1      57.762  -0.205  30.891  0.00  0.00    -0.317 NA
BRANCH   4   5
ATOM      5  C   UNL d   1      58.159  -0.392  30.175  0.00  0.00     0.145 A 
ATOM      6  C   UNL d   1      58.318  -1.187  29.993  0.00  0.00     0.033 A 
ATOM      7  C   UNL d   1      58.710  -1.369  29.286  0.00  0.00     0.003 A 
ATOM      8  C   UNL d   1      58.873  -2.153  29.094  0.00  0.00     0.000 C 
ATOM      9  C   UNL d   1      58.938  -0.762  28.771  0.00  0.00     0.000 A 
ATOM     10  C   UNL d   1      58.776   0.022  28.962  0.00  0.00     0.003 A 
ATOM     11  C   UNL d   1      58.385   0.204  29.666  0.00  0.00     0.033 A 
ATOM     12  C   UNL d   1      59.000   0.627  28.455  0.00  0.00     0.000 C 
ENDBRANCH   4   5
ENDBRANCH   1   4
BRANCH   1  13
ATOM     13  C   UNL d   1      56.993   0.166  32.293  0.00  0.00     0.118 A 
ATOM     14  C   UNL d   1      56.186   0.035  32.369  0.00  0.00     0.035 A 
ATOM     15  C   UNL d   1      55.797   0.223  33.076  0.00  0.00     0.105 A 
ATOM     16  N   UNL d   1      55.010   0.156  33.313  0.00  0.00    -0.189 NA
ATOM     17  C   UNL d   1      56.228   0.547  33.710  0.00  0.00     0.104 A 
ATOM     18  C   UNL d   1      54.948   0.438  34.094  0.00  0.00     0.369 A 
ATOM     19  O   UNL d   1      54.260   0.471  34.545  0.00  0.00    -0.242 OA
ATOM     20  N   UNL d   1      55.703   0.677  34.332  0.00  0.00    -0.189 NA
ATOM     21  C   UNL d   1      57.042   0.678  33.629  0.00  0.00     0.022 A 
ATOM     22  C   UNL d   1      57.419   0.486  32.920  0.00  0.00     0.016 A 
ENDBRANCH   1  13
TORSDOF 3
ENDMDL
MODEL 2
REMARK VINA RESULT:      -4.9      1.614      4.854
REMARK  3 active torsions:
REMARK  status: ('A' for Active; 'I' for Inactive)
REMARK    1  A    between atoms: N_6  and  S_1 
REMARK    2  A    between atoms: C_7  and  S_1 
REMARK    3  A    between atoms: C_10  and  N_6 
ROOT
ATOM      1  S   UNL d   1      57.546  -0.003  31.038  0.00  0.00     0.327 S 
ATOM      2  O   UNL d   1      57.395  -0.779  31.260  0.00  0.00    -0.186 OA
ATOM      3  O   UNL d   1      57.199   0.619  31.452  0.00  0.00    -0.186 OA
ENDROOT
BRANCH   1   4
ATOM      4  N   UNL d   1      57.051  -0.167  31.672  0.00  0.00    -0.317 NA
BRANCH   4   5
ATOM      5  C   UNL d   1      56.544  -0.334  32.321  0.00  0.00     0.145 A 
ATOM      6  C   UNL d   1      56.230  -1.099  32.406  0.00  0.00     0.033 A 
ATOM      7  C   UNL d   1      55.731  -1.262  33.046  0.00  0.00     0.003 A 
ATOM      8  C   UNL d   1      55.413  -2.015  33.141  0.00  0.00     0.000 C 
ATOM      9  C   UNL d   1      55.551  -0.665  33.593  0.00  0.00     0.000 A 
ATOM     10  C   UNL d   1      55.868   0.088  33.499  0.00  0.00     0.003 A 
ATOM     11  C   UNL d   1      56.366   0.251  32.861  0.00  0.00     0.033 A 
ATOM     12  C   UNL d   1      55.693   0.681  34.037  0.00  0.00     0.000 C 
ENDBRANCH   4   5
ENDBRANCH   1   4
BRANCH   1  13
ATOM     13  C   UNL d   1      58.042   0.152  30.403  0.00  0.00     0.118 A 
ATOM     14  C   UNL d   1      58.855   0.178  30.516  0.00  0.00     0.035 A 
ATOM     15  C   UNL d   1      59.360   0.334  29.877  0.00  0.00     0.105 A 
ATOM     16  N   UNL d   1      60.180   0.393  29.819  0.00  0.00    -0.189 NA
ATOM     17  C   UNL d   1      59.040   0.465  29.121  0.00  0.00     0.104 A 
ATOM     18  C   UNL d   1      60.374   0.562  29.026  0.00  0.00     0.369 A 
ATOM     19  O   UNL d   1      61.132   0.666  28.724  0.00  0.00    -0.242 OA
ATOM     20  N   UNL d   1      59.666   0.604  28.602  0.00  0.00    -0.189 NA
ATOM     21  C   UNL d   1      58.218   0.438  29.011  0.00  0.00     0.022 A 
ATOM     22  C   UNL d   1      57.725   0.282  29.655  0.00  0.00     0.016 A 
ENDBRANCH   1  13
TORSDOF 3
ENDMDL
MODEL 3
REMARK VINA RESULT:      -4.2      1.301      4.920
REMARK  3 active torsions:
REMARK  status: ('A' for Active; 'I' for Inactive)
REMARK    1  A    between atoms: N_6  and  S_1 
REMARK    2  A    between atoms: C_7  and  S_1 
REMARK    3  A    between atoms: C_10  and  N_6 
ROOT
ATOM      1  S   UNL d   1      57.266   0.069  31.597  0.00  0.00     0.327 S 
ATOM      2  O   UNL d   1      56.446   0.038  31.612  0.00  0.00    -0.186 OA
ATOM      3  O   UNL d   1      57.684   0.253  32.282  0.00  0.00    -0.186 OA
ENDROOT
BRANCH   1   4
ATOM      4  N   UNL d   1      56.856   0.220  32.291  0.00  0.00    -0.317 NA
BRANCH   4   5
ATOM      5  C   UNL d   1      56.435   0.376  33.001  0.00  0.00     0.145 A 
ATOM      6  C   UNL d   1      55.607   0.449  32.977  0.00  0.00     0.033 A 
ATOM      7  C   UNL d   1      55.195   0.602  33.679  0.00  0.00     0.003 A 
ATOM      8  C   UNL d   1      54.375   0.677  33.667  0.00  0.00     0.000 C 
ATOM      9  C   UNL d   1      55.607   0.680  34.393  0.00  0.00     0.000 A 
ATOM     10  C   UNL d   1      56.427   0.605  34.405  0.00  0.00     0.003 A 
ATOM     11  C   UNL d   1      56.839   0.453  33.706  0.00  0.00     0.033 A 
ATOM     12  C   UNL d   1      56.839   0.682  35.110  0.00  0.00     0.000 C 
ENDBRANCH   4   5
ENDBRANCH   1   4
BRANCH   1  13
ATOM     13  C   UNL d   1      57.669  -0.085  30.899  0.00  0.00     0.118 A 
ATOM     14  C   UNL d   1      57.902  -0.852  30.721  0.00  0.00     0.035 A 
ATOM     15  C   UNL d   1      58.309  -1.011  30.016  0.00  0.00     0.105 A 
ATOM     16  N   UNL d   1      58.608  -1.708  29.692  0.00  0.00    -0.189 NA
ATOM     17  C   UNL d   1      58.481  -0.391  29.489  0.00  0.00     0.104 A 
ATOM     18  C   UNL d   1      58.967  -1.524  28.963  0.00  0.00     0.369 A 
ATOM     19  O   UNL d   1      59.335  -2.057  28.455  0.00  0.00    -0.242 OA
ATOM     20  N   UNL d   1      58.884  -0.710  28.845  0.00  0.00    -0.189 NA
ATOM     21  C   UNL d   1      58.243   0.382  29.673  0.00  0.00     0.022 A 
ATOM     22  C   UNL d   1      57.838   0.529  30.377  0.00  0.00     0.016 A 
ENDBRANCH   1  13
TORSDOF 3
ENDMDL
