MODEL 1
REMARK VINA RESULT:      -8.8      0.000      0.000
REMARK  5 active torsions:
REMARK  status: ('A' for Active; 'I' for Inactive)
REMARK    1  A    between atoms: N_3  and  C_1 
REMARK       I    between atoms: C_9  and  N_3 
REMARK       I    between atoms: N_7  and  C_8 
REMARK    2  A    between atoms: C_8  and  C_14 
REMARK    3  A    between atoms: C_15  and  C_9 
REMARK    4  A    between atoms: S_12  and  C_15 
REMARK    5  A    between atoms: C_14  and  S_12 
ROOT
ATOM      1  N   UNL d   1      51.870  34.488  52.862  0.00  0.00    -0.183 NA
ATOM      2  C   UNL d   1      51.160  34.076  52.971  0.00  0.00     0.287 C 
ATOM      3  O   UNL d   1      51.135  33.421  53.480  0.00  0.00    -0.265 OA
ENDROOT
BRANCH   2   4
ATOM      4  C   UNL d   1      50.480  34.309  52.579  0.00  0.00     0.098 C 
BRANCH   4   5
ATOM      5  S   UNL d   1      49.888  34.732  52.978  0.00  0.00    -0.076 SA
BRANCH   5   6
ATOM      6  C   UNL d   1      49.212  34.981  52.573  0.00  0.00     0.097 C 
BRANCH   6   7
ATOM      7  C   UNL d   1      48.701  35.531  52.912  0.00  0.00     0.271 C 
ATOM      8  N   UNL d   1      48.006  35.731  52.526  0.00  0.00    -0.272 N 
ATOM      9  C   UNL d   1      47.836  35.372  51.802  0.00  0.00     0.083 A 
ATOM     10  C   UNL d   1      47.499  36.273  52.856  0.00  0.00     0.083 A 
ATOM     11  C   UNL d   1      47.137  35.571  51.411  0.00  0.00     0.019 A 
ATOM     12  C   UNL d   1      46.623  36.116  51.739  0.00  0.00     0.003 A 
ATOM     13  C   UNL d   1      46.797  36.473  52.464  0.00  0.00     0.019 A 
ATOM     14  O   UNL d   1      48.890  35.878  53.635  0.00  0.00    -0.266 OA
ENDBRANCH   6   7
ENDBRANCH   5   6
ENDBRANCH   4   5
ENDBRANCH   2   4
BRANCH   1  15
ATOM     15  C   UNL d   1      52.419  34.095  53.340  0.00  0.00     0.182 A 
ATOM     16  N   UNL d   1      52.915  34.445  53.902  0.00  0.00    -0.283 N 
ATOM     17  C   UNL d   1      53.373  33.848  54.251  0.00  0.00     0.072 A 
ATOM     18  C   UNL d   1      52.943  35.243  54.078  0.00  0.00     0.101 C 
ATOM     19  C   UNL d   1      53.950  33.861  54.833  0.00  0.00     0.017 A 
ATOM     20  C   UNL d   1      53.160  33.129  53.904  0.00  0.00     0.048 A 
ATOM     21  C   UNL d   1      54.314  33.173  55.071  0.00  0.00    -0.011 A 
ATOM     22  C   UNL d   1      54.102  32.454  54.724  0.00  0.00     0.027 A 
ATOM     23  C   UNL d   1      53.524  32.423  54.139  0.00  0.00    -0.004 A 
ATOM     24  S   UNL d   1      52.570  33.279  53.339  0.00  0.00    -0.048 SA
ENDBRANCH   1  15
TORSDOF 5
ENDMDL
MODEL 2
REMARK VINA RESULT:      -7.7      1.018      5.833
REMARK  5 active torsions:
REMARK  status: ('A' for Active; 'I' for Inactive)
REMARK    1  A    between atoms: N_3  and  C_1 
REMARK       I    between atoms: C_9  and  N_3 
REMARK       I    between atoms: N_7  and  C_8 
REMARK    2  A    between atoms: C_8  and  C_14 
REMARK    3  A    between atoms: C_15  and  C_9 
REMARK    4  A    between atoms: S_12  and  C_15 
REMARK    5  A    between atoms: C_14  and  S_12 
ROOT
ATOM      1  N   UNL d   1      49.858  34.441  51.819  0.00  0.00    -0.183 NA
ATOM      2  C   UNL d   1      50.218  34.441  52.565  0.00  0.00     0.287 C 
ATOM      3  O   UNL d   1      49.845  34.813  53.206  0.00  0.00    -0.265 OA
ENDROOT
BRANCH   2   4
ATOM      4  C   UNL d   1      50.944  34.077  52.677  0.00  0.00     0.098 C 
BRANCH   4   5
ATOM      5  S   UNL d   1      51.498  34.394  53.207  0.00  0.00    -0.076 SA
BRANCH   5   6
ATOM      6  C   UNL d   1      52.183  33.972  53.392  0.00  0.00     0.097 C 
BRANCH   6   7
ATOM      7  C   UNL d   1      52.745  34.291  53.903  0.00  0.00     0.271 C 
ATOM      8  N   UNL d   1      53.303  33.801  54.249  0.00  0.00    -0.272 N 
ATOM      9  C   UNL d   1      53.286  32.994  54.075  0.00  0.00     0.083 A 
ATOM     10  C   UNL d   1      53.859  34.110  54.753  0.00  0.00     0.083 A 
ATOM     11  C   UNL d   1      53.848  32.498  54.422  0.00  0.00     0.019 A 
ATOM     12  C   UNL d   1      54.410  32.804  54.930  0.00  0.00     0.003 A 
ATOM     13  C   UNL d   1      54.423  33.613  55.102  0.00  0.00     0.019 A 
ATOM     14  O   UNL d   1      52.744  35.099  54.063  0.00  0.00    -0.266 OA
ENDBRANCH   6   7
ENDBRANCH   5   6
ENDBRANCH   4   5
ENDBRANCH   2   4
BRANCH   1  15
ATOM     15  C   UNL d   1      49.149  34.853  51.927  0.00  0.00     0.182 A 
ATOM     16  N   UNL d   1      48.515  34.881  51.396  0.00  0.00    -0.283 N 
ATOM     17  C   UNL d   1      47.921  35.357  51.725  0.00  0.00     0.072 A 
ATOM     18  C   UNL d   1      48.487  34.501  50.672  0.00  0.00     0.101 C 
ATOM     19  C   UNL d   1      47.180  35.582  51.457  0.00  0.00     0.017 A 
ATOM     20  C   UNL d   1      48.188  35.624  52.460  0.00  0.00     0.048 A 
ATOM     21  C   UNL d   1      46.706  36.065  51.909  0.00  0.00    -0.011 A 
ATOM     22  C   UNL d   1      46.972  36.332  52.643  0.00  0.00     0.027 A 
ATOM     23  C   UNL d   1      47.713  36.116  52.927  0.00  0.00    -0.004 A 
ATOM     24  S   UNL d   1      48.948  35.314  52.588  0.00  0.00    -0.048 SA
ENDBRANCH   1  15
TORSDOF 5
ENDMDL
