MODEL 1
REMARK VINA RESULT:      -7.1      0.000      0.000
REMARK  7 active torsions:
REMARK  status: ('A' for Active; 'I' for Inactive)
REMARK    1  A    between atoms: C_6  and  C_1 
REMARK    2  A    between atoms: O_18  and  C_6 
REMARK    3  A    between atoms: C_7  and  C_11 
REMARK    4  A    between atoms: O_19  and  C_7 
REMARK    5  A    between atoms: O_10  and  C_12 
REMARK    6  A    between atoms: C_11  and  O_10 
REMARK    7  A    between atoms: C_21  and  O_18 
ROOT
ATOM      1  C   UNL d   1     -48.642  13.459  22.538  0.00  0.00     0.081 A 
ATOM      2  C   UNL d   1     -48.949  14.217  22.418  0.00  0.00     0.069 A 
ATOM      3  N   UNL d   1     -48.334  14.752  22.509  0.00  0.00    -0.304 N 
ATOM      4  C   UNL d   1     -47.845  13.528  22.701  0.00  0.00     0.025 A 
ATOM      5  C   UNL d   1     -47.654  14.329  22.683  0.00  0.00     0.064 A 
ATOM      6  C   UNL d   1     -46.882  14.571  22.828  0.00  0.00     0.020 A 
ATOM      7  C   UNL d   1     -47.264  12.971  22.864  0.00  0.00     0.026 A 
ATOM      8  C   UNL d   1     -46.484  13.219  23.010  0.00  0.00     0.100 A 
ATOM      9  C   UNL d   1     -46.294  14.011  22.992  0.00  0.00     0.026 A 
ATOM     10  C   UNL d   1     -49.731  14.404  22.240  0.00  0.00     0.019 C 
ATOM     11  C   UNL d   1     -48.395  15.578  22.436  0.00  0.00     0.099 C 
ENDROOT
BRANCH   8  12
ATOM     12  O   UNL d   1     -45.901  12.652  23.174  0.00  0.00    -0.302 OA
BRANCH  12  13
ATOM     13  C   UNL d   1     -45.308  12.515  22.618  0.00  0.00     0.163 C 
ATOM     14  C   UNL d   1     -45.312  12.918  21.895  0.00  0.00     0.032 C 
BRANCH  13  15
ATOM     15  C   UNL d   1     -44.707  11.973  22.782  0.00  0.00     0.319 C 
ATOM     16  O   UNL d   1     -44.010  11.972  22.336  0.00  0.00    -0.257 OA
BRANCH  15  17
ATOM     17  O   UNL d   1     -44.793  11.427  23.391  0.00  0.00    -0.294 OA
ATOM     18  C   UNL d   1     -44.371  10.719  23.372  0.00  0.00     0.185 C 
ENDBRANCH  15  17
ENDBRANCH  13  15
ENDBRANCH  12  13
ENDBRANCH   8  12
BRANCH   1  19
ATOM     19  C   UNL d   1     -49.069  12.752  22.499  0.00  0.00     0.302 C 
ATOM     20  O   UNL d   1     -49.092  12.328  21.790  0.00  0.00    -0.259 OA
BRANCH  19  21
ATOM     21  O   UNL d   1     -49.467  12.471  23.160  0.00  0.00    -0.271 OA
BRANCH  21  22
ATOM     22  C   UNL d   1     -49.824  11.728  23.140  0.00  0.00     0.126 C 
ATOM     23  C   UNL d   1     -50.399  11.534  23.698  0.00  0.00     0.029 C 
ENDBRANCH  21  22
ENDBRANCH  19  21
ENDBRANCH   1  19
TORSDOF 7
ENDMDL
MODEL 2
REMARK VINA RESULT:      -6.8      1.352      2.406
REMARK  7 active torsions:
REMARK  status: ('A' for Active; 'I' for Inactive)
REMARK    1  A    between atoms: C_6  and  C_1 
REMARK    2  A    between atoms: O_18  and  C_6 
REMARK    3  A    between atoms: C_7  and  C_11 
REMARK    4  A    between atoms: O_19  and  C_7 
REMARK    5  A    between atoms: O_10  and  C_12 
REMARK    6  A    between atoms: C_11  and  O_10 
REMARK    7  A    between atoms: C_21  and  O_18 
ROOT
ATOM      1  C   UNL d   1     -49.341  13.183  23.051  0.00  0.00     0.081 A 
ATOM      2  C   UNL d   1     -49.923  12.610  23.183  0.00  0.00     0.069 A 
ATOM      3  N   UNL d   1     -49.548  11.930  23.446  0.00  0.00    -0.304 N 
ATOM      4  C   UNL d   1     -48.614  12.855  23.232  0.00  0.00     0.025 A 
ATOM      5  C   UNL d   1     -48.743  12.080  23.477  0.00  0.00     0.064 A 
ATOM      6  C   UNL d   1     -48.108  11.607  23.697  0.00  0.00     0.020 A 
ATOM      7  C   UNL d   1     -47.851  13.158  23.207  0.00  0.00     0.026 A 
ATOM      8  C   UNL d   1     -47.210  12.677  23.431  0.00  0.00     0.100 A 
ATOM      9  C   UNL d   1     -47.336  11.910  23.673  0.00  0.00     0.026 A 
ATOM     10  C   UNL d   1     -50.733  12.705  23.071  0.00  0.00     0.019 C 
ATOM     11  C   UNL d   1     -49.924  11.216  23.646  0.00  0.00     0.099 C 
ENDROOT
BRANCH   8  12
ATOM     12  O   UNL d   1     -46.441  12.987  23.404  0.00  0.00    -0.302 OA
BRANCH  12  13
ATOM     13  C   UNL d   1     -45.860  12.581  22.983  0.00  0.00     0.163 C 
ATOM     14  C   UNL d   1     -45.810  11.756  23.029  0.00  0.00     0.032 C 
BRANCH  13  15
ATOM     15  C   UNL d   1     -45.324  12.999  22.513  0.00  0.00     0.319 C 
ATOM     16  O   UNL d   1     -45.438  13.804  22.363  0.00  0.00    -0.257 OA
BRANCH  15  17
ATOM     17  O   UNL d   1     -44.672  12.619  22.188  0.00  0.00    -0.294 OA
ATOM     18  C   UNL d   1     -44.176  13.024  21.668  0.00  0.00     0.185 C 
ENDBRANCH  15  17
ENDBRANCH  13  15
ENDBRANCH  12  13
ENDBRANCH   8  12
BRANCH   1  19
ATOM     19  C   UNL d   1     -49.471  13.954  22.782  0.00  0.00     0.302 C 
ATOM     20  O   UNL d   1     -49.523  14.099  21.969  0.00  0.00    -0.259 OA
BRANCH  19  21
ATOM     21  O   UNL d   1     -49.549  14.572  23.316  0.00  0.00    -0.271 OA
BRANCH  21  22
ATOM     22  C   UNL d   1     -49.640  15.344  23.041  0.00  0.00     0.126 C 
ATOM     23  C   UNL d   1     -49.985  15.914  23.526  0.00  0.00     0.029 C 
ENDBRANCH  21  22
ENDBRANCH  19  21
ENDBRANCH   1  19
TORSDOF 7
ENDMDL
MODEL 3
REMARK VINA RESULT:      -5.5      7.671      9.129
REMARK  7 active torsions:
REMARK  status: ('A' for Active; 'I' for Inactive)
REMARK    1  A    between atoms: C_6  and  C_1 
REMARK    2  A    between atoms: O_18  and  C_6 
REMARK    3  A    between atoms: C_7  and  C_11 
REMARK    4  A    between atoms: O_19  and  C_7 
REMARK    5  A    between atoms: O_10  and  C_12 
REMARK    6  A    between atoms: C_11  and  O_10 
REMARK    7  A    between atoms: C_21  and  O_18 
ROOT
ATOM      1  C   UNL d   1     -39.571  14.835  17.762  0.00  0.00     0.081 A 
ATOM      2  C   UNL d   1     -40.091  15.089  17.172  0.00  0.00     0.069 A 
ATOM      3  N   UNL d   1     -40.677  15.536  17.532  0.00  0.00    -0.304 N 
ATOM      4  C   UNL d   1     -39.835  15.124  18.479  0.00  0.00     0.025 A 
ATOM      5  C   UNL d   1     -40.520  15.559  18.336  0.00  0.00     0.064 A 
ATOM      6  C   UNL d   1     -40.915  15.921  18.959  0.00  0.00     0.020 A 
ATOM      7  C   UNL d   1     -39.546  15.052  19.244  0.00  0.00     0.026 A 
ATOM      8  C   UNL d   1     -39.948  15.420  19.873  0.00  0.00     0.100 A 
ATOM      9  C   UNL d   1     -40.626  15.850  19.732  0.00  0.00     0.026 A 
ATOM     10  C   UNL d   1     -40.033  14.923  16.368  0.00  0.00     0.019 C 
ATOM     11  C   UNL d   1     -41.315  15.901  17.144  0.00  0.00     0.099 C 
ENDROOT
BRANCH   8  12
ATOM     12  O   UNL d   1     -39.653  15.344  20.644  0.00  0.00    -0.302 OA
BRANCH  12  13
ATOM     13  C   UNL d   1     -39.929  14.731  21.121  0.00  0.00     0.163 C 
ATOM     14  C   UNL d   1     -40.687  14.419  21.002  0.00  0.00     0.032 C 
BRANCH  13  15
ATOM     15  C   UNL d   1     -39.449  14.426  21.720  0.00  0.00     0.319 C 
ATOM     16  O   UNL d   1     -39.245  14.892  22.372  0.00  0.00    -0.257 OA
BRANCH  15  17
ATOM     17  O   UNL d   1     -39.167  13.655  21.675  0.00  0.00    -0.294 OA
ATOM     18  C   UNL d   1     -38.683  13.358  22.273  0.00  0.00     0.185 C 
ENDBRANCH  15  17
ENDBRANCH  13  15
ENDBRANCH  12  13
ENDBRANCH   8  12
BRANCH   1  19
ATOM     19  C   UNL d   1     -38.898  14.367  17.648  0.00  0.00     0.302 C 
ATOM     20  O   UNL d   1     -38.174  14.729  17.478  0.00  0.00    -0.259 OA
BRANCH  19  21
ATOM     21  O   UNL d   1     -38.947  13.550  17.701  0.00  0.00    -0.271 OA
BRANCH  21  22
ATOM     22  C   UNL d   1     -38.274  13.089  17.578  0.00  0.00     0.126 C 
ATOM     23  C   UNL d   1     -38.311  12.273  17.687  0.00  0.00     0.029 C 
ENDBRANCH  21  22
ENDBRANCH  19  21
ENDBRANCH   1  19
TORSDOF 7
ENDMDL
MODEL 4
REMARK VINA RESULT:      -5.4      1.418      2.480
REMARK  7 active torsions:
REMARK  status: ('A' for Active; 'I' for Inactive)
REMARK    1  A    between atoms: C_6  and  C_1 
REMARK    2  A    between atoms: O_18  and  C_6 
REMARK    3  A    between atoms: C_7  and  C_11 
REMARK    4  A    between atoms: O_19  and  C_7 
REMARK    5  A    between atoms: O_10  and  C_12 
REMARK    6  A    between atoms: C_11  and  O_10 
REMARK    7  A    between atoms: C_21  and  O_18 
ROOT
ATOM      1  C   UNL d   1     -49.344  13.141  22.702  0.00  0.00     0.081 A 
ATOM      2  C   UNL d   1     -50.100  12.850  22.872  0.00  0.00     0.069 A 
ATOM      3  N   UNL d   1     -50.009  12.140  23.273  0.00  0.00    -0.304 N 
ATOM      4  C   UNL d   1     -48.795  12.613  22.997  0.00  0.00     0.025 A 
ATOM      5  C   UNL d   1     -49.206  11.993  23.350  0.00  0.00     0.064 A 
ATOM      6  C   UNL d   1     -48.796  11.372  23.698  0.00  0.00     0.020 A 
ATOM      7  C   UNL d   1     -47.974  12.611  22.992  0.00  0.00     0.026 A 
ATOM      8  C   UNL d   1     -47.560  11.981  23.345  0.00  0.00     0.100 A 
ATOM      9  C   UNL d   1     -47.967  11.367  23.694  0.00  0.00     0.026 A 
ATOM     10  C   UNL d   1     -50.814  13.207  22.676  0.00  0.00     0.019 C 
ATOM     11  C   UNL d   1     -50.626  11.658  23.550  0.00  0.00     0.099 C 
ENDROOT
BRANCH   8  12
ATOM     12  O   UNL d   1     -46.731  11.983  23.337  0.00  0.00    -0.302 OA
BRANCH  12  13
ATOM     13  C   UNL d   1     -46.329  11.264  23.357  0.00  0.00     0.163 C 
ATOM     14  C   UNL d   1     -46.748  10.551  23.391  0.00  0.00     0.032 C 
BRANCH  13  15
ATOM     15  C   UNL d   1     -45.502  11.254  23.343  0.00  0.00     0.319 C 
ATOM     16  O   UNL d   1     -45.081  11.903  23.052  0.00  0.00    -0.257 OA
BRANCH  15  17
ATOM     17  O   UNL d   1     -45.090  10.598  23.618  0.00  0.00    -0.294 OA
ATOM     18  C   UNL d   1     -44.267  10.623  23.674  0.00  0.00     0.185 C 
ENDBRANCH  15  17
ENDBRANCH  13  15
ENDBRANCH  12  13
ENDBRANCH   8  12
BRANCH   1  19
ATOM     19  C   UNL d   1     -49.174  13.845  22.303  0.00  0.00     0.302 C 
ATOM     20  O   UNL d   1     -49.232  13.870  21.479  0.00  0.00    -0.259 OA
BRANCH  19  21
ATOM     21  O   UNL d   1     -48.950  14.514  22.721  0.00  0.00    -0.271 OA
BRANCH  21  22
ATOM     22  C   UNL d   1     -48.917  15.245  22.340  0.00  0.00     0.126 C 
ATOM     23  C   UNL d   1     -48.267  15.739  22.454  0.00  0.00     0.029 C 
ENDBRANCH  21  22
ENDBRANCH  19  21
ENDBRANCH   1  19
TORSDOF 7
ENDMDL
MODEL 5
REMARK VINA RESULT:      -5.2      1.263      2.158
REMARK  7 active torsions:
REMARK  status: ('A' for Active; 'I' for Inactive)
REMARK    1  A    between atoms: C_6  and  C_1 
REMARK    2  A    between atoms: O_18  and  C_6 
REMARK    3  A    between atoms: C_7  and  C_11 
REMARK    4  A    between atoms: O_19  and  C_7 
REMARK    5  A    between atoms: O_10  and  C_12 
REMARK    6  A    between atoms: C_11  and  O_10 
REMARK    7  A    between atoms: C_21  and  O_18 
ROOT
ATOM      1  C   UNL d   1     -49.703  12.927  22.668  0.00  0.00     0.081 A 
ATOM      2  C   UNL d   1     -50.409  13.162  22.306  0.00  0.00     0.069 A 
ATOM      3  N   UNL d   1     -50.340  13.957  22.118  0.00  0.00    -0.304 N 
ATOM      4  C   UNL d   1     -49.206  13.574  22.702  0.00  0.00     0.025 A 
ATOM      5  C   UNL d   1     -49.599  14.212  22.362  0.00  0.00     0.064 A 
ATOM      6  C   UNL d   1     -49.233  14.946  22.317  0.00  0.00     0.020 A 
ATOM      7  C   UNL d   1     -48.446  13.671  22.998  0.00  0.00     0.026 A 
ATOM      8  C   UNL d   1     -48.076  14.415  22.951  0.00  0.00     0.100 A 
ATOM      9  C   UNL d   1     -48.466  15.046  22.614  0.00  0.00     0.026 A 
ATOM     10  C   UNL d   1     -51.063  12.685  22.159  0.00  0.00     0.019 C 
ATOM     11  C   UNL d   1     -50.921  14.419  21.746  0.00  0.00     0.099 C 
ENDROOT
BRANCH   8  12
ATOM     12  O   UNL d   1     -47.309  14.507  23.250  0.00  0.00    -0.302 OA
BRANCH  12  13
ATOM     13  C   UNL d   1     -46.670  14.486  22.729  0.00  0.00     0.163 C 
ATOM     14  C   UNL d   1     -46.619  15.031  22.108  0.00  0.00     0.032 C 
BRANCH  13  15
ATOM     15  C   UNL d   1     -46.078  13.918  22.827  0.00  0.00     0.319 C 
ATOM     16  O   UNL d   1     -45.857  13.668  23.584  0.00  0.00    -0.257 OA
BRANCH  15  17
ATOM     17  O   UNL d   1     -45.701  13.594  22.172  0.00  0.00    -0.294 OA
ATOM     18  C   UNL d   1     -45.020  13.138  22.272  0.00  0.00     0.185 C 
ENDBRANCH  15  17
ENDBRANCH  13  15
ENDBRANCH  12  13
ENDBRANCH   8  12
BRANCH   1  19
ATOM     19  C   UNL d   1     -49.531  12.168  22.948  0.00  0.00     0.302 C 
ATOM     20  O   UNL d   1     -49.959  11.862  23.586  0.00  0.00    -0.259 OA
BRANCH  19  21
ATOM     21  O   UNL d   1     -48.940  11.721  22.597  0.00  0.00    -0.271 OA
BRANCH  21  22
ATOM     22  C   UNL d   1     -48.597  11.095  23.010  0.00  0.00     0.126 C 
ATOM     23  C   UNL d   1     -47.912  10.739  22.721  0.00  0.00     0.029 C 
ENDBRANCH  21  22
ENDBRANCH  19  21
ENDBRANCH   1  19
TORSDOF 7
ENDMDL
MODEL 6
REMARK VINA RESULT:      -4.2      7.716      9.514
REMARK  7 active torsions:
REMARK  status: ('A' for Active; 'I' for Inactive)
REMARK    1  A    between atoms: C_6  and  C_1 
REMARK    2  A    between atoms: O_18  and  C_6 
REMARK    3  A    between atoms: C_7  and  C_11 
REMARK    4  A    between atoms: O_19  and  C_7 
REMARK    5  A    between atoms: O_10  and  C_12 
REMARK    6  A    between atoms: C_11  and  O_10 
REMARK    7  A    between atoms: C_21  and  O_18 
ROOT
ATOM      1  C   UNL d   1     -39.362  15.163  20.681  0.00  0.00     0.081 A 
ATOM      2  C   UNL d   1     -40.053  15.378  21.081  0.00  0.00     0.069 A 
ATOM      3  N   UNL d   1     -40.590  15.649  20.523  0.00  0.00    -0.304 N 
ATOM      4  C   UNL d   1     -39.474  15.300  19.884  0.00  0.00     0.025 A 
ATOM      5  C   UNL d   1     -40.234  15.600  19.786  0.00  0.00     0.064 A 
ATOM      6  C   UNL d   1     -40.507  15.793  19.035  0.00  0.00     0.020 A 
ATOM      7  C   UNL d   1     -38.988  15.192  19.231  0.00  0.00     0.026 A 
ATOM      8  C   UNL d   1     -39.266  15.388  18.472  0.00  0.00     0.100 A 
ATOM      9  C   UNL d   1     -40.019  15.685  18.375  0.00  0.00     0.026 A 
ATOM     10  C   UNL d   1     -40.180  15.331  21.893  0.00  0.00     0.019 C 
ATOM     11  C   UNL d   1     -41.358  15.922  20.682  0.00  0.00     0.099 C 
ENDROOT
BRANCH   8  12
ATOM     12  O   UNL d   1     -38.772  15.277  17.816  0.00  0.00    -0.302 OA
BRANCH  12  13
ATOM     13  C   UNL d   1     -38.948  14.678  17.278  0.00  0.00     0.163 C 
ATOM     14  C   UNL d   1     -39.327  13.987  17.531  0.00  0.00     0.032 C 
BRANCH  13  15
ATOM     15  C   UNL d   1     -38.746  14.767  16.481  0.00  0.00     0.319 C 
ATOM     16  O   UNL d   1     -38.414  15.474  16.210  0.00  0.00    -0.257 OA
BRANCH  15  17
ATOM     17  O   UNL d   1     -38.873  14.153  15.950  0.00  0.00    -0.294 OA
ATOM     18  C   UNL d   1     -38.292  13.962  15.395  0.00  0.00     0.185 C 
ENDBRANCH  15  17
ENDBRANCH  13  15
ENDBRANCH  12  13
ENDBRANCH   8  12
BRANCH   1  19
ATOM     19  C   UNL d   1     -38.675  14.860  21.028  0.00  0.00     0.302 C 
ATOM     20  O   UNL d   1     -38.109  15.380  21.333  0.00  0.00    -0.259 OA
BRANCH  19  21
ATOM     21  O   UNL d   1     -38.554  14.050  21.071  0.00  0.00    -0.271 OA
BRANCH  21  22
ATOM     22  C   UNL d   1     -37.975  13.746  21.574  0.00  0.00     0.126 C 
ATOM     23  C   UNL d   1     -37.961  12.940  21.744  0.00  0.00     0.029 C 
ENDBRANCH  21  22
ENDBRANCH  19  21
ENDBRANCH   1  19
TORSDOF 7
ENDMDL
MODEL 7
REMARK VINA RESULT:      -4.2      1.382      3.853
REMARK  7 active torsions:
REMARK  status: ('A' for Active; 'I' for Inactive)
REMARK    1  A    between atoms: C_6  and  C_1 
REMARK    2  A    between atoms: O_18  and  C_6 
REMARK    3  A    between atoms: C_7  and  C_11 
REMARK    4  A    between atoms: O_19  and  C_7 
REMARK    5  A    between atoms: O_10  and  C_12 
REMARK    6  A    between atoms: C_11  and  O_10 
REMARK    7  A    between atoms: C_21  and  O_18 
ROOT
ATOM      1  C   UNL d   1     -46.814  12.805  22.994  0.00  0.00     0.081 A 
ATOM      2  C   UNL d   1     -46.055  12.950  22.698  0.00  0.00     0.069 A 
ATOM      3  N   UNL d   1     -46.019  13.741  22.484  0.00  0.00    -0.304 N 
ATOM      4  C   UNL d   1     -47.239  13.502  22.961  0.00  0.00     0.025 A 
ATOM      5  C   UNL d   1     -46.747  14.081  22.646  0.00  0.00     0.064 A 
ATOM      6  C   UNL d   1     -47.025  14.848  22.545  0.00  0.00     0.020 A 
ATOM      7  C   UNL d   1     -48.009  13.689  23.176  0.00  0.00     0.026 A 
ATOM      8  C   UNL d   1     -48.289  14.466  23.074  0.00  0.00     0.100 A 
ATOM      9  C   UNL d   1     -47.802  15.040  22.761  0.00  0.00     0.026 A 
ATOM     10  C   UNL d   1     -45.446  12.401  22.630  0.00  0.00     0.019 C 
ATOM     11  C   UNL d   1     -45.357  14.125  22.160  0.00  0.00     0.099 C 
ENDROOT
BRANCH   8  12
ATOM     12  O   UNL d   1     -49.067  14.650  23.292  0.00  0.00    -0.302 OA
BRANCH  12  13
ATOM     13  C   UNL d   1     -49.593  14.916  22.716  0.00  0.00     0.163 C 
ATOM     14  C   UNL d   1     -49.401  15.568  22.244  0.00  0.00     0.032 C 
BRANCH  13  15
ATOM     15  C   UNL d   1     -50.315  14.529  22.607  0.00  0.00     0.319 C 
ATOM     16  O   UNL d   1     -50.815  14.387  23.250  0.00  0.00    -0.257 OA
BRANCH  15  17
ATOM     17  O   UNL d   1     -50.546  14.282  21.858  0.00  0.00    -0.294 OA
ATOM     18  C   UNL d   1     -51.064  13.645  21.776  0.00  0.00     0.185 C 
ENDBRANCH  15  17
ENDBRANCH  13  15
ENDBRANCH  12  13
ENDBRANCH   8  12
BRANCH   1  19
ATOM     19  C   UNL d   1     -47.094  12.079  23.275  0.00  0.00     0.302 C 
ATOM     20  O   UNL d   1     -46.583  11.577  23.688  0.00  0.00    -0.259 OA
BRANCH  19  21
ATOM     21  O   UNL d   1     -47.873  11.857  23.145  0.00  0.00    -0.271 OA
BRANCH  21  22
ATOM     22  C   UNL d   1     -48.244  11.337  23.666  0.00  0.00     0.126 C 
ATOM     23  C   UNL d   1     -48.964  10.992  23.458  0.00  0.00     0.029 C 
ENDBRANCH  21  22
ENDBRANCH  19  21
ENDBRANCH   1  19
TORSDOF 7
ENDMDL
