MODEL 1
REMARK VINA RESULT:      16.7      0.000      0.000
REMARK  3 active torsions:
REMARK  status: ('A' for Active; 'I' for Inactive)
REMARK    1  A    between atoms: S_7  and  C_3 
REMARK       I    between atoms: N_4  and  C_5 
REMARK    2  A    between atoms: C_5  and  C_10 
REMARK    3  A    between atoms: C_10  and  S_7 
ROOT
ATOM      1  N   UNL d   1      45.983 -14.933  44.166  0.00  0.00    -0.236 NA
ATOM      2  N   UNL d   1      44.502 -14.282  44.518  0.00  0.00    -0.242 NA
ATOM      3  C   UNL d   1      45.387 -15.419  44.468  0.00  0.00     0.129 A 
ATOM      4  C   UNL d   1      44.640 -15.090  44.645  0.00  0.00     0.105 A 
ATOM      5  C   UNL d   1      45.850 -14.136  44.040  0.00  0.00     0.100 A 
ATOM      6  C   UNL d   1      45.103 -13.807  44.217  0.00  0.00     0.099 A 
ATOM      7  C   UNL d   1      44.042 -15.557  44.943  0.00  0.00     0.023 C 
ATOM      8  C   UNL d   1      44.964 -13.004  44.091  0.00  0.00     0.021 A 
ATOM      9  C   UNL d   1      46.444 -13.655  43.740  0.00  0.00     0.021 A 
ATOM     10  C   UNL d   1      45.577 -12.526  43.786  0.00  0.00     0.002 A 
ATOM     11  C   UNL d   1      46.314 -12.850  43.611  0.00  0.00     0.002 A 
ENDROOT
BRANCH   3  12
ATOM     12  S   UNL d   1      45.534 -16.213  44.589  0.00  0.00    -0.061 SA
BRANCH  12  13
ATOM     13  C   UNL d   1      45.912 -16.655  44.019  0.00  0.00     0.098 C 
BRANCH  13  14
ATOM     14  C   UNL d   1      46.108 -17.451  44.168  0.00  0.00     0.271 C 
ATOM     15  N   UNL d   1      46.236 -17.961  43.527  0.00  0.00    -0.272 N 
ATOM     16  C   UNL d   1      46.432 -18.761  43.675  0.00  0.00     0.083 A 
ATOM     17  C   UNL d   1      46.173 -17.689  42.761  0.00  0.00     0.083 A 
ATOM     18  C   UNL d   1      46.559 -19.264  43.037  0.00  0.00     0.019 A 
ATOM     19  C   UNL d   1      46.495 -18.992  42.271  0.00  0.00     0.003 A 
ATOM     20  C   UNL d   1      46.304 -18.210  42.125  0.00  0.00     0.019 A 
ATOM     21  C   UNL d   1      46.632 -19.534  41.622  0.00  0.00     0.000 C 
ATOM     22  O   UNL d   1      46.171 -17.725  44.937  0.00  0.00    -0.266 OA
ENDBRANCH  13  14
ENDBRANCH  12  13
ENDBRANCH   3  12
TORSDOF 3
ENDMDL
MODEL 2
REMARK VINA RESULT:      19.6      0.809      1.234
REMARK  3 active torsions:
REMARK  status: ('A' for Active; 'I' for Inactive)
REMARK    1  A    between atoms: S_7  and  C_3 
REMARK       I    between atoms: N_4  and  C_5 
REMARK    2  A    between atoms: C_5  and  C_10 
REMARK    3  A    between atoms: C_10  and  S_7 
ROOT
ATOM      1  N   UNL d   1      44.777 -14.488  43.761  0.00  0.00    -0.236 NA
ATOM      2  N   UNL d   1      46.017 -13.523  44.279  0.00  0.00    -0.242 NA
ATOM      3  C   UNL d   1      45.375 -14.812  44.228  0.00  0.00     0.129 A 
ATOM      4  C   UNL d   1      46.001 -14.325  44.490  0.00  0.00     0.105 A 
ATOM      5  C   UNL d   1      44.791 -13.697  43.552  0.00  0.00     0.100 A 
ATOM      6  C   UNL d   1      45.417 -13.211  43.813  0.00  0.00     0.099 A 
ATOM      7  C   UNL d   1      46.598 -14.631  44.952  0.00  0.00     0.023 C 
ATOM      8  C   UNL d   1      45.435 -12.412  43.605  0.00  0.00     0.021 A 
ATOM      9  C   UNL d   1      44.195 -13.377  43.086  0.00  0.00     0.021 A 
ATOM     10  C   UNL d   1      44.822 -12.100  43.131  0.00  0.00     0.002 A 
ATOM     11  C   UNL d   1      44.205 -12.580  42.873  0.00  0.00     0.002 A 
ENDROOT
BRANCH   3  12
ATOM     12  S   UNL d   1      45.349 -15.603  44.430  0.00  0.00    -0.061 SA
BRANCH  12  13
ATOM     13  C   UNL d   1      45.756 -16.155  43.989  0.00  0.00     0.098 C 
BRANCH  13  14
ATOM     14  C   UNL d   1      45.732 -16.961  44.204  0.00  0.00     0.271 C 
ATOM     15  N   UNL d   1      45.962 -17.532  43.648  0.00  0.00    -0.272 N 
ATOM     16  C   UNL d   1      45.939 -18.341  43.862  0.00  0.00     0.083 A 
ATOM     17  C   UNL d   1      46.207 -17.310  42.903  0.00  0.00     0.083 A 
ATOM     18  C   UNL d   1      46.168 -18.904  43.308  0.00  0.00     0.019 A 
ATOM     19  C   UNL d   1      46.413 -18.683  42.563  0.00  0.00     0.003 A 
ATOM     20  C   UNL d   1      46.436 -17.892  42.353  0.00  0.00     0.019 A 
ATOM     21  C   UNL d   1      46.646 -19.288  42.002  0.00  0.00     0.000 C 
ATOM     22  O   UNL d   1      45.486 -17.183  44.953  0.00  0.00    -0.266 OA
ENDBRANCH  13  14
ENDBRANCH  12  13
ENDBRANCH   3  12
TORSDOF 3
ENDMDL
