MODEL 1
REMARK VINA RESULT:      -7.8      0.000      0.000
REMARK  3 active torsions:
REMARK  status: ('A' for Active; 'I' for Inactive)
REMARK    1  A    between atoms: S_12  and  C_6 
REMARK    2  A    between atoms: C_10  and  C_14 
REMARK       I    between atoms: N_11  and  C_10 
REMARK    3  A    between atoms: C_14  and  S_12 
ROOT
ATOM      1  C   UNL d   1     -50.268  13.102  23.399  0.00  0.00     0.155 A 
ATOM      2  C   UNL d   1     -49.591  13.580  23.396  0.00  0.00     0.107 A 
ATOM      3  N   UNL d   1     -49.443  11.940  23.508  0.00  0.00    -0.250 N 
ATOM      4  C   UNL d   1     -50.195  12.287  23.455  0.00  0.00     0.285 A 
ATOM      5  N   UNL d   1     -48.839  13.233  23.449  0.00  0.00    -0.220 NA
ATOM      6  C   UNL d   1     -48.776  12.415  23.504  0.00  0.00     0.182 A 
ATOM      7  N   UNL d   1     -50.928  13.592  23.341  0.00  0.00    -0.239 NA
ATOM      8  C   UNL d   1     -49.827  14.365  23.335  0.00  0.00     0.037 A 
ATOM      9  C   UNL d   1     -50.661  14.376  23.301  0.00  0.00     0.083 A 
ATOM     10  O   UNL d   1     -50.868  11.801  23.459  0.00  0.00    -0.265 OA
ATOM     11  C   UNL d   1     -49.367  11.116  23.564  0.00  0.00     0.104 C 
ATOM     12  C   UNL d   1     -49.407  15.071  23.307  0.00  0.00     0.003 A 
ATOM     13  C   UNL d   1     -51.064  15.096  23.238  0.00  0.00     0.019 A 
ATOM     14  C   UNL d   1     -49.811  15.791  23.244  0.00  0.00     0.000 A 
ATOM     15  C   UNL d   1     -50.634  15.800  23.210  0.00  0.00     0.002 A 
ENDROOT
BRANCH   6  16
ATOM     16  S   UNL d   1     -48.028  12.067  23.557  0.00  0.00    -0.044 SA
BRANCH  16  17
ATOM     17  C   UNL d   1     -47.360  12.473  23.292  0.00  0.00     0.099 C 
BRANCH  17  18
ATOM     18  C   UNL d   1     -46.626  12.101  23.289  0.00  0.00     0.271 C 
ATOM     19  N   UNL d   1     -46.008  12.437  22.871  0.00  0.00    -0.272 N 
ATOM     20  C   UNL d   1     -45.268  12.075  22.860  0.00  0.00     0.083 A 
ATOM     21  C   UNL d   1     -46.123  13.142  22.457  0.00  0.00     0.083 A 
ATOM     22  C   UNL d   1     -44.654  12.411  22.443  0.00  0.00     0.019 A 
ATOM     23  C   UNL d   1     -44.758  13.109  22.030  0.00  0.00     0.003 A 
ATOM     24  C   UNL d   1     -45.495  13.480  22.034  0.00  0.00     0.019 A 
ATOM     25  O   UNL d   1     -46.504  11.402  23.698  0.00  0.00    -0.266 OA
ENDBRANCH  17  18
ENDBRANCH  16  17
ENDBRANCH   6  16
TORSDOF 3
ENDMDL
MODEL 2
REMARK VINA RESULT:      -6.8      1.734      5.072
REMARK  3 active torsions:
REMARK  status: ('A' for Active; 'I' for Inactive)
REMARK    1  A    between atoms: S_12  and  C_6 
REMARK    2  A    between atoms: C_10  and  C_14 
REMARK       I    between atoms: N_11  and  C_10 
REMARK    3  A    between atoms: C_14  and  S_12 
ROOT
ATOM      1  C   UNL d   1     -45.502  12.870  22.751  0.00  0.00     0.155 A 
ATOM      2  C   UNL d   1     -46.171  12.491  23.059  0.00  0.00     0.107 A 
ATOM      3  N   UNL d   1     -46.263  14.068  22.582  0.00  0.00    -0.250 N 
ATOM      4  C   UNL d   1     -45.547  13.653  22.513  0.00  0.00     0.285 A 
ATOM      5  N   UNL d   1     -46.886  12.905  23.128  0.00  0.00    -0.220 NA
ATOM      6  C   UNL d   1     -46.922  13.691  22.888  0.00  0.00     0.182 A 
ATOM      7  N   UNL d   1     -44.879  12.330  22.748  0.00  0.00    -0.239 NA
ATOM      8  C   UNL d   1     -45.967  11.717  23.249  0.00  0.00     0.037 A 
ATOM      9  C   UNL d   1     -45.162  11.613  23.056  0.00  0.00     0.083 A 
ATOM     10  O   UNL d   1     -44.881  14.041  22.203  0.00  0.00    -0.265 OA
ATOM     11  C   UNL d   1     -46.310  14.860  22.343  0.00  0.00     0.104 C 
ATOM     12  C   UNL d   1     -46.395  11.092  23.568  0.00  0.00     0.003 A 
ATOM     13  C   UNL d   1     -44.794  10.883  23.185  0.00  0.00     0.019 A 
ATOM     14  C   UNL d   1     -46.027  10.362  23.698  0.00  0.00     0.000 A 
ATOM     15  C   UNL d   1     -45.232  10.261  23.507  0.00  0.00     0.002 A 
ENDROOT
BRANCH   6  16
ATOM     16  S   UNL d   1     -47.634  14.105  22.955  0.00  0.00    -0.044 SA
BRANCH  16  17
ATOM     17  C   UNL d   1     -48.333  13.784  22.657  0.00  0.00     0.099 C 
BRANCH  17  18
ATOM     18  C   UNL d   1     -49.040  14.199  22.728  0.00  0.00     0.271 C 
ATOM     19  N   UNL d   1     -49.698  13.944  22.311  0.00  0.00    -0.272 N 
ATOM     20  C   UNL d   1     -50.411  14.351  22.374  0.00  0.00     0.083 A 
ATOM     21  C   UNL d   1     -49.649  13.278  21.827  0.00  0.00     0.083 A 
ATOM     22  C   UNL d   1     -51.064  14.096  21.959  0.00  0.00     0.019 A 
ATOM     23  C   UNL d   1     -51.026  13.437  21.476  0.00  0.00     0.003 A 
ATOM     24  C   UNL d   1     -50.315  13.023  21.407  0.00  0.00     0.019 A 
ATOM     25  O   UNL d   1     -49.096  14.861  23.206  0.00  0.00    -0.266 OA
ENDBRANCH  17  18
ENDBRANCH  16  17
ENDBRANCH   6  16
TORSDOF 3
ENDMDL
MODEL 3
REMARK VINA RESULT:      -6.6      1.073      1.390
REMARK  3 active torsions:
REMARK  status: ('A' for Active; 'I' for Inactive)
REMARK    1  A    between atoms: S_12  and  C_6 
REMARK    2  A    between atoms: C_10  and  C_14 
REMARK       I    between atoms: N_11  and  C_10 
REMARK    3  A    between atoms: C_14  and  S_12 
ROOT
ATOM      1  C   UNL d   1     -48.991  12.581  23.142  0.00  0.00     0.155 A 
ATOM      2  C   UNL d   1     -48.406  13.163  23.075  0.00  0.00     0.107 A 
ATOM      3  N   UNL d   1     -47.992  11.620  23.490  0.00  0.00    -0.250 N 
ATOM      4  C   UNL d   1     -48.787  11.815  23.348  0.00  0.00     0.285 A 
ATOM      5  N   UNL d   1     -47.612  12.970  23.217  0.00  0.00    -0.220 NA
ATOM      6  C   UNL d   1     -47.415  12.198  23.423  0.00  0.00     0.182 A 
ATOM      7  N   UNL d   1     -49.719  12.929  22.972  0.00  0.00    -0.239 NA
ATOM      8  C   UNL d   1     -48.766  13.871  22.864  0.00  0.00     0.037 A 
ATOM      9  C   UNL d   1     -49.585  13.729  22.799  0.00  0.00     0.083 A 
ATOM     10  O   UNL d   1     -49.367  11.225  23.417  0.00  0.00    -0.265 OA
ATOM     11  C   UNL d   1     -47.783  10.846  23.698  0.00  0.00     0.104 C 
ATOM     12  C   UNL d   1     -48.469  14.625  22.722  0.00  0.00     0.003 A 
ATOM     13  C   UNL d   1     -50.099  14.344  22.591  0.00  0.00     0.019 A 
ATOM     14  C   UNL d   1     -48.983  15.240  22.514  0.00  0.00     0.000 A 
ATOM     15  C   UNL d   1     -49.792  15.097  22.450  0.00  0.00     0.002 A 
ENDROOT
BRANCH   6  16
ATOM     16  S   UNL d   1     -46.625  12.002  23.565  0.00  0.00    -0.044 SA
BRANCH  16  17
ATOM     17  C   UNL d   1     -46.035  12.246  23.042  0.00  0.00     0.099 C 
BRANCH  17  18
ATOM     18  C   UNL d   1     -45.279  11.926  23.094  0.00  0.00     0.271 C 
ATOM     19  N   UNL d   1     -44.709  12.151  22.552  0.00  0.00    -0.272 N 
ATOM     20  C   UNL d   1     -43.949  11.838  22.595  0.00  0.00     0.083 A 
ATOM     21  C   UNL d   1     -44.894  12.695  21.959  0.00  0.00     0.083 A 
ATOM     22  C   UNL d   1     -43.382  12.064  22.053  0.00  0.00     0.019 A 
ATOM     23  C   UNL d   1     -43.555  12.602  21.462  0.00  0.00     0.003 A 
ATOM     24  C   UNL d   1     -44.315  12.922  21.412  0.00  0.00     0.019 A 
ATOM     25  O   UNL d   1     -45.089  11.386  23.680  0.00  0.00    -0.266 OA
ENDBRANCH  17  18
ENDBRANCH  16  17
ENDBRANCH   6  16
TORSDOF 3
ENDMDL
MODEL 4
REMARK VINA RESULT:      -6.2      9.201     10.589
REMARK  3 active torsions:
REMARK  status: ('A' for Active; 'I' for Inactive)
REMARK    1  A    between atoms: S_12  and  C_6 
REMARK    2  A    between atoms: C_10  and  C_14 
REMARK       I    between atoms: N_11  and  C_10 
REMARK    3  A    between atoms: C_14  and  S_12 
ROOT
ATOM      1  C   UNL d   1     -39.850  14.871  17.872  0.00  0.00     0.155 A 
ATOM      2  C   UNL d   1     -39.384  14.341  18.306  0.00  0.00     0.107 A 
ATOM      3  N   UNL d   1     -40.406  15.373  19.089  0.00  0.00    -0.250 N 
ATOM      4  C   UNL d   1     -40.358  15.384  18.261  0.00  0.00     0.285 A 
ATOM      5  N   UNL d   1     -39.432  14.329  19.134  0.00  0.00    -0.220 NA
ATOM      6  C   UNL d   1     -39.945  14.848  19.516  0.00  0.00     0.182 A 
ATOM      7  N   UNL d   1     -39.688  14.758  17.072  0.00  0.00    -0.239 NA
ATOM      8  C   UNL d   1     -38.933  13.899  17.779  0.00  0.00     0.037 A 
ATOM      9  C   UNL d   1     -39.120  14.157  17.008  0.00  0.00     0.083 A 
ATOM     10  O   UNL d   1     -40.829  15.918  17.833  0.00  0.00    -0.265 OA
ATOM     11  C   UNL d   1     -40.919  15.890  19.484  0.00  0.00     0.104 C 
ATOM     12  C   UNL d   1     -38.380  13.300  17.887  0.00  0.00     0.003 A 
ATOM     13  C   UNL d   1     -38.751  13.812  16.353  0.00  0.00     0.019 A 
ATOM     14  C   UNL d   1     -38.010  12.955  17.232  0.00  0.00     0.000 A 
ATOM     15  C   UNL d   1     -38.196  13.212  16.471  0.00  0.00     0.002 A 
ENDROOT
BRANCH   6  16
ATOM     16  S   UNL d   1     -39.994  14.838  20.341  0.00  0.00    -0.044 SA
BRANCH  16  17
ATOM     17  C   UNL d   1     -39.436  14.427  20.787  0.00  0.00     0.099 C 
BRANCH  17  18
ATOM     18  C   UNL d   1     -39.404  14.527  21.603  0.00  0.00     0.271 C 
ATOM     19  N   UNL d   1     -38.918  14.042  22.049  0.00  0.00    -0.272 N 
ATOM     20  C   UNL d   1     -38.878  14.133  22.866  0.00  0.00     0.083 A 
ATOM     21  C   UNL d   1     -38.464  13.459  21.680  0.00  0.00     0.083 A 
ATOM     22  C   UNL d   1     -38.393  13.649  23.308  0.00  0.00     0.019 A 
ATOM     23  C   UNL d   1     -37.940  13.069  22.953  0.00  0.00     0.003 A 
ATOM     24  C   UNL d   1     -37.973  12.970  22.134  0.00  0.00     0.019 A 
ATOM     25  O   UNL d   1     -39.852  15.103  21.975  0.00  0.00    -0.266 OA
ENDBRANCH  17  18
ENDBRANCH  16  17
ENDBRANCH   6  16
TORSDOF 3
ENDMDL
MODEL 5
REMARK VINA RESULT:      -4.9      1.534      1.995
REMARK  3 active torsions:
REMARK  status: ('A' for Active; 'I' for Inactive)
REMARK    1  A    between atoms: S_12  and  C_6 
REMARK    2  A    between atoms: C_10  and  C_14 
REMARK       I    between atoms: N_11  and  C_10 
REMARK    3  A    between atoms: C_14  and  S_12 
ROOT
ATOM      1  C   UNL d   1     -48.749  13.210  22.790  0.00  0.00     0.155 A 
ATOM      2  C   UNL d   1     -47.949  13.378  22.926  0.00  0.00     0.107 A 
ATOM      3  N   UNL d   1     -48.532  11.859  23.206  0.00  0.00    -0.250 N 
ATOM      4  C   UNL d   1     -49.039  12.455  22.929  0.00  0.00     0.285 A 
ATOM      5  N   UNL d   1     -47.442  12.783  23.204  0.00  0.00    -0.220 NA
ATOM      6  C   UNL d   1     -47.742  12.029  23.340  0.00  0.00     0.182 A 
ATOM      7  N   UNL d   1     -49.113  13.897  22.520  0.00  0.00    -0.239 NA
ATOM      8  C   UNL d   1     -47.815  14.168  22.742  0.00  0.00     0.037 A 
ATOM      9  C   UNL d   1     -48.539  14.495  22.488  0.00  0.00     0.083 A 
ATOM     10  O   UNL d   1     -49.839  12.278  22.795  0.00  0.00    -0.265 OA
ATOM     11  C   UNL d   1     -48.823  11.097  23.347  0.00  0.00     0.104 C 
ATOM     12  C   UNL d   1     -47.141  14.638  22.768  0.00  0.00     0.003 A 
ATOM     13  C   UNL d   1     -48.580  15.290  22.263  0.00  0.00     0.019 A 
ATOM     14  C   UNL d   1     -47.181  15.433  22.543  0.00  0.00     0.000 A 
ATOM     15  C   UNL d   1     -47.897  15.755  22.292  0.00  0.00     0.002 A 
ENDROOT
BRANCH   6  16
ATOM     16  S   UNL d   1     -47.238  11.435  23.616  0.00  0.00    -0.044 SA
BRANCH  16  17
ATOM     17  C   UNL d   1     -46.462  11.386  23.343  0.00  0.00     0.099 C 
BRANCH  17  18
ATOM     18  C   UNL d   1     -46.022  10.702  23.468  0.00  0.00     0.271 C 
ATOM     19  N   UNL d   1     -45.211  10.720  23.359  0.00  0.00    -0.272 N 
ATOM     20  C   UNL d   1     -44.761  10.041  23.481  0.00  0.00     0.083 A 
ATOM     21  C   UNL d   1     -44.840  11.420  23.127  0.00  0.00     0.083 A 
ATOM     22  C   UNL d   1     -43.953  10.062  23.372  0.00  0.00     0.019 A 
ATOM     23  C   UNL d   1     -43.576  10.750  23.142  0.00  0.00     0.003 A 
ATOM     24  C   UNL d   1     -44.019  11.435  23.018  0.00  0.00     0.019 A 
ATOM     25  O   UNL d   1     -46.384  10.004  23.698  0.00  0.00    -0.266 OA
ENDBRANCH  17  18
ENDBRANCH  16  17
ENDBRANCH   6  16
TORSDOF 3
ENDMDL
