MODEL 1
REMARK VINA RESULT:      39.6      0.000      0.000
REMARK  4 active torsions:
REMARK  status: ('A' for Active; 'I' for Inactive)
REMARK    1  A    between atoms: C_11  and  C_3 
REMARK    2  A    between atoms: C_10  and  N_5 
REMARK    3  A    between atoms: O_17  and  C_11 
REMARK    4  A    between atoms: C_22  and  O_17 
ROOT
ATOM      1  C   UNL d   1     -50.528  24.483  33.500  0.00  0.00     0.086 A 
ATOM      2  C   UNL d   1     -51.215  24.038  33.602  0.00  0.00     0.038 A 
ATOM      3  C   UNL d   1     -51.955  24.401  33.664  0.00  0.00     0.165 A 
ATOM      4  C   UNL d   1     -50.590  25.305  33.459  0.00  0.00     0.282 A 
ATOM      5  N   UNL d   1     -51.312  25.671  33.519  0.00  0.00    -0.194 N 
ATOM      6  N   UNL d   1     -51.995  25.219  33.621  0.00  0.00    -0.157 NA
ATOM      7  C   UNL d   1     -49.887  23.962  33.458  0.00  0.00     0.137 A 
ATOM      8  C   UNL d   1     -50.998  23.236  33.624  0.00  0.00     0.039 A 
ATOM      9  S   UNL d   1     -50.179  23.195  33.535  0.00  0.00    -0.066 SA
ATOM     10  O   UNL d   1     -49.908  25.757  33.357  0.00  0.00    -0.265 OA
ATOM     11  N   UNL d   1     -49.103  24.177  33.358  0.00  0.00    -0.141 N 
ENDROOT
BRANCH   5  12
ATOM     12  C   UNL d   1     -51.367  26.499  33.477  0.00  0.00     0.087 A 
ATOM     13  C   UNL d   1     -50.695  26.955  33.557  0.00  0.00     0.031 A 
ATOM     14  C   UNL d   1     -50.732  27.770  33.519  0.00  0.00     0.059 A 
ATOM     15 CL   UNL d   1     -50.053  28.231  33.599  0.00  0.00    -0.082 Cl
ATOM     16  C   UNL d   1     -51.470  28.140  33.396  0.00  0.00     0.011 A 
ATOM     17  C   UNL d   1     -52.149  27.680  33.316  0.00  0.00     0.002 A 
ATOM     18  C   UNL d   1     -52.098  26.859  33.356  0.00  0.00     0.019 A 
ENDBRANCH   5  12
BRANCH   3  19
ATOM     19  C   UNL d   1     -52.638  23.949  33.766  0.00  0.00     0.320 C 
ATOM     20  O   UNL d   1     -52.587  23.192  34.085  0.00  0.00    -0.257 OA
BRANCH  19  21
ATOM     21  O   UNL d   1     -53.375  24.260  33.546  0.00  0.00    -0.270 OA
BRANCH  21  22
ATOM     22  C   UNL d   1     -54.068  23.865  33.748  0.00  0.00     0.126 C 
ATOM     23  C   UNL d   1     -54.765  24.009  33.327  0.00  0.00     0.029 C 
ENDBRANCH  21  22
ENDBRANCH  19  21
ENDBRANCH   3  19
TORSDOF 4
ENDMDL
