MODEL 1
REMARK VINA RESULT:      -3.8      0.000      0.000
REMARK  5 active torsions:
REMARK  status: ('A' for Active; 'I' for Inactive)
REMARK    1  A    between atoms: C_5  and  N_1 
REMARK    2  A    between atoms: C_2  and  C_7 
REMARK    3  A    between atoms: C_9  and  C_2 
REMARK    4  A    between atoms: C_3  and  C_4 
REMARK    5  A    between atoms: C_7  and  C_8 
ROOT
ATOM      1  C   UNL d   1      56.340  -0.186  33.265  0.00  0.00     0.100 C 
ATOM      2  C   UNL d   1      56.126  -0.935  32.988  0.00  0.00     0.103 C 
ATOM      3  N   UNL d   1      55.911  -1.685  32.711  0.00  0.00    -0.191 NA
ENDROOT
BRANCH   1   4
ATOM      4  C   UNL d   1      57.112   0.084  33.173  0.00  0.00     0.037 C 
BRANCH   4   5
ATOM      5  C   UNL d   1      57.402   0.254  32.420  0.00  0.00     0.101 A 
ATOM      6  O   UNL d   1      58.162   0.097  32.143  0.00  0.00    -0.307 OA
ATOM      7  C   UNL d   1      58.200   0.361  31.365  0.00  0.00     0.102 A 
ATOM      8  C   UNL d   1      57.467   0.681  31.159  0.00  0.00     0.027 A 
ATOM      9  C   UNL d   1      56.974   0.619  31.800  0.00  0.00     0.027 A 
BRANCH   7  10
ATOM     10  C   UNL d   1      58.860   0.313  30.876  0.00  0.00     0.045 A 
ATOM     11  C   UNL d   1      58.802  -0.045  30.133  0.00  0.00     0.129 A 
ATOM     12  C   UNL d   1      59.459  -0.095  29.641  0.00  0.00     0.024 A 
ATOM     13  C   UNL d   1      60.185   0.217  29.891  0.00  0.00     0.002 A 
ATOM     14  C   UNL d   1      60.251   0.576  30.630  0.00  0.00     0.000 A 
ATOM     15  C   UNL d   1      60.844   0.169  29.402  0.00  0.00     0.000 C 
ATOM     16  C   UNL d   1      59.586   0.625  31.125  0.00  0.00     0.004 A 
BRANCH  11  17
ATOM     17  N   UNL d   1      58.079  -0.355  29.885  0.00  0.00    -0.114 N 
ATOM     18  O   UNL d   1      57.536   0.120  29.487  0.00  0.00    -0.532 OA
ATOM     19  O   UNL d   1      57.889  -1.147  30.031  0.00  0.00    -0.532 OA
ENDBRANCH  11  17
ENDBRANCH   7  10
ENDBRANCH   4   5
ENDBRANCH   1   4
BRANCH   1  20
ATOM     20  C   UNL d   1      55.778   0.292  33.633  0.00  0.00     0.167 C 
ATOM     21  S   UNL d   1      55.949   0.642  34.363  0.00  0.00    -0.055 SA
ATOM     22  N   UNL d   1      55.049   0.420  33.279  0.00  0.00    -0.136 N 
ENDBRANCH   1  20
TORSDOF 5
ENDMDL
MODEL 2
REMARK VINA RESULT:      -3.4      1.376      1.831
REMARK  5 active torsions:
REMARK  status: ('A' for Active; 'I' for Inactive)
REMARK    1  A    between atoms: C_5  and  N_1 
REMARK    2  A    between atoms: C_2  and  C_7 
REMARK    3  A    between atoms: C_9  and  C_2 
REMARK    4  A    between atoms: C_3  and  C_4 
REMARK    5  A    between atoms: C_7  and  C_8 
ROOT
ATOM      1  C   UNL d   1      56.252   0.038  32.921  0.00  0.00     0.100 C 
ATOM      2  C   UNL d   1      56.892   0.306  33.371  0.00  0.00     0.103 C 
ATOM      3  N   UNL d   1      57.533   0.575  33.822  0.00  0.00    -0.191 NA
ENDROOT
BRANCH   1   4
ATOM      4  C   UNL d   1      56.224   0.187  32.113  0.00  0.00     0.037 C 
BRANCH   4   5
ATOM      5  C   UNL d   1      56.895   0.067  31.648  0.00  0.00     0.101 A 
ATOM      6  O   UNL d   1      57.007  -0.539  31.100  0.00  0.00    -0.307 OA
ATOM      7  C   UNL d   1      57.754  -0.438  30.771  0.00  0.00     0.102 A 
ATOM      8  C   UNL d   1      58.105   0.227  31.113  0.00  0.00     0.027 A 
ATOM      9  C   UNL d   1      57.585   0.541  31.650  0.00  0.00     0.027 A 
BRANCH   7  10
ATOM     10  C   UNL d   1      58.093  -0.921  30.197  0.00  0.00     0.045 A 
ATOM     11  C   UNL d   1      58.418  -0.589  29.514  0.00  0.00     0.129 A 
ATOM     12  C   UNL d   1      58.758  -1.068  28.938  0.00  0.00     0.024 A 
ATOM     13  C   UNL d   1      58.775  -1.889  29.044  0.00  0.00     0.002 A 
ATOM     14  C   UNL d   1      58.454  -2.228  29.723  0.00  0.00     0.000 A 
ATOM     15  C   UNL d   1      59.114  -2.372  28.471  0.00  0.00     0.000 C 
ATOM     16  C   UNL d   1      58.111  -1.742  30.303  0.00  0.00     0.004 A 
BRANCH  11  17
ATOM     17  N   UNL d   1      58.400   0.230  29.409  0.00  0.00    -0.114 N 
ATOM     18  O   UNL d   1      57.701   0.607  29.194  0.00  0.00    -0.532 OA
ATOM     19  O   UNL d   1      59.084   0.681  29.518  0.00  0.00    -0.532 OA
ENDBRANCH  11  17
ENDBRANCH   7  10
ENDBRANCH   4   5
ENDBRANCH   1   4
BRANCH   1  20
ATOM     20  C   UNL d   1      55.641  -0.379  33.285  0.00  0.00     0.167 C 
ATOM     21  S   UNL d   1      55.021   0.031  33.648  0.00  0.00    -0.055 SA
ATOM     22  N   UNL d   1      55.647  -1.199  33.288  0.00  0.00    -0.136 N 
ENDBRANCH   1  20
TORSDOF 5
ENDMDL
MODEL 3
REMARK VINA RESULT:      -2.8      2.081      4.094
REMARK  5 active torsions:
REMARK  status: ('A' for Active; 'I' for Inactive)
REMARK    1  A    between atoms: C_5  and  N_1 
REMARK    2  A    between atoms: C_2  and  C_7 
REMARK    3  A    between atoms: C_9  and  C_2 
REMARK    4  A    between atoms: C_3  and  C_4 
REMARK    5  A    between atoms: C_7  and  C_8 
ROOT
ATOM      1  C   UNL d   1      59.298  -1.239  29.187  0.00  0.00     0.100 C 
ATOM      2  C   UNL d   1      59.864  -0.682  28.958  0.00  0.00     0.103 C 
ATOM      3  N   UNL d   1      60.431  -0.123  28.729  0.00  0.00    -0.191 NA
ENDROOT
BRANCH   1   4
ATOM      4  C   UNL d   1      58.508  -1.021  29.259  0.00  0.00     0.037 C 
BRANCH   4   5
ATOM      5  C   UNL d   1      58.285  -0.461  29.821  0.00  0.00     0.101 A 
ATOM      6  O   UNL d   1      58.261  -0.571  30.638  0.00  0.00    -0.307 OA
ATOM      7  C   UNL d   1      58.008   0.135  30.974  0.00  0.00     0.102 A 
ATOM      8  C   UNL d   1      57.873   0.682  30.370  0.00  0.00     0.027 A 
ATOM      9  C   UNL d   1      58.041   0.324  29.662  0.00  0.00     0.027 A 
BRANCH   7  10
ATOM     10  C   UNL d   1      57.905   0.271  31.780  0.00  0.00     0.045 A 
ATOM     11  C   UNL d   1      57.168   0.144  32.133  0.00  0.00     0.129 A 
ATOM     12  C   UNL d   1      57.062   0.279  32.936  0.00  0.00     0.024 A 
ATOM     13  C   UNL d   1      57.697   0.545  33.397  0.00  0.00     0.002 A 
ATOM     14  C   UNL d   1      58.435   0.676  33.053  0.00  0.00     0.000 A 
ATOM     15  C   UNL d   1      57.595   0.682  34.201  0.00  0.00     0.000 C 
ATOM     16  C   UNL d   1      58.540   0.538  32.240  0.00  0.00     0.004 A 
BRANCH  11  17
ATOM     17  N   UNL d   1      56.536  -0.122  31.673  0.00  0.00    -0.114 N 
ATOM     18  O   UNL d   1      56.102   0.407  31.216  0.00  0.00    -0.532 OA
ATOM     19  O   UNL d   1      56.329  -0.923  31.667  0.00  0.00    -0.532 OA
ENDBRANCH  11  17
ENDBRANCH   7  10
ENDBRANCH   4   5
ENDBRANCH   1   4
BRANCH   1  20
ATOM     20  C   UNL d   1      59.527  -2.016  29.343  0.00  0.00     0.167 C 
ATOM     21  S   UNL d   1      59.162  -2.642  28.943  0.00  0.00    -0.055 SA
ATOM     22  N   UNL d   1      60.115  -2.169  29.893  0.00  0.00    -0.136 N 
ENDBRANCH   1  20
TORSDOF 5
ENDMDL
MODEL 4
REMARK VINA RESULT:      -2.1      1.999      4.455
REMARK  5 active torsions:
REMARK  status: ('A' for Active; 'I' for Inactive)
REMARK    1  A    between atoms: C_5  and  N_1 
REMARK    2  A    between atoms: C_2  and  C_7 
REMARK    3  A    between atoms: C_9  and  C_2 
REMARK    4  A    between atoms: C_3  and  C_4 
REMARK    5  A    between atoms: C_7  and  C_8 
ROOT
ATOM      1  C   UNL d   1      58.369  -0.829  29.512  0.00  0.00     0.100 C 
ATOM      2  C   UNL d   1      58.427  -0.078  29.171  0.00  0.00     0.103 C 
ATOM      3  N   UNL d   1      58.486   0.674  28.830  0.00  0.00    -0.191 NA
ENDROOT
BRANCH   1   4
ATOM      4  C   UNL d   1      57.695  -1.041  29.934  0.00  0.00     0.037 C 
BRANCH   4   5
ATOM      5  C   UNL d   1      57.503  -0.643  30.630  0.00  0.00     0.101 A 
ATOM      6  O   UNL d   1      56.811  -0.732  31.069  0.00  0.00    -0.307 OA
ATOM      7  C   UNL d   1      56.862  -0.227  31.715  0.00  0.00     0.102 A 
ATOM      8  C   UNL d   1      57.582   0.175  31.679  0.00  0.00     0.027 A 
ATOM      9  C   UNL d   1      57.980  -0.074  31.018  0.00  0.00     0.027 A 
BRANCH   7  10
ATOM     10  C   UNL d   1      56.289  -0.138  32.300  0.00  0.00     0.045 A 
ATOM     11  C   UNL d   1      56.083  -0.778  32.781  0.00  0.00     0.129 A 
ATOM     12  C   UNL d   1      55.512  -0.693  33.366  0.00  0.00     0.024 A 
ATOM     13  C   UNL d   1      55.139   0.039  33.474  0.00  0.00     0.002 A 
ATOM     14  C   UNL d   1      55.338   0.682  32.998  0.00  0.00     0.000 A 
ATOM     15  C   UNL d   1      54.567   0.128  34.057  0.00  0.00     0.000 C 
ATOM     16  C   UNL d   1      55.916   0.594  32.407  0.00  0.00     0.004 A 
BRANCH  11  17
ATOM     17  N   UNL d   1      56.455  -1.507  32.673  0.00  0.00    -0.114 N 
ATOM     18  O   UNL d   1      56.117  -2.079  32.187  0.00  0.00    -0.532 OA
ATOM     19  O   UNL d   1      57.172  -1.672  33.051  0.00  0.00    -0.532 OA
ENDBRANCH  11  17
ENDBRANCH   7  10
ENDBRANCH   4   5
ENDBRANCH   1   4
BRANCH   1  20
ATOM     20  C   UNL d   1      58.988  -1.367  29.427  0.00  0.00     0.167 C 
ATOM     21  S   UNL d   1      58.833  -2.137  29.169  0.00  0.00    -0.055 SA
ATOM     22  N   UNL d   1      59.757  -1.140  29.599  0.00  0.00    -0.136 N 
ENDBRANCH   1  20
TORSDOF 5
ENDMDL
MODEL 5
REMARK VINA RESULT:      -1.1      2.815      4.614
REMARK  5 active torsions:
REMARK  status: ('A' for Active; 'I' for Inactive)
REMARK    1  A    between atoms: C_5  and  N_1 
REMARK    2  A    between atoms: C_2  and  C_7 
REMARK    3  A    between atoms: C_9  and  C_2 
REMARK    4  A    between atoms: C_3  and  C_4 
REMARK    5  A    between atoms: C_7  and  C_8 
ROOT
ATOM      1  C   UNL d   1      59.100  -3.357  28.644  0.00  0.00     0.100 C 
ATOM      2  C   UNL d   1      59.884  -3.189  28.847  0.00  0.00     0.103 C 
ATOM      3  N   UNL d   1      60.668  -3.021  29.051  0.00  0.00    -0.191 NA
ENDROOT
BRANCH   1   4
ATOM      4  C   UNL d   1      58.570  -2.745  28.499  0.00  0.00     0.037 C 
BRANCH   4   5
ATOM      5  C   UNL d   1      58.556  -2.085  28.994  0.00  0.00     0.101 A 
ATOM      6  O   UNL d   1      57.982  -1.909  29.558  0.00  0.00    -0.307 OA
ATOM      7  C   UNL d   1      58.196  -1.202  29.917  0.00  0.00     0.102 A 
ATOM      8  C   UNL d   1      58.901  -0.937  29.577  0.00  0.00     0.027 A 
ATOM      9  C   UNL d   1      59.127  -1.473  29.012  0.00  0.00     0.027 A 
BRANCH   7  10
ATOM     10  C   UNL d   1      57.777  -0.821  30.514  0.00  0.00     0.045 A 
ATOM     11  C   UNL d   1      57.763   0.004  30.552  0.00  0.00     0.129 A 
ATOM     12  C   UNL d   1      57.345   0.388  31.147  0.00  0.00     0.024 A 
ATOM     13  C   UNL d   1      56.935  -0.056  31.714  0.00  0.00     0.002 A 
ATOM     14  C   UNL d   1      56.943  -0.879  31.683  0.00  0.00     0.000 A 
ATOM     15  C   UNL d   1      56.516   0.324  32.310  0.00  0.00     0.000 C 
ATOM     16  C   UNL d   1      57.366  -1.265  31.080  0.00  0.00     0.004 A 
BRANCH  11  17
ATOM     17  N   UNL d   1      58.173   0.446  29.988  0.00  0.00    -0.114 N 
ATOM     18  O   UNL d   1      57.807   0.663  29.283  0.00  0.00    -0.532 OA
ATOM     19  O   UNL d   1      58.955   0.677  30.123  0.00  0.00    -0.532 OA
ENDBRANCH  11  17
ENDBRANCH   7  10
ENDBRANCH   4   5
ENDBRANCH   1   4
BRANCH   1  20
ATOM     20  C   UNL d   1      58.849  -4.140  28.587  0.00  0.00     0.167 C 
ATOM     21  S   UNL d   1      58.051  -4.310  28.455  0.00  0.00    -0.055 SA
ATOM     22  N   UNL d   1      59.390  -4.752  28.661  0.00  0.00    -0.136 N 
ENDBRANCH   1  20
TORSDOF 5
ENDMDL
