MODEL 1
REMARK VINA RESULT:      50.7      0.000      0.000
REMARK  3 active torsions:
REMARK  status: ('A' for Active; 'I' for Inactive)
REMARK    1  A    between atoms: C_7  and  N_1 
REMARK    2  A    between atoms: C_11  and  C_4 
REMARK    3  A    between atoms: C_9  and  C_7 
ROOT
ATOM      1  N   UNL d   1     -58.560 -98.855 -44.113  0.00  0.00    -0.252 N 
ATOM      2  C   UNL d   1     -59.411 -98.873 -44.168  0.00  0.00     0.354 A 
ATOM      3  C   UNL d   1     -58.519 -98.820 -45.550  0.00  0.00     0.035 A 
ATOM      4  C   UNL d   1     -58.122 -98.828 -44.810  0.00  0.00     0.070 A 
ATOM      5  N   UNL d   1     -59.776 -98.864 -44.911  0.00  0.00    -0.192 NA
ATOM      6  C   UNL d   1     -59.338 -98.837 -45.609  0.00  0.00     0.087 A 
ATOM      7  C   UNL d   1     -58.050 -98.793 -46.226  0.00  0.00     0.010 A 
ATOM      8  O   UNL d   1     -59.880 -98.899 -43.492  0.00  0.00    -0.244 OA
ATOM      9  C   UNL d   1     -59.705 -98.829 -46.312  0.00  0.00     0.020 A 
ATOM     10  C   UNL d   1     -58.407 -98.784 -46.973  0.00  0.00     0.035 A 
ATOM     11  C   UNL d   1     -59.274 -98.803 -47.014  0.00  0.00     0.008 A 
ATOM     12 BR   UNL d   1     -57.924 -98.756 -47.670  0.00  0.00    -0.049 Br
ENDROOT
BRANCH   4  13
ATOM     13  C   UNL d   1     -57.337 -98.811 -44.796  0.00  0.00     0.016 A 
ATOM     14  C   UNL d   1     -56.941 -98.819 -44.078  0.00  0.00     0.001 A 
ATOM     15  C   UNL d   1     -56.113 -98.801 -44.048  0.00  0.00     0.000 A 
ATOM     16  C   UNL d   1     -55.672 -98.773 -44.758  0.00  0.00     0.000 A 
ATOM     17  C   UNL d   1     -56.063 -98.765 -45.484  0.00  0.00     0.000 A 
ATOM     18  C   UNL d   1     -56.861 -98.783 -45.507  0.00  0.00     0.001 A 
ENDBRANCH   4  13
BRANCH   1  19
ATOM     19  C   UNL d   1     -58.158 -98.863 -43.379  0.00  0.00     0.155 C 
BRANCH  19  20
ATOM     20  C   UNL d   1     -58.598 -98.856 -42.679  0.00  0.00     0.230 C 
ATOM     21  O   UNL d   1     -58.193 -98.822 -41.938  0.00  0.00    -0.643 OA
ATOM     22  O   UNL d   1     -59.416 -98.884 -42.727  0.00  0.00    -0.643 OA
ENDBRANCH  19  20
ENDBRANCH   1  19
TORSDOF 3
ENDMDL
