MODEL 1
REMARK VINA RESULT:      63.2      0.000      0.000
REMARK  5 active torsions:
REMARK  status: ('A' for Active; 'I' for Inactive)
REMARK    1  A    between atoms: C_2  and  C_1 
REMARK    2  A    between atoms: C_16  and  C_8 
REMARK    3  A    between atoms: N_15  and  C_13 
REMARK    4  A    between atoms: C_19  and  N_15 
REMARK    5  A    between atoms: C_20  and  N_15 
ROOT
ATOM      1  C   UNL d   1      13.859  15.869  -5.228  0.00  0.00     0.106 A 
ATOM      2  C   UNL d   1      14.476  16.185  -4.787  0.00  0.00     0.304 A 
ATOM      3  C   UNL d   1      13.426  16.364  -5.737  0.00  0.00     0.011 A 
ATOM      4  O   UNL d   1      14.683  17.009  -4.838  0.00  0.00    -0.273 OA
ATOM      5  C   UNL d   1      14.224  17.480  -5.362  0.00  0.00     0.105 A 
ATOM      6  C   UNL d   1      13.607  17.164  -5.803  0.00  0.00     0.023 A 
ATOM      7  C   UNL d   1      14.432  18.303  -5.413  0.00  0.00     0.042 A 
ATOM      8  C   UNL d   1      13.972  18.779  -5.939  0.00  0.00     0.066 A 
ATOM      9  O   UNL d   1      14.921  15.670  -4.262  0.00  0.00    -0.259 OA
ATOM     10  C   UNL d   1      13.174  17.659  -6.312  0.00  0.00     0.004 A 
ATOM     11  C   UNL d   1      13.354  18.463  -6.381  0.00  0.00     0.018 A 
ENDROOT
BRANCH   1  12
ATOM     12  C   UNL d   1      13.680  15.060  -5.157  0.00  0.00     0.210 A 
ATOM     13  O   UNL d   1      13.611  14.597  -4.470  0.00  0.00    -0.268 OA
ATOM     14  C   UNL d   1      13.425  13.831  -4.712  0.00  0.00     0.204 A 
ATOM     15  N   UNL d   1      13.378  13.814  -5.532  0.00  0.00    -0.121 NA
ATOM     16  N   UNL d   1      13.534  14.572  -5.817  0.00  0.00    -0.121 NA
BRANCH  14  17
ATOM     17  C   UNL d   1      13.294  13.149  -4.273  0.00  0.00     0.043 A 
ATOM     18  C   UNL d   1      13.057  12.458  -4.649  0.00  0.00     0.004 A 
ATOM     19  C   UNL d   1      12.928  11.779  -4.205  0.00  0.00     0.000 A 
ATOM     20  C   UNL d   1      13.031  11.779  -3.383  0.00  0.00     0.000 A 
ATOM     21  C   UNL d   1      13.267  12.468  -3.012  0.00  0.00     0.000 A 
ATOM     22  C   UNL d   1      13.398  13.156  -3.461  0.00  0.00     0.004 A 
ENDBRANCH  14  17
ENDBRANCH   1  12
BRANCH   8  23
ATOM     23  N   UNL d   1      14.150  19.635  -6.024  0.00  0.00    -0.304 N 
BRANCH  23  24
ATOM     24  C   UNL d   1      13.504  20.163  -6.119  0.00  0.00     0.080 C 
ATOM     25  C   UNL d   1      13.125  20.514  -5.481  0.00  0.00     0.021 C 
ENDBRANCH  23  24
BRANCH  23  26
ATOM     26  C   UNL d   1      14.927  19.905  -6.009  0.00  0.00     0.080 C 
ATOM     27  C   UNL d   1      15.108  20.629  -5.634  0.00  0.00     0.021 C 
ENDBRANCH  23  26
ENDBRANCH   8  23
TORSDOF 5
ENDMDL
MODEL 2
REMARK VINA RESULT:      65.4      2.392      5.952
REMARK  5 active torsions:
REMARK  status: ('A' for Active; 'I' for Inactive)
REMARK    1  A    between atoms: C_2  and  C_1 
REMARK    2  A    between atoms: C_16  and  C_8 
REMARK    3  A    between atoms: N_15  and  C_13 
REMARK    4  A    between atoms: C_19  and  N_15 
REMARK    5  A    between atoms: C_20  and  N_15 
ROOT
ATOM      1  C   UNL d   1      14.916  16.673  -3.688  0.00  0.00     0.106 A 
ATOM      2  C   UNL d   1      14.740  15.916  -3.954  0.00  0.00     0.304 A 
ATOM      3  C   UNL d   1      15.028  16.804  -2.874  0.00  0.00     0.011 A 
ATOM      4  O   UNL d   1      14.668  15.261  -3.416  0.00  0.00    -0.273 OA
ATOM      5  C   UNL d   1      14.788  15.429  -2.600  0.00  0.00     0.105 A 
ATOM      6  C   UNL d   1      14.964  16.187  -2.334  0.00  0.00     0.023 A 
ATOM      7  C   UNL d   1      14.716  14.774  -2.062  0.00  0.00     0.042 A 
ATOM      8  C   UNL d   1      14.836  14.942  -1.242  0.00  0.00     0.066 A 
ATOM      9  O   UNL d   1      14.625  15.784  -4.795  0.00  0.00    -0.259 OA
ATOM     10  C   UNL d   1      15.076  16.318  -1.520  0.00  0.00     0.004 A 
ATOM     11  C   UNL d   1      15.012  15.699  -0.976  0.00  0.00     0.018 A 
ENDROOT
BRANCH   1  12
ATOM     12  C   UNL d   1      14.980  17.294  -4.238  0.00  0.00     0.210 A 
ATOM     13  O   UNL d   1      14.389  17.808  -4.518  0.00  0.00    -0.268 OA
ATOM     14  C   UNL d   1      14.749  18.320  -5.055  0.00  0.00     0.204 A 
ATOM     15  N   UNL d   1      15.546  18.131  -5.110  0.00  0.00    -0.121 NA
ATOM     16  N   UNL d   1      15.699  17.496  -4.607  0.00  0.00    -0.121 NA
BRANCH  14  17
ATOM     17  C   UNL d   1      14.435  18.936  -5.497  0.00  0.00     0.043 A 
ATOM     18  C   UNL d   1      13.738  18.825  -5.920  0.00  0.00     0.004 A 
ATOM     19  C   UNL d   1      13.429  19.445  -6.361  0.00  0.00     0.000 A 
ATOM     20  C   UNL d   1      13.806  20.182  -6.388  0.00  0.00     0.000 A 
ATOM     21  C   UNL d   1      14.498  20.289  -5.967  0.00  0.00     0.000 A 
ATOM     22  C   UNL d   1      14.812  19.662  -5.520  0.00  0.00     0.004 A 
ENDBRANCH  14  17
ENDBRANCH   1  12
BRANCH   8  23
ATOM     23  N   UNL d   1      14.772  14.295  -0.650  0.00  0.00    -0.304 N 
BRANCH  23  24
ATOM     24  C   UNL d   1      14.165  13.724  -0.757  0.00  0.00     0.080 C 
ATOM     25  C   UNL d   1      14.324  12.922  -0.829  0.00  0.00     0.021 C 
ENDBRANCH  23  24
BRANCH  23  26
ATOM     26  C   UNL d   1      15.292  14.256  -0.014  0.00  0.00     0.080 C 
ATOM     27  C   UNL d   1      15.906  13.689  -0.015  0.00  0.00     0.021 C 
ENDBRANCH  23  26
ENDBRANCH   8  23
TORSDOF 5
ENDMDL
