MODEL 1
REMARK VINA RESULT:      -8.1      0.000      0.000
REMARK  5 active torsions:
REMARK  status: ('A' for Active; 'I' for Inactive)
REMARK    1  A    between atoms: C_11  and  N_5 
REMARK    2  A    between atoms: C_15  and  C_8 
REMARK    3  A    between atoms: C_12  and  C_11 
REMARK    4  A    between atoms: O_20  and  C_15 
REMARK    5  A    between atoms: C_23  and  O_20 
ROOT
ATOM      1  C   UNL d   1      53.060  32.360  53.323  0.00  0.00     0.130 A 
ATOM      2  C   UNL d   1      52.290  32.100  53.206  0.00  0.00     0.157 A 
ATOM      3  C   UNL d   1      53.230  33.170  53.307  0.00  0.00     0.272 A 
ATOM      4  N   UNL d   1      51.689  32.644  53.073  0.00  0.00    -0.208 NA
ATOM      5  N   UNL d   1      52.629  33.714  53.174  0.00  0.00    -0.254 N 
ATOM      6  C   UNL d   1      53.668  31.815  53.457  0.00  0.00     0.204 A 
ATOM      7  N   UNL d   1      52.118  31.286  53.221  0.00  0.00    -0.289 N 
ATOM      8  C   UNL d   1      51.859  33.454  53.057  0.00  0.00     0.177 A 
ATOM      9  C   UNL d   1      53.497  31.001  53.472  0.00  0.00     0.055 A 
ATOM     10  C   UNL d   1      52.719  30.742  53.354  0.00  0.00     0.069 A 
ATOM     11  O   UNL d   1      54.014  33.441  53.426  0.00  0.00    -0.266 OA
ATOM     12  O   UNL d   1      54.443  32.079  53.575  0.00  0.00    -0.286 OA
ATOM     13  C   UNL d   1      51.343  31.023  53.103  0.00  0.00     0.101 C 
ATOM     14  C   UNL d   1      54.101  30.456  53.606  0.00  0.00     0.005 A 
ATOM     15  C   UNL d   1      52.550  29.937  53.369  0.00  0.00     0.018 A 
ATOM     16  C   UNL d   1      53.932  29.651  53.621  0.00  0.00     0.000 A 
ATOM     17  C   UNL d   1      53.150  29.392  53.502  0.00  0.00     0.002 A 
ENDROOT
BRANCH   8  18
ATOM     18  C   UNL d   1      51.249  34.009  52.922  0.00  0.00     0.160 C 
BRANCH  18  19
ATOM     19  O   UNL d   1      50.476  33.748  52.795  0.00  0.00    -0.302 OA
BRANCH  19  20
ATOM     20  C   UNL d   1      49.897  34.286  52.563  0.00  0.00     0.100 A 
ATOM     21  C   UNL d   1      49.657  34.310  51.777  0.00  0.00     0.025 A 
ATOM     22  C   UNL d   1      49.074  34.848  51.537  0.00  0.00     0.002 A 
ATOM     23  C   UNL d   1      48.741  35.355  52.093  0.00  0.00     0.000 A 
ATOM     24  C   UNL d   1      48.984  35.329  52.881  0.00  0.00     0.002 A 
ATOM     25  C   UNL d   1      49.561  34.794  53.116  0.00  0.00     0.025 A 
ENDBRANCH  19  20
ENDBRANCH  18  19
ENDBRANCH   8  18
BRANCH   5  26
ATOM     26  C   UNL d   1      52.799  34.520  53.159  0.00  0.00     0.109 C 
BRANCH  26  27
ATOM     27  C   UNL d   1      52.883  34.937  53.862  0.00  0.00     0.118 A 
ATOM     28  O   UNL d   1      52.715  34.742  54.646  0.00  0.00    -0.304 OA
ATOM     29  C   UNL d   1      52.917  35.389  55.112  0.00  0.00     0.123 A 
ATOM     30  C   UNL d   1      53.208  35.983  54.637  0.00  0.00     0.029 A 
ATOM     31  C   UNL d   1      53.188  35.707  53.854  0.00  0.00     0.028 A 
ENDBRANCH  26  27
ENDBRANCH   5  26
TORSDOF 5
ENDMDL
MODEL 2
REMARK VINA RESULT:      -7.0      1.325      4.415
REMARK  5 active torsions:
REMARK  status: ('A' for Active; 'I' for Inactive)
REMARK    1  A    between atoms: C_11  and  N_5 
REMARK    2  A    between atoms: C_15  and  C_8 
REMARK    3  A    between atoms: C_12  and  C_11 
REMARK    4  A    between atoms: O_20  and  C_15 
REMARK    5  A    between atoms: C_23  and  O_20 
ROOT
ATOM      1  C   UNL d   1      52.285  33.598  53.230  0.00  0.00     0.130 A 
ATOM      2  C   UNL d   1      51.845  32.904  53.226  0.00  0.00     0.157 A 
ATOM      3  C   UNL d   1      53.095  33.573  53.397  0.00  0.00     0.272 A 
ATOM      4  N   UNL d   1      52.210  32.186  53.386  0.00  0.00    -0.208 NA
ATOM      5  N   UNL d   1      53.461  32.855  53.557  0.00  0.00    -0.254 N 
ATOM      6  C   UNL d   1      51.920  34.323  53.069  0.00  0.00     0.204 A 
ATOM      7  N   UNL d   1      51.030  32.928  53.058  0.00  0.00    -0.289 N 
ATOM      8  C   UNL d   1      53.021  32.162  53.552  0.00  0.00     0.177 A 
ATOM      9  C   UNL d   1      51.105  34.348  52.902  0.00  0.00     0.055 A 
ATOM     10  C   UNL d   1      50.665  33.646  52.898  0.00  0.00     0.069 A 
ATOM     11  O   UNL d   1      53.548  34.278  53.403  0.00  0.00    -0.266 OA
ATOM     12  O   UNL d   1      52.364  35.021  53.074  0.00  0.00    -0.286 OA
ATOM     13  C   UNL d   1      50.587  32.231  53.053  0.00  0.00     0.101 C 
ATOM     14  C   UNL d   1      50.740  35.070  52.741  0.00  0.00     0.005 A 
ATOM     15  C   UNL d   1      49.859  33.670  52.732  0.00  0.00     0.018 A 
ATOM     16  C   UNL d   1      49.934  35.094  52.576  0.00  0.00     0.000 A 
ATOM     17  C   UNL d   1      49.493  34.388  52.572  0.00  0.00     0.002 A 
ENDROOT
BRANCH   8  18
ATOM     18  C   UNL d   1      53.394  31.432  53.716  0.00  0.00     0.160 C 
BRANCH  18  19
ATOM     19  O   UNL d   1      53.010  30.724  53.537  0.00  0.00    -0.302 OA
BRANCH  19  20
ATOM     20  C   UNL d   1      53.243  30.027  53.909  0.00  0.00     0.100 A 
ATOM     21  C   UNL d   1      52.923  29.831  54.640  0.00  0.00     0.025 A 
ATOM     22  C   UNL d   1      53.153  29.131  55.020  0.00  0.00     0.002 A 
ATOM     23  C   UNL d   1      53.704  28.639  54.658  0.00  0.00     0.000 A 
ATOM     24  C   UNL d   1      54.024  28.838  53.924  0.00  0.00     0.002 A 
ATOM     25  C   UNL d   1      53.794  29.532  53.550  0.00  0.00     0.025 A 
ENDBRANCH  19  20
ENDBRANCH  18  19
ENDBRANCH   8  18
BRANCH   5  26
ATOM     26  C   UNL d   1      54.266  32.831  53.723  0.00  0.00     0.109 C 
BRANCH  26  27
ATOM     27  C   UNL d   1      54.546  33.099  54.447  0.00  0.00     0.118 A 
ATOM     28  O   UNL d   1      54.252  33.033  55.215  0.00  0.00    -0.304 OA
ATOM     29  C   UNL d   1      54.778  33.416  55.718  0.00  0.00     0.123 A 
ATOM     30  C   UNL d   1      55.395  33.719  55.282  0.00  0.00     0.029 A 
ATOM     31  C   UNL d   1      55.257  33.524  54.487  0.00  0.00     0.028 A 
ENDBRANCH  26  27
ENDBRANCH   5  26
TORSDOF 5
ENDMDL
