MODEL 1
REMARK VINA RESULT:      -8.1      0.000      0.000
REMARK  4 active torsions:
REMARK  status: ('A' for Active; 'I' for Inactive)
REMARK    1  A    between atoms: S_9  and  C_1 
REMARK    2  A    between atoms: N_3  and  C_7 
REMARK    3  A    between atoms: C_13  and  S_9 
REMARK    4  A    between atoms: C_14  and  C_13 
ROOT
ATOM      1  S   UNL d   1      51.506  33.567  53.119  0.00  0.00    -0.042 SA
ENDROOT
BRANCH   1   2
ATOM      2  C   UNL d   1      52.246  33.468  53.457  0.00  0.00     0.215 A 
ATOM      3  N   UNL d   1      52.809  32.935  53.192  0.00  0.00    -0.214 NA
ATOM      4  C   UNL d   1      53.453  33.013  53.672  0.00  0.00     0.107 A 
ATOM      5  C   UNL d   1      54.183  32.629  53.679  0.00  0.00     0.021 A 
ATOM      6  C   UNL d   1      53.295  33.588  54.233  0.00  0.00     0.120 A 
ATOM      7  C   UNL d   1      54.758  32.815  54.241  0.00  0.00     0.002 A 
ATOM      8  C   UNL d   1      54.601  33.390  54.802  0.00  0.00     0.002 A 
ATOM      9  C   UNL d   1      53.871  33.773  54.794  0.00  0.00     0.026 A 
ATOM     10  O   UNL d   1      52.552  33.876  54.108  0.00  0.00    -0.283 OA
ENDBRANCH   1   2
BRANCH   1  11
ATOM     11  C   UNL d   1      51.307  34.316  52.837  0.00  0.00     0.039 C 
BRANCH  11  12
ATOM     12  C   UNL d   1      50.590  34.425  52.467  0.00  0.00     0.007 A 
ATOM     13  C   UNL d   1      50.518  34.293  51.676  0.00  0.00     0.002 A 
ATOM     14  C   UNL d   1      49.780  34.406  51.295  0.00  0.00     0.024 A 
ATOM     15  C   UNL d   1      49.130  34.647  51.713  0.00  0.00     0.127 A 
ATOM     16  C   UNL d   1      49.191  34.790  52.550  0.00  0.00     0.024 A 
ATOM     17  C   UNL d   1      49.939  34.671  52.910  0.00  0.00     0.002 A 
BRANCH  15  18
ATOM     18  N   UNL d   1      48.434  34.743  51.299  0.00  0.00    -0.114 N 
ATOM     19  O   UNL d   1      47.962  35.354  51.523  0.00  0.00    -0.532 OA
ATOM     20  O   UNL d   1      48.227  34.225  50.672  0.00  0.00    -0.532 OA
ENDBRANCH  15  18
ENDBRANCH  11  12
ENDBRANCH   1  11
TORSDOF 4
ENDMDL
MODEL 2
REMARK VINA RESULT:      -7.7      3.094      3.964
REMARK  4 active torsions:
REMARK  status: ('A' for Active; 'I' for Inactive)
REMARK    1  A    between atoms: S_9  and  C_1 
REMARK    2  A    between atoms: N_3  and  C_7 
REMARK    3  A    between atoms: C_13  and  S_9 
REMARK    4  A    between atoms: C_14  and  C_13 
ROOT
ATOM      1  S   UNL d   1      53.371  32.496  53.430  0.00  0.00    -0.042 SA
ENDROOT
BRANCH   1   2
ATOM      2  C   UNL d   1      53.296  31.682  53.480  0.00  0.00     0.215 A 
ATOM      3  N   UNL d   1      52.857  31.224  52.961  0.00  0.00    -0.214 NA
ATOM      4  C   UNL d   1      52.928  30.458  53.203  0.00  0.00     0.107 A 
ATOM      5  C   UNL d   1      52.615  29.755  52.904  0.00  0.00     0.021 A 
ATOM      6  C   UNL d   1      53.407  30.434  53.867  0.00  0.00     0.120 A 
ATOM      7  C   UNL d   1      52.776  29.029  53.262  0.00  0.00     0.002 A 
ATOM      8  C   UNL d   1      53.255  29.005  53.926  0.00  0.00     0.002 A 
ATOM      9  C   UNL d   1      53.567  29.708  54.224  0.00  0.00     0.026 A 
ATOM     10  O   UNL d   1      53.639  31.185  54.046  0.00  0.00    -0.283 OA
ENDBRANCH   1   2
BRANCH   1  11
ATOM     11  C   UNL d   1      52.697  32.955  53.559  0.00  0.00     0.039 C 
BRANCH  11  12
ATOM     12  C   UNL d   1      52.782  33.734  53.779  0.00  0.00     0.007 A 
ATOM     13  C   UNL d   1      53.137  33.922  54.476  0.00  0.00     0.002 A 
ATOM     14  C   UNL d   1      53.224  34.724  54.702  0.00  0.00     0.024 A 
ATOM     15  C   UNL d   1      52.954  35.321  54.226  0.00  0.00     0.127 A 
ATOM     16  C   UNL d   1      52.576  35.137  53.487  0.00  0.00     0.024 A 
ATOM     17  C   UNL d   1      52.500  34.328  53.281  0.00  0.00     0.002 A 
BRANCH  15  18
ATOM     18  N   UNL d   1      53.061  36.086  54.488  0.00  0.00    -0.114 N 
ATOM     19  O   UNL d   1      53.700  36.479  54.202  0.00  0.00    -0.532 OA
ATOM     20  O   UNL d   1      52.525  36.438  55.030  0.00  0.00    -0.532 OA
ENDBRANCH  15  18
ENDBRANCH  11  12
ENDBRANCH   1  11
TORSDOF 4
ENDMDL
MODEL 3
REMARK VINA RESULT:      -7.5      1.266      5.142
REMARK  4 active torsions:
REMARK  status: ('A' for Active; 'I' for Inactive)
REMARK    1  A    between atoms: S_9  and  C_1 
REMARK    2  A    between atoms: N_3  and  C_7 
REMARK    3  A    between atoms: C_13  and  S_9 
REMARK    4  A    between atoms: C_14  and  C_13 
ROOT
ATOM      1  S   UNL d   1      50.692  34.085  52.963  0.00  0.00    -0.042 SA
ENDROOT
BRANCH   1   2
ATOM      2  C   UNL d   1      50.031  34.390  52.587  0.00  0.00     0.215 A 
ATOM      3  N   UNL d   1      49.507  34.919  52.929  0.00  0.00    -0.214 NA
ATOM      4  C   UNL d   1      48.940  35.079  52.377  0.00  0.00     0.107 A 
ATOM      5  C   UNL d   1      48.274  35.567  52.398  0.00  0.00     0.021 A 
ATOM      6  C   UNL d   1      49.106  34.655  51.697  0.00  0.00     0.120 A 
ATOM      7  C   UNL d   1      47.772  35.634  51.746  0.00  0.00     0.002 A 
ATOM      8  C   UNL d   1      47.939  35.210  51.066  0.00  0.00     0.002 A 
ATOM      9  C   UNL d   1      48.604  34.723  51.046  0.00  0.00     0.026 A 
ATOM     10  O   UNL d   1      49.778  34.226  51.817  0.00  0.00    -0.283 OA
ENDBRANCH   1   2
BRANCH   1  11
ATOM     11  C   UNL d   1      51.412  34.111  52.561  0.00  0.00     0.039 C 
BRANCH  11  12
ATOM     12  C   UNL d   1      52.082  33.826  52.925  0.00  0.00     0.007 A 
ATOM     13  C   UNL d   1      52.240  33.037  52.922  0.00  0.00     0.002 A 
ATOM     14  C   UNL d   1      52.930  32.744  53.296  0.00  0.00     0.024 A 
ATOM     15  C   UNL d   1      53.447  33.246  53.666  0.00  0.00     0.127 A 
ATOM     16  C   UNL d   1      53.293  34.083  53.677  0.00  0.00     0.024 A 
ATOM     17  C   UNL d   1      52.596  34.353  53.296  0.00  0.00     0.002 A 
BRANCH  15  18
ATOM     18  N   UNL d   1      54.105  32.914  54.016  0.00  0.00    -0.114 N 
ATOM     19  O   UNL d   1      54.784  32.921  53.587  0.00  0.00    -0.532 OA
ATOM     20  O   UNL d   1      54.066  32.585  54.787  0.00  0.00    -0.532 OA
ENDBRANCH  15  18
ENDBRANCH  11  12
ENDBRANCH   1  11
TORSDOF 4
ENDMDL
MODEL 4
REMARK VINA RESULT:      -6.8      2.633      5.258
REMARK  4 active torsions:
REMARK  status: ('A' for Active; 'I' for Inactive)
REMARK    1  A    between atoms: S_9  and  C_1 
REMARK    2  A    between atoms: N_3  and  C_7 
REMARK    3  A    between atoms: C_13  and  S_9 
REMARK    4  A    between atoms: C_14  and  C_13 
ROOT
ATOM      1  S   UNL d   1      52.733  32.356  53.267  0.00  0.00    -0.042 SA
ENDROOT
BRANCH   1   2
ATOM      2  C   UNL d   1      52.153  32.885  53.030  0.00  0.00     0.215 A 
ATOM      3  N   UNL d   1      51.563  33.175  53.518  0.00  0.00    -0.214 NA
ATOM      4  C   UNL d   1      51.112  33.675  53.073  0.00  0.00     0.107 A 
ATOM      5  C   UNL d   1      50.447  34.127  53.257  0.00  0.00     0.021 A 
ATOM      6  C   UNL d   1      51.416  33.698  52.313  0.00  0.00     0.120 A 
ATOM      7  C   UNL d   1      50.082  34.602  52.689  0.00  0.00     0.002 A 
ATOM      8  C   UNL d   1      50.386  34.626  51.929  0.00  0.00     0.002 A 
ATOM      9  C   UNL d   1      51.052  34.174  51.746  0.00  0.00     0.026 A 
ATOM     10  O   UNL d   1      52.060  33.213  52.276  0.00  0.00    -0.283 OA
ENDBRANCH   1   2
BRANCH   1  11
ATOM     11  C   UNL d   1      52.797  31.644  52.856  0.00  0.00     0.039 C 
BRANCH  11  12
ATOM     12  C   UNL d   1      52.949  30.958  53.268  0.00  0.00     0.007 A 
ATOM     13  C   UNL d   1      52.534  30.288  53.105  0.00  0.00     0.002 A 
ATOM     14  C   UNL d   1      52.690  29.582  53.529  0.00  0.00     0.024 A 
ATOM     15  C   UNL d   1      53.257  29.562  54.107  0.00  0.00     0.127 A 
ATOM     16  C   UNL d   1      53.703  30.263  54.289  0.00  0.00     0.024 A 
ATOM     17  C   UNL d   1      53.531  30.957  53.853  0.00  0.00     0.002 A 
BRANCH  15  18
ATOM     18  N   UNL d   1      53.373  28.852  54.492  0.00  0.00    -0.114 N 
ATOM     19  O   UNL d   1      53.550  28.217  54.033  0.00  0.00    -0.532 OA
ATOM     20  O   UNL d   1      53.309  28.797  55.327  0.00  0.00    -0.532 OA
ENDBRANCH  15  18
ENDBRANCH  11  12
ENDBRANCH   1  11
TORSDOF 4
ENDMDL
MODEL 5
REMARK VINA RESULT:      -6.6      3.230      4.749
REMARK  4 active torsions:
REMARK  status: ('A' for Active; 'I' for Inactive)
REMARK    1  A    between atoms: S_9  and  C_1 
REMARK    2  A    between atoms: N_3  and  C_7 
REMARK    3  A    between atoms: C_13  and  S_9 
REMARK    4  A    between atoms: C_14  and  C_13 
ROOT
ATOM      1  S   UNL d   1      53.837  32.546  53.731  0.00  0.00    -0.042 SA
ENDROOT
BRANCH   1   2
ATOM      2  C   UNL d   1      53.623  33.315  53.915  0.00  0.00     0.215 A 
ATOM      3  N   UNL d   1      53.667  33.642  54.664  0.00  0.00    -0.214 NA
ATOM      4  C   UNL d   1      53.408  34.404  54.606  0.00  0.00     0.107 A 
ATOM      5  C   UNL d   1      53.326  35.002  55.169  0.00  0.00     0.021 A 
ATOM      6  C   UNL d   1      53.202  34.554  53.828  0.00  0.00     0.120 A 
ATOM      7  C   UNL d   1      53.041  35.748  54.962  0.00  0.00     0.002 A 
ATOM      8  C   UNL d   1      52.836  35.898  54.184  0.00  0.00     0.002 A 
ATOM      9  C   UNL d   1      52.918  35.300  53.622  0.00  0.00     0.026 A 
ATOM     10  O   UNL d   1      53.332  33.888  53.393  0.00  0.00    -0.283 OA
ENDBRANCH   1   2
BRANCH   1  11
ATOM     11  C   UNL d   1      53.339  32.115  53.235  0.00  0.00     0.039 C 
BRANCH  11  12
ATOM     12  C   UNL d   1      53.246  31.316  53.360  0.00  0.00     0.007 A 
ATOM     13  C   UNL d   1      53.734  30.925  53.866  0.00  0.00     0.002 A 
ATOM     14  C   UNL d   1      53.638  30.103  53.995  0.00  0.00     0.024 A 
ATOM     15  C   UNL d   1      53.055  29.689  53.615  0.00  0.00     0.127 A 
ATOM     16  C   UNL d   1      52.531  30.089  53.077  0.00  0.00     0.024 A 
ATOM     17  C   UNL d   1      52.646  30.911  52.963  0.00  0.00     0.002 A 
BRANCH  15  18
ATOM     18  N   UNL d   1      53.000  28.891  53.773  0.00  0.00    -0.114 N 
ATOM     19  O   UNL d   1      52.631  28.439  53.221  0.00  0.00    -0.532 OA
ATOM     20  O   UNL d   1      53.316  28.565  54.479  0.00  0.00    -0.532 OA
ENDBRANCH  15  18
ENDBRANCH  11  12
ENDBRANCH   1  11
TORSDOF 4
ENDMDL
MODEL 6
REMARK VINA RESULT:      -5.5     10.357     11.351
REMARK  4 active torsions:
REMARK  status: ('A' for Active; 'I' for Inactive)
REMARK    1  A    between atoms: S_9  and  C_1 
REMARK    2  A    between atoms: N_3  and  C_7 
REMARK    3  A    between atoms: C_13  and  S_9 
REMARK    4  A    between atoms: C_14  and  C_13 
ROOT
ATOM      1  S   UNL d   1      44.952  30.291  59.918  0.00  0.00    -0.042 SA
ENDROOT
BRANCH   1   2
ATOM      2  C   UNL d   1      44.895  30.222  59.104  0.00  0.00     0.215 A 
ATOM      3  N   UNL d   1      44.923  29.512  58.696  0.00  0.00    -0.214 NA
ATOM      4  C   UNL d   1      44.848  29.686  57.912  0.00  0.00     0.107 A 
ATOM      5  C   UNL d   1      44.837  29.206  57.241  0.00  0.00     0.021 A 
ATOM      6  C   UNL d   1      44.773  30.497  57.828  0.00  0.00     0.120 A 
ATOM      7  C   UNL d   1      44.751  29.529  56.486  0.00  0.00     0.002 A 
ATOM      8  C   UNL d   1      44.676  30.340  56.402  0.00  0.00     0.002 A 
ATOM      9  C   UNL d   1      44.687  30.819  57.073  0.00  0.00     0.026 A 
ATOM     10  O   UNL d   1      44.801  30.837  58.559  0.00  0.00    -0.283 OA
ENDBRANCH   1   2
BRANCH   1  11
ATOM     11  C   UNL d   1      44.396  30.761  60.306  0.00  0.00     0.039 C 
BRANCH  11  12
ATOM     12  C   UNL d   1      44.382  30.773  61.120  0.00  0.00     0.007 A 
ATOM     13  C   UNL d   1      44.333  30.085  61.534  0.00  0.00     0.002 A 
ATOM     14  C   UNL d   1      44.318  30.097  62.372  0.00  0.00     0.024 A 
ATOM     15  C   UNL d   1      44.352  30.797  62.777  0.00  0.00     0.127 A 
ATOM     16  C   UNL d   1      44.403  31.533  62.353  0.00  0.00     0.024 A 
ATOM     17  C   UNL d   1      44.417  31.497  61.515  0.00  0.00     0.002 A 
BRANCH  15  18
ATOM     18  N   UNL d   1      44.335  30.759  63.592  0.00  0.00    -0.114 N 
ATOM     19  O   UNL d   1      44.324  30.025  63.918  0.00  0.00    -0.532 OA
ATOM     20  O   UNL d   1      44.329  31.456  64.059  0.00  0.00    -0.532 OA
ENDBRANCH  15  18
ENDBRANCH  11  12
ENDBRANCH   1  11
TORSDOF 4
ENDMDL
MODEL 7
REMARK VINA RESULT:      -5.4     10.356     11.015
REMARK  4 active torsions:
REMARK  status: ('A' for Active; 'I' for Inactive)
REMARK    1  A    between atoms: S_9  and  C_1 
REMARK    2  A    between atoms: N_3  and  C_7 
REMARK    3  A    between atoms: C_13  and  S_9 
REMARK    4  A    between atoms: C_14  and  C_13 
ROOT
ATOM      1  S   UNL d   1      44.513  26.614  56.717  0.00  0.00    -0.042 SA
ENDROOT
BRANCH   1   2
ATOM      2  C   UNL d   1      44.576  25.913  56.298  0.00  0.00     0.215 A 
ATOM      3  N   UNL d   1      44.316  25.808  55.528  0.00  0.00    -0.214 NA
ATOM      4  C   UNL d   1      44.480  25.045  55.324  0.00  0.00     0.107 A 
ATOM      5  C   UNL d   1      44.350  24.622  54.627  0.00  0.00     0.021 A 
ATOM      6  C   UNL d   1      44.840  24.674  55.959  0.00  0.00     0.120 A 
ATOM      7  C   UNL d   1      44.575  23.831  54.560  0.00  0.00     0.002 A 
ATOM      8  C   UNL d   1      44.935  23.459  55.195  0.00  0.00     0.002 A 
ATOM      9  C   UNL d   1      45.065  23.883  55.890  0.00  0.00     0.026 A 
ATOM     10  O   UNL d   1      44.903  25.202  56.566  0.00  0.00    -0.283 OA
ENDBRANCH   1   2
BRANCH   1  11
ATOM     11  C   UNL d   1      45.202  27.048  56.849  0.00  0.00     0.039 C 
BRANCH  11  12
ATOM     12  C   UNL d   1      45.154  27.763  57.236  0.00  0.00     0.007 A 
ATOM     13  C   UNL d   1      45.064  28.444  56.818  0.00  0.00     0.002 A 
ATOM     14  C   UNL d   1      45.015  29.180  57.216  0.00  0.00     0.024 A 
ATOM     15  C   UNL d   1      45.058  29.219  58.023  0.00  0.00     0.127 A 
ATOM     16  C   UNL d   1      45.153  28.506  58.479  0.00  0.00     0.024 A 
ATOM     17  C   UNL d   1      45.200  27.781  58.060  0.00  0.00     0.002 A 
BRANCH  15  18
ATOM     18  N   UNL d   1      45.006  29.957  58.366  0.00  0.00    -0.114 N 
ATOM     19  O   UNL d   1      44.406  30.429  58.116  0.00  0.00    -0.532 OA
ATOM     20  O   UNL d   1      45.556  30.204  58.950  0.00  0.00    -0.532 OA
ENDBRANCH  15  18
ENDBRANCH  11  12
ENDBRANCH   1  11
TORSDOF 4
ENDMDL
MODEL 8
REMARK VINA RESULT:      -5.3     10.188     10.932
REMARK  4 active torsions:
REMARK  status: ('A' for Active; 'I' for Inactive)
REMARK    1  A    between atoms: S_9  and  C_1 
REMARK    2  A    between atoms: N_3  and  C_7 
REMARK    3  A    between atoms: C_13  and  S_9 
REMARK    4  A    between atoms: C_14  and  C_13 
ROOT
ATOM      1  S   UNL d   1      45.216  27.588  57.351  0.00  0.00    -0.042 SA
ENDROOT
BRANCH   1   2
ATOM      2  C   UNL d   1      45.141  28.370  57.584  0.00  0.00     0.215 A 
ATOM      3  N   UNL d   1      45.321  28.650  58.332  0.00  0.00    -0.214 NA
ATOM      4  C   UNL d   1      45.171  29.443  58.330  0.00  0.00     0.107 A 
ATOM      5  C   UNL d   1      45.245  30.019  58.917  0.00  0.00     0.021 A 
ATOM      6  C   UNL d   1      44.899  29.659  57.588  0.00  0.00     0.120 A 
ATOM      7  C   UNL d   1      45.050  30.807  58.770  0.00  0.00     0.002 A 
ATOM      8  C   UNL d   1      44.779  31.023  58.028  0.00  0.00     0.002 A 
ATOM      9  C   UNL d   1      44.705  30.447  57.442  0.00  0.00     0.026 A 
ATOM     10  O   UNL d   1      44.877  29.002  57.120  0.00  0.00    -0.283 OA
ENDBRANCH   1   2
BRANCH   1  11
ATOM     11  C   UNL d   1      44.526  27.162  57.199  0.00  0.00     0.039 C 
BRANCH  11  12
ATOM     12  C   UNL d   1      44.581  26.387  56.956  0.00  0.00     0.007 A 
ATOM     13  C   UNL d   1      44.679  26.213  56.177  0.00  0.00     0.002 A 
ATOM     14  C   UNL d   1      44.736  25.415  55.927  0.00  0.00     0.024 A 
ATOM     15  C   UNL d   1      44.693  24.809  56.461  0.00  0.00     0.127 A 
ATOM     16  C   UNL d   1      44.590  24.978  57.288  0.00  0.00     0.024 A 
ATOM     17  C   UNL d   1      44.535  25.783  57.516  0.00  0.00     0.002 A 
BRANCH  15  18
ATOM     18  N   UNL d   1      44.754  24.049  56.170  0.00  0.00    -0.114 N 
ATOM     19  O   UNL d   1      44.326  23.484  56.548  0.00  0.00    -0.532 OA
ATOM     20  O   UNL d   1      45.241  23.875  55.509  0.00  0.00    -0.532 OA
ENDBRANCH  15  18
ENDBRANCH  11  12
ENDBRANCH   1  11
TORSDOF 4
ENDMDL
