MODEL 1
REMARK VINA RESULT:      57.5      0.000      0.000
REMARK  5 active torsions:
REMARK  status: ('A' for Active; 'I' for Inactive)
REMARK    1  A    between atoms: S_10  and  C_5 
REMARK    2  A    between atoms: C_14  and  N_9 
REMARK    3  A    between atoms: C_17  and  S_10 
REMARK    4  A    between atoms: C_15  and  C_14 
REMARK    5  A    between atoms: C_19  and  C_17 
ROOT
ATOM      1  C   UNL d   1     -50.460  25.359  33.423  0.00  0.00     0.174 A 
ATOM      2  N   UNL d   1     -49.943  25.987  33.469  0.00  0.00    -0.203 NA
ATOM      3  C   UNL d   1     -51.226  25.663  33.391  0.00  0.00     0.159 A 
ATOM      4  N   UNL d   1     -50.350  24.549  33.406  0.00  0.00    -0.239 N 
ATOM      5  C   UNL d   1     -50.396  26.677  33.464  0.00  0.00     0.181 A 
ATOM      6  C   UNL d   1     -50.992  24.012  33.356  0.00  0.00     0.358 A 
ATOM      7  N   UNL d   1     -51.759  24.316  33.324  0.00  0.00    -0.152 NA
ATOM      8  C   UNL d   1     -51.883  25.158  33.341  0.00  0.00     0.302 A 
ATOM      9  N   UNL d   1     -51.213  26.558  33.417  0.00  0.00    -0.279 N 
ATOM     10  O   UNL d   1     -50.887  23.191  33.338  0.00  0.00    -0.244 OA
ATOM     11  O   UNL d   1     -52.649  25.462  33.309  0.00  0.00    -0.263 OA
ATOM     12  C   UNL d   1     -49.584  24.245  33.438  0.00  0.00     0.105 C 
ENDROOT
BRANCH   5  13
ATOM     13  S   UNL d   1     -49.910  27.330  33.509  0.00  0.00    -0.049 SA
BRANCH  13  14
ATOM     14  C   UNL d   1     -49.095  27.452  33.523  0.00  0.00     0.038 C 
BRANCH  14  15
ATOM     15  C   UNL d   1     -48.769  28.005  34.042  0.00  0.00     0.007 A 
ATOM     16  C   UNL d   1     -49.004  28.793  34.004  0.00  0.00     0.003 A 
ATOM     17  C   UNL d   1     -48.681  29.346  34.519  0.00  0.00     0.030 A 
ATOM     18  C   UNL d   1     -48.116  29.110  35.078  0.00  0.00     0.140 A 
ATOM     19  C   UNL d   1     -47.882  28.322  35.114  0.00  0.00     0.030 A 
ATOM     20  F   UNL d   1     -47.790  29.663  35.596  0.00  0.00    -0.204 F 
ATOM     21  C   UNL d   1     -48.209  27.769  34.596  0.00  0.00     0.003 A 
ENDBRANCH  14  15
ENDBRANCH  13  14
ENDBRANCH   5  13
BRANCH   9  22
ATOM     22  C   UNL d   1     -51.837  27.088  33.400  0.00  0.00     0.082 C 
BRANCH  22  23
ATOM     23  C   UNL d   1     -52.611  26.801  33.416  0.00  0.00     0.019 C 
ATOM     24  C   UNL d   1     -53.243  27.324  33.461  0.00  0.00     0.002 C 
ENDBRANCH  22  23
ENDBRANCH   9  22
TORSDOF 5
ENDMDL
MODEL 2
REMARK VINA RESULT:      60.4      1.414      2.755
REMARK  5 active torsions:
REMARK  status: ('A' for Active; 'I' for Inactive)
REMARK    1  A    between atoms: S_10  and  C_5 
REMARK    2  A    between atoms: C_14  and  N_9 
REMARK    3  A    between atoms: C_17  and  S_10 
REMARK    4  A    between atoms: C_15  and  C_14 
REMARK    5  A    between atoms: C_19  and  C_17 
ROOT
ATOM      1  C   UNL d   1     -52.921  25.506  33.490  0.00  0.00     0.174 A 
ATOM      2  N   UNL d   1     -52.216  25.912  33.516  0.00  0.00    -0.203 NA
ATOM      3  C   UNL d   1     -52.754  24.702  33.573  0.00  0.00     0.159 A 
ATOM      4  N   UNL d   1     -53.698  25.746  33.404  0.00  0.00    -0.239 N 
ATOM      5  C   UNL d   1     -51.615  25.354  33.615  0.00  0.00     0.181 A 
ATOM      6  C   UNL d   1     -54.336  25.201  33.395  0.00  0.00     0.358 A 
ATOM      7  N   UNL d   1     -54.168  24.398  33.477  0.00  0.00    -0.152 NA
ATOM      8  C   UNL d   1     -53.363  24.139  33.568  0.00  0.00     0.302 A 
ATOM      9  N   UNL d   1     -51.873  24.569  33.659  0.00  0.00    -0.279 N 
ATOM     10  O   UNL d   1     -55.124  25.439  33.308  0.00  0.00    -0.244 OA
ATOM     11  O   UNL d   1     -53.196  23.335  33.651  0.00  0.00    -0.263 OA
ATOM     12  C   UNL d   1     -53.865  26.549  33.321  0.00  0.00     0.105 C 
ENDROOT
BRANCH   5  13
ATOM     13  S   UNL d   1     -50.891  25.726  33.645  0.00  0.00    -0.049 SA
BRANCH  13  14
ATOM     14  C   UNL d   1     -50.567  26.404  33.307  0.00  0.00     0.038 C 
BRANCH  14  15
ATOM     15  C   UNL d   1     -49.995  26.837  33.715  0.00  0.00     0.007 A 
ATOM     16  C   UNL d   1     -49.260  26.975  33.370  0.00  0.00     0.003 A 
ATOM     17  C   UNL d   1     -48.688  27.405  33.773  0.00  0.00     0.030 A 
ATOM     18  C   UNL d   1     -48.850  27.702  34.530  0.00  0.00     0.140 A 
ATOM     19  C   UNL d   1     -49.586  27.563  34.873  0.00  0.00     0.030 A 
ATOM     20  F   UNL d   1     -48.278  28.134  34.937  0.00  0.00    -0.204 F 
ATOM     21  C   UNL d   1     -50.158  27.131  34.466  0.00  0.00     0.003 A 
ENDBRANCH  14  15
ENDBRANCH  13  14
ENDBRANCH   5  13
BRANCH   9  22
ATOM     22  C   UNL d   1     -51.459  23.869  33.754  0.00  0.00     0.082 C 
BRANCH  22  23
ATOM     23  C   UNL d   1     -50.777  23.741  33.306  0.00  0.00     0.019 C 
ATOM     24  C   UNL d   1     -50.138  24.254  33.373  0.00  0.00     0.002 C 
ENDBRANCH  22  23
ENDBRANCH   9  22
TORSDOF 5
ENDMDL
