MODEL 1
REMARK VINA RESULT:      -8.8      0.000      0.000
REMARK  5 active torsions:
REMARK  status: ('A' for Active; 'I' for Inactive)
REMARK       I    between atoms: N_3  and  C_1 
REMARK    1  A    between atoms: C_6  and  C_1 
REMARK    2  A    between atoms: C_2  and  S_4 
REMARK    3  A    between atoms: C_7  and  N_3 
REMARK    4  A    between atoms: S_4  and  C_8 
REMARK    5  A    between atoms: C_15  and  C_6 
ROOT
ATOM      1  C   UNL d   1      53.001  31.184  53.018  0.00  0.00     0.085 A 
ATOM      2  C   UNL d   1      52.957  29.694  53.668  0.00  0.00     0.034 A 
ATOM      3  C   UNL d   1      53.680  30.717  53.010  0.00  0.00     0.020 A 
ATOM      4  C   UNL d   1      52.304  30.915  53.346  0.00  0.00     0.020 A 
ATOM      5  C   UNL d   1      52.275  30.170  53.673  0.00  0.00     0.008 A 
ATOM      6  C   UNL d   1      53.656  29.966  53.339  0.00  0.00     0.008 A 
ENDROOT
BRANCH   1   7
ATOM      7  N   UNL d   1      53.025  31.940  52.688  0.00  0.00    -0.208 NA
ATOM      8  C   UNL d   1      53.305  32.576  53.137  0.00  0.00     0.279 C 
ATOM      9  O   UNL d   1      53.330  33.319  52.818  0.00  0.00    -0.265 OA
BRANCH   8  10
ATOM     10  C   UNL d   1      53.556  32.447  53.905  0.00  0.00     0.062 C 
BRANCH  10  11
ATOM     11  C   UNL d   1      53.843  33.055  54.342  0.00  0.00     0.005 A 
ATOM     12  C   UNL d   1      53.338  33.657  54.610  0.00  0.00     0.000 A 
ATOM     13  C   UNL d   1      53.636  34.296  55.068  0.00  0.00     0.000 A 
ATOM     14  C   UNL d   1      54.455  34.320  55.254  0.00  0.00     0.000 A 
ATOM     15  C   UNL d   1      54.967  33.715  54.985  0.00  0.00     0.000 A 
ATOM     16  C   UNL d   1      54.655  33.087  54.530  0.00  0.00     0.000 A 
ENDBRANCH  10  11
ENDBRANCH   8  10
ENDBRANCH   1   7
BRANCH   2  17
ATOM     17  S   UNL d   1      52.928  28.947  53.996  0.00  0.00    -0.028 SA
BRANCH  17  18
ATOM     18  C   UNL d   1      53.332  28.778  54.689  0.00  0.00     0.309 C 
ATOM     19  F   UNL d   1      54.036  28.370  54.656  0.00  0.00    -0.165 F 
ATOM     20  F   UNL d   1      53.038  29.013  55.405  0.00  0.00    -0.165 F 
ENDBRANCH  17  18
ENDBRANCH   2  17
TORSDOF 5
ENDMDL
MODEL 2
REMARK VINA RESULT:      -8.3      3.305      4.002
REMARK  5 active torsions:
REMARK  status: ('A' for Active; 'I' for Inactive)
REMARK       I    between atoms: N_3  and  C_1 
REMARK    1  A    between atoms: C_6  and  C_1 
REMARK    2  A    between atoms: C_2  and  S_4 
REMARK    3  A    between atoms: C_7  and  N_3 
REMARK    4  A    between atoms: S_4  and  C_8 
REMARK    5  A    between atoms: C_15  and  C_6 
ROOT
ATOM      1  C   UNL d   1      52.033  33.006  52.802  0.00  0.00     0.085 A 
ATOM      2  C   UNL d   1      50.855  34.126  52.739  0.00  0.00     0.034 A 
ATOM      3  C   UNL d   1      51.363  32.919  53.274  0.00  0.00     0.020 A 
ATOM      4  C   UNL d   1      52.119  33.644  52.302  0.00  0.00     0.020 A 
ATOM      5  C   UNL d   1      51.534  34.208  52.265  0.00  0.00     0.008 A 
ATOM      6  C   UNL d   1      50.770  33.485  53.241  0.00  0.00     0.008 A 
ENDROOT
BRANCH   1   7
ATOM      7  N   UNL d   1      52.629  32.437  52.836  0.00  0.00    -0.208 NA
ATOM      8  C   UNL d   1      53.261  32.534  53.361  0.00  0.00     0.279 C 
ATOM      9  O   UNL d   1      53.849  31.979  53.398  0.00  0.00    -0.265 OA
BRANCH   8  10
ATOM     10  C   UNL d   1      53.286  33.196  53.842  0.00  0.00     0.062 C 
BRANCH  10  11
ATOM     11  C   UNL d   1      53.913  33.316  54.329  0.00  0.00     0.005 A 
ATOM     12  C   UNL d   1      54.606  33.671  54.044  0.00  0.00     0.000 A 
ATOM     13  C   UNL d   1      55.265  33.798  54.551  0.00  0.00     0.000 A 
ATOM     14  C   UNL d   1      55.214  33.560  55.355  0.00  0.00     0.000 A 
ATOM     15  C   UNL d   1      54.516  33.201  55.646  0.00  0.00     0.000 A 
ATOM     16  C   UNL d   1      53.870  33.082  55.128  0.00  0.00     0.000 A 
ENDBRANCH  10  11
ENDBRANCH   8  10
ENDBRANCH   1   7
BRANCH   2  17
ATOM     17  S   UNL d   1      50.268  34.692  52.701  0.00  0.00    -0.028 SA
BRANCH  17  18
ATOM     18  C   UNL d   1      49.596  34.568  52.251  0.00  0.00     0.309 C 
ATOM     19  F   UNL d   1      48.874  34.478  52.619  0.00  0.00    -0.165 F 
ATOM     20  F   UNL d   1      49.640  34.534  51.444  0.00  0.00    -0.165 F 
ENDBRANCH  17  18
ENDBRANCH   2  17
TORSDOF 5
ENDMDL
MODEL 3
REMARK VINA RESULT:      -8.3      2.811      3.837
REMARK  5 active torsions:
REMARK  status: ('A' for Active; 'I' for Inactive)
REMARK       I    between atoms: N_3  and  C_1 
REMARK    1  A    between atoms: C_6  and  C_1 
REMARK    2  A    between atoms: C_2  and  S_4 
REMARK    3  A    between atoms: C_7  and  N_3 
REMARK    4  A    between atoms: S_4  and  C_8 
REMARK    5  A    between atoms: C_15  and  C_6 
ROOT
ATOM      1  C   UNL d   1      53.645  32.302  53.708  0.00  0.00     0.085 A 
ATOM      2  C   UNL d   1      54.650  33.036  54.754  0.00  0.00     0.034 A 
ATOM      3  C   UNL d   1      53.474  32.287  54.514  0.00  0.00     0.020 A 
ATOM      4  C   UNL d   1      54.309  32.678  53.421  0.00  0.00     0.020 A 
ATOM      5  C   UNL d   1      54.817  33.048  53.939  0.00  0.00     0.008 A 
ATOM      6  C   UNL d   1      53.982  32.658  55.040  0.00  0.00     0.008 A 
ENDROOT
BRANCH   1   7
ATOM      7  N   UNL d   1      53.134  31.929  53.178  0.00  0.00    -0.208 NA
ATOM      8  C   UNL d   1      52.473  32.335  52.889  0.00  0.00     0.279 C 
ATOM      9  O   UNL d   1      51.968  31.975  52.370  0.00  0.00    -0.265 OA
BRANCH   8  10
ATOM     10  C   UNL d   1      52.335  33.104  53.134  0.00  0.00     0.062 C 
BRANCH  10  11
ATOM     11  C   UNL d   1      51.686  33.499  52.873  0.00  0.00     0.005 A 
ATOM     12  C   UNL d   1      50.976  33.471  53.300  0.00  0.00     0.000 A 
ATOM     13  C   UNL d   1      50.295  33.883  53.030  0.00  0.00     0.000 A 
ATOM     14  C   UNL d   1      50.340  34.326  52.318  0.00  0.00     0.000 A 
ATOM     15  C   UNL d   1      51.056  34.356  51.884  0.00  0.00     0.000 A 
ATOM     16  C   UNL d   1      51.724  33.941  52.167  0.00  0.00     0.000 A 
ENDBRANCH  10  11
ENDBRANCH   8  10
ENDBRANCH   1   7
BRANCH   2  17
ATOM     17  S   UNL d   1      55.159  33.407  55.274  0.00  0.00    -0.028 SA
BRANCH  17  18
ATOM     18  C   UNL d   1      55.257  34.220  55.256  0.00  0.00     0.309 C 
ATOM     19  F   UNL d   1      55.939  34.537  54.943  0.00  0.00    -0.165 F 
ATOM     20  F   UNL d   1      54.683  34.711  55.545  0.00  0.00    -0.165 F 
ENDBRANCH  17  18
ENDBRANCH   2  17
TORSDOF 5
ENDMDL
MODEL 4
REMARK VINA RESULT:      -8.2      1.987      2.778
REMARK  5 active torsions:
REMARK  status: ('A' for Active; 'I' for Inactive)
REMARK       I    between atoms: N_3  and  C_1 
REMARK    1  A    between atoms: C_6  and  C_1 
REMARK    2  A    between atoms: C_2  and  S_4 
REMARK    3  A    between atoms: C_7  and  N_3 
REMARK    4  A    between atoms: S_4  and  C_8 
REMARK    5  A    between atoms: C_15  and  C_6 
ROOT
ATOM      1  C   UNL d   1      53.632  32.733  53.792  0.00  0.00     0.085 A 
ATOM      2  C   UNL d   1      53.775  31.114  53.767  0.00  0.00     0.034 A 
ATOM      3  C   UNL d   1      53.429  32.297  54.461  0.00  0.00     0.020 A 
ATOM      4  C   UNL d   1      53.904  32.369  53.114  0.00  0.00     0.020 A 
ATOM      5  C   UNL d   1      53.978  31.559  53.095  0.00  0.00     0.008 A 
ATOM      6  C   UNL d   1      53.502  31.480  54.446  0.00  0.00     0.008 A 
ENDROOT
BRANCH   1   7
ATOM      7  N   UNL d   1      53.559  33.555  53.806  0.00  0.00    -0.208 NA
ATOM      8  C   UNL d   1      52.866  33.911  53.526  0.00  0.00     0.279 C 
ATOM      9  O   UNL d   1      52.789  34.716  53.538  0.00  0.00    -0.265 OA
BRANCH   8  10
ATOM     10  C   UNL d   1      52.261  33.442  53.239  0.00  0.00     0.062 C 
BRANCH  10  11
ATOM     11  C   UNL d   1      51.604  33.780  52.925  0.00  0.00     0.005 A 
ATOM     12  C   UNL d   1      51.600  34.042  52.138  0.00  0.00     0.000 A 
ATOM     13  C   UNL d   1      50.913  34.397  51.806  0.00  0.00     0.000 A 
ATOM     14  C   UNL d   1      50.227  34.485  52.283  0.00  0.00     0.000 A 
ATOM     15  C   UNL d   1      50.228  34.221  53.078  0.00  0.00     0.000 A 
ATOM     16  C   UNL d   1      50.918  33.871  53.392  0.00  0.00     0.000 A 
ENDBRANCH  10  11
ENDBRANCH   8  10
ENDBRANCH   1   7
BRANCH   2  17
ATOM     17  S   UNL d   1      53.849  30.300  53.747  0.00  0.00    -0.028 SA
BRANCH  17  18
ATOM     18  C   UNL d   1      53.191  29.822  53.656  0.00  0.00     0.309 C 
ATOM     19  F   UNL d   1      52.887  29.427  54.300  0.00  0.00    -0.165 F 
ATOM     20  F   UNL d   1      52.839  29.738  52.932  0.00  0.00    -0.165 F 
ENDBRANCH  17  18
ENDBRANCH   2  17
TORSDOF 5
ENDMDL
MODEL 5
REMARK VINA RESULT:      -8.1      2.873      4.280
REMARK  5 active torsions:
REMARK  status: ('A' for Active; 'I' for Inactive)
REMARK       I    between atoms: N_3  and  C_1 
REMARK    1  A    between atoms: C_6  and  C_1 
REMARK    2  A    between atoms: C_2  and  S_4 
REMARK    3  A    between atoms: C_7  and  N_3 
REMARK    4  A    between atoms: S_4  and  C_8 
REMARK    5  A    between atoms: C_15  and  C_6 
ROOT
ATOM      1  C   UNL d   1      53.070  33.550  53.330  0.00  0.00     0.085 A 
ATOM      2  C   UNL d   1      51.638  34.283  53.092  0.00  0.00     0.034 A 
ATOM      3  C   UNL d   1      52.817  33.709  52.562  0.00  0.00     0.020 A 
ATOM      4  C   UNL d   1      52.616  33.752  53.977  0.00  0.00     0.020 A 
ATOM      5  C   UNL d   1      51.898  34.120  53.865  0.00  0.00     0.008 A 
ATOM      6  C   UNL d   1      52.095  34.079  52.444  0.00  0.00     0.008 A 
ENDROOT
BRANCH   1   7
ATOM      7  N   UNL d   1      53.797  33.178  53.449  0.00  0.00    -0.208 NA
ATOM      8  C   UNL d   1      53.833  32.352  53.498  0.00  0.00     0.279 C 
ATOM      9  O   UNL d   1      54.543  31.982  53.615  0.00  0.00    -0.265 OA
BRANCH   8  10
ATOM     10  C   UNL d   1      53.145  31.915  53.428  0.00  0.00     0.062 C 
BRANCH  10  11
ATOM     11  C   UNL d   1      53.170  31.115  53.486  0.00  0.00     0.005 A 
ATOM     12  C   UNL d   1      53.378  30.750  54.201  0.00  0.00     0.000 A 
ATOM     13  C   UNL d   1      53.405  29.912  54.265  0.00  0.00     0.000 A 
ATOM     14  C   UNL d   1      53.217  29.444  53.593  0.00  0.00     0.000 A 
ATOM     15  C   UNL d   1      53.007  29.809  52.870  0.00  0.00     0.000 A 
ATOM     16  C   UNL d   1      52.985  30.643  52.823  0.00  0.00     0.000 A 
ENDBRANCH  10  11
ENDBRANCH   8  10
ENDBRANCH   1   7
BRANCH   2  17
ATOM     17  S   UNL d   1      50.918  34.651  52.980  0.00  0.00    -0.028 SA
BRANCH  17  18
ATOM     18  C   UNL d   1      50.296  34.254  52.626  0.00  0.00     0.309 C 
ATOM     19  F   UNL d   1      50.102  34.418  51.851  0.00  0.00    -0.165 F 
ATOM     20  F   UNL d   1      49.871  33.701  53.036  0.00  0.00    -0.165 F 
ENDBRANCH  17  18
ENDBRANCH   2  17
TORSDOF 5
ENDMDL
MODEL 6
REMARK VINA RESULT:      -7.7      2.264      3.983
REMARK  5 active torsions:
REMARK  status: ('A' for Active; 'I' for Inactive)
REMARK       I    between atoms: N_3  and  C_1 
REMARK    1  A    between atoms: C_6  and  C_1 
REMARK    2  A    between atoms: C_2  and  S_4 
REMARK    3  A    between atoms: C_7  and  N_3 
REMARK    4  A    between atoms: S_4  and  C_8 
REMARK    5  A    between atoms: C_15  and  C_6 
ROOT
ATOM      1  C   UNL d   1      53.387  32.315  53.388  0.00  0.00     0.085 A 
ATOM      2  C   UNL d   1      54.147  33.454  54.264  0.00  0.00     0.034 A 
ATOM      3  C   UNL d   1      54.199  32.422  53.298  0.00  0.00     0.020 A 
ATOM      4  C   UNL d   1      52.954  32.770  53.908  0.00  0.00     0.020 A 
ATOM      5  C   UNL d   1      53.328  33.342  54.350  0.00  0.00     0.008 A 
ATOM      6  C   UNL d   1      54.581  32.997  53.741  0.00  0.00     0.008 A 
ENDROOT
BRANCH   1   7
ATOM      7  N   UNL d   1      53.002  31.736  52.943  0.00  0.00    -0.208 NA
ATOM      8  C   UNL d   1      53.007  30.949  53.199  0.00  0.00     0.279 C 
ATOM      9  O   UNL d   1      52.631  30.378  52.767  0.00  0.00    -0.265 OA
BRANCH   8  10
ATOM     10  C   UNL d   1      53.394  30.755  53.894  0.00  0.00     0.062 C 
BRANCH  10  11
ATOM     11  C   UNL d   1      53.392  29.997  54.157  0.00  0.00     0.005 A 
ATOM     12  C   UNL d   1      53.763  29.398  53.719  0.00  0.00     0.000 A 
ATOM     13  C   UNL d   1      53.763  28.602  53.991  0.00  0.00     0.000 A 
ATOM     14  C   UNL d   1      53.381  28.418  54.717  0.00  0.00     0.000 A 
ATOM     15  C   UNL d   1      53.006  29.021  55.161  0.00  0.00     0.000 A 
ATOM     16  C   UNL d   1      53.015  29.806  54.876  0.00  0.00     0.000 A 
ENDBRANCH  10  11
ENDBRANCH   8  10
ENDBRANCH   1   7
BRANCH   2  17
ATOM     17  S   UNL d   1      54.523  34.029  54.707  0.00  0.00    -0.028 SA
BRANCH  17  18
ATOM     18  C   UNL d   1      55.150  33.835  55.196  0.00  0.00     0.309 C 
ATOM     19  F   UNL d   1      55.910  34.028  54.973  0.00  0.00    -0.165 F 
ATOM     20  F   UNL d   1      55.024  33.456  55.899  0.00  0.00    -0.165 F 
ENDBRANCH  17  18
ENDBRANCH   2  17
TORSDOF 5
ENDMDL
