MODEL 1
REMARK VINA RESULT:      31.4      0.000      0.000
REMARK  3 active torsions:
REMARK  status: ('A' for Active; 'I' for Inactive)
REMARK    1  A    between atoms: C_13  and  C_3 
REMARK    2  A    between atoms: C_4  and  S_11 
REMARK    3  A    between atoms: S_11  and  C_13 
ROOT
ATOM      1  C   UNL d   1     -54.912-102.290 -37.684  0.00  0.00     0.141 A 
ATOM      2  N   UNL d   1     -54.952-102.426 -36.893  0.00  0.00    -0.232 NA
ATOM      3  S   UNL d   1     -54.817-101.487 -37.816  0.00  0.00    -0.060 SA
ATOM      4  C   UNL d   1     -54.881-101.701 -36.510  0.00  0.00     0.088 A 
ATOM      5  C   UNL d   1     -54.797-101.120 -37.081  0.00  0.00     0.049 A 
ATOM      6  C   UNL d   1     -54.883-101.506 -35.709  0.00  0.00     0.020 A 
ATOM      7  C   UNL d   1     -54.714-100.331 -36.865  0.00  0.00     0.008 A 
ATOM      8  C   UNL d   1     -54.716-100.131 -36.063  0.00  0.00     0.001 A 
ATOM      9  C   UNL d   1     -54.799-100.712 -35.492  0.00  0.00     0.002 A 
ENDROOT
BRANCH   1  10
ATOM     10  S   UNL d   1     -54.960-102.876 -38.287  0.00  0.00    -0.058 SA
BRANCH  10  11
ATOM     11  C   UNL d   1     -55.573-102.844 -38.826  0.00  0.00     0.077 C 
BRANCH  11  12
ATOM     12  C   UNL d   1     -55.413-102.608 -39.614  0.00  0.00     0.178 A 
ATOM     13  N   UNL d   1     -56.014-102.612 -40.165  0.00  0.00    -0.262 N 
ATOM     14  C   UNL d   1     -55.684-102.351 -40.891  0.00  0.00     0.227 A 
ATOM     15  C   UNL d   1     -56.806-102.832 -40.041  0.00  0.00     0.103 C 
ATOM     16  N   UNL d   1     -54.905-102.199 -40.760  0.00  0.00    -0.117 NA
ATOM     17  S   UNL d   1     -56.095-102.264 -41.627  0.00  0.00    -0.036 SA
ATOM     18  N   UNL d   1     -54.711-102.346 -39.990  0.00  0.00    -0.127 NA
ENDBRANCH  11  12
ENDBRANCH  10  11
ENDBRANCH   1  10
TORSDOF 3
ENDMDL
