MODEL 1
REMARK VINA RESULT:      42.2      0.000      0.000
REMARK  4 active torsions:
REMARK  status: ('A' for Active; 'I' for Inactive)
REMARK    1  A    between atoms: N_2  and  S_1 
REMARK    2  A    between atoms: C_4  and  S_1 
REMARK    3  A    between atoms: C_3  and  C_8 
REMARK       I    between atoms: N_5  and  C_3 
REMARK    4  A    between atoms: C_17  and  N_5 
ROOT
ATOM      1  C   UNL d   1      45.995 -18.636  41.632  0.00  0.00     0.104 A 
ATOM      2  C   UNL d   1      45.605 -18.001  40.170  0.00  0.00     0.058 A 
ATOM      3  C   UNL d   1      46.572 -18.553  41.048  0.00  0.00     0.013 A 
ATOM      4  C   UNL d   1      45.206 -18.395  41.480  0.00  0.00     0.013 A 
ATOM      5  C   UNL d   1      46.377 -18.237  40.319  0.00  0.00     0.005 A 
ATOM      6  C   UNL d   1      45.016 -18.078  40.745  0.00  0.00     0.005 A 
ENDROOT
BRANCH   2   7
ATOM      7  C   UNL d   1      45.393 -17.675  39.427  0.00  0.00     0.279 C 
ATOM      8  N   UNL d   1      45.439 -16.865  39.296  0.00  0.00    -0.208 NA
ATOM      9  O   UNL d   1      45.136 -18.202  38.832  0.00  0.00    -0.265 OA
BRANCH   8  10
ATOM     10  C   UNL d   1      45.228 -16.543  38.555  0.00  0.00     0.085 A 
ATOM     11  C   UNL d   1      45.799 -16.127  38.110  0.00  0.00     0.020 A 
ATOM     12  C   UNL d   1      45.602 -15.808  37.384  0.00  0.00     0.013 A 
ATOM     13  C   UNL d   1      44.835 -15.896  37.089  0.00  0.00     0.058 A 
ATOM     14  C   UNL d   1      44.264 -16.312  37.534  0.00  0.00     0.013 A 
ATOM     15 CL   UNL d   1      44.639 -15.563  36.337  0.00  0.00    -0.082 Cl
ATOM     16  C   UNL d   1      44.468 -16.632  38.267  0.00  0.00     0.020 A 
ENDBRANCH   8  10
ENDBRANCH   2   7
BRANCH   1  17
ATOM     17  S   UNL d   1      46.174 -18.957  42.385  0.00  0.00     0.272 S 
ATOM     18  O   UNL d   1      46.607 -19.587  42.044  0.00  0.00    -0.200 OA
ATOM     19  O   UNL d   1      45.733 -18.318  42.743  0.00  0.00    -0.200 OA
BRANCH  17  20
ATOM     20  N   UNL d   1      46.334 -19.253  43.153  0.00  0.00    -0.225 N 
ATOM     21  C   UNL d   1      46.487 -20.051  43.270  0.00  0.00     0.118 A 
ATOM     22  C   UNL d   1      46.643 -20.330  44.024  0.00  0.00     0.142 A 
ATOM     23  O   UNL d   1      46.647 -19.794  44.685  0.00  0.00    -0.300 OA
ATOM     24  C   UNL d   1      46.495 -18.995  44.572  0.00  0.00     0.142 A 
ATOM     25  C   UNL d   1      46.338 -18.717  43.814  0.00  0.00     0.118 A 
ENDBRANCH  17  20
ENDBRANCH   1  17
TORSDOF 4
ENDMDL
