MODEL 1
REMARK VINA RESULT:      64.3      0.000      0.000
REMARK  4 active torsions:
REMARK  status: ('A' for Active; 'I' for Inactive)
REMARK    1  A    between atoms: C_10  and  C_3 
REMARK    2  A    between atoms: C_11  and  N_5 
REMARK    3  A    between atoms: O_17  and  C_10 
REMARK    4  A    between atoms: C_21  and  O_17 
ROOT
ATOM      1  C   UNL d   1      60.465  49.156  51.703  0.00  0.00     0.086 A 
ATOM      2  C   UNL d   1      60.952  48.776  51.162  0.00  0.00     0.038 A 
ATOM      3  C   UNL d   1      60.652  48.542  50.430  0.00  0.00     0.165 A 
ATOM      4  C   UNL d   1      59.673  49.305  51.516  0.00  0.00     0.282 A 
ATOM      5  N   UNL d   1      59.372  49.073  50.787  0.00  0.00    -0.194 N 
ATOM      6  N   UNL d   1      59.859  48.691  50.242  0.00  0.00    -0.157 NA
ATOM      7  C   UNL d   1      60.919  49.318  52.375  0.00  0.00     0.137 A 
ATOM      8  C   UNL d   1      61.701  48.706  51.501  0.00  0.00     0.039 A 
ATOM      9  S   UNL d   1      61.679  49.039  52.244  0.00  0.00    -0.066 SA
ATOM     10  O   UNL d   1      59.178  49.690  52.063  0.00  0.00    -0.265 OA
ATOM     11  N   UNL d   1      60.668  49.698  53.073  0.00  0.00    -0.141 N 
ENDROOT
BRANCH   5  12
ATOM     12  C   UNL d   1      58.585  49.221  50.601  0.00  0.00     0.086 A 
ATOM     13  C   UNL d   1      58.035  49.348  51.203  0.00  0.00     0.019 A 
ATOM     14  C   UNL d   1      57.240  49.497  51.015  0.00  0.00     0.002 A 
ATOM     15  C   UNL d   1      57.001  49.519  50.226  0.00  0.00     0.000 A 
ATOM     16  C   UNL d   1      57.549  49.393  49.627  0.00  0.00     0.002 A 
ATOM     17  C   UNL d   1      56.213  49.668  50.039  0.00  0.00     0.000 C 
ATOM     18  C   UNL d   1      58.344  49.243  49.815  0.00  0.00     0.019 A 
ENDBRANCH   5  12
BRANCH   3  19
ATOM     19  C   UNL d   1      61.147  48.157  49.883  0.00  0.00     0.320 C 
ATOM     20  O   UNL d   1      61.408  48.560  49.216  0.00  0.00    -0.257 OA
BRANCH  19  21
ATOM     21  O   UNL d   1      61.375  47.371  50.008  0.00  0.00    -0.270 OA
BRANCH  21  22
ATOM     22  C   UNL d   1      62.057  47.080  49.655  0.00  0.00     0.126 C 
ATOM     23  C   UNL d   1      62.010  46.444  49.120  0.00  0.00     0.029 C 
ENDBRANCH  21  22
ENDBRANCH  19  21
ENDBRANCH   3  19
TORSDOF 4
ENDMDL
