MODEL 1
REMARK VINA RESULT:      -3.4      0.000      0.000
REMARK  5 active torsions:
REMARK  status: ('A' for Active; 'I' for Inactive)
REMARK    1  A    between atoms: C_11  and  C_1 
REMARK    2  A    between atoms: C_14  and  N_4 
REMARK    3  A    between atoms: C_5  and  S_12 
REMARK    4  A    between atoms: C_16  and  C_11 
REMARK    5  A    between atoms: S_12  and  C_16 
ROOT
ATOM      1  C   UNL d   1      32.893  18.429 -23.164  0.00  0.00     0.057 A 
ATOM      2  C   UNL d   1      32.360  18.097 -23.711  0.00  0.00     0.067 A 
ATOM      3  N   UNL d   1      32.386  17.286 -23.626  0.00  0.00    -0.306 N 
ATOM      4  C   UNL d   1      32.933  17.096 -23.024  0.00  0.00     0.064 A 
ATOM      5  C   UNL d   1      33.240  17.818 -22.746  0.00  0.00     0.022 A 
ATOM      6  C   UNL d   1      31.871  18.526 -24.268  0.00  0.00     0.019 C 
ATOM      7  C   UNL d   1      33.133  16.333 -22.755  0.00  0.00     0.019 C 
ENDROOT
BRANCH   1   8
ATOM      8  C   UNL d   1      32.976  19.246 -23.134  0.00  0.00     0.204 C 
ATOM      9  O   UNL d   1      33.240  19.638 -23.800  0.00  0.00    -0.286 OA
BRANCH   8  10
ATOM     10  C   UNL d   1      32.794  19.665 -22.442  0.00  0.00     0.080 C 
BRANCH  10  11
ATOM     11  S   UNL d   1      33.051  20.436 -22.344  0.00  0.00    -0.044 SA
BRANCH  11  12
ATOM     12  C   UNL d   1      32.711  20.923 -21.765  0.00  0.00     0.201 A 
ATOM     13  N   UNL d   1      32.755  21.735 -21.699  0.00  0.00    -0.268 N 
ATOM     14  C   UNL d   1      32.324  21.966 -21.025  0.00  0.00     0.171 A 
ATOM     15  C   UNL d   1      33.137  22.320 -22.167  0.00  0.00     0.084 A 
ATOM     16  C   UNL d   1      32.274  22.775 -20.822  0.00  0.00     0.039 A 
ATOM     17  N   UNL d   1      32.022  21.287 -20.690  0.00  0.00    -0.128 NA
ATOM     18  C   UNL d   1      32.648  23.348 -21.281  0.00  0.00     0.005 A 
ATOM     19  C   UNL d   1      33.072  23.114 -21.945  0.00  0.00     0.019 A 
ATOM     20  N   UNL d   1      32.256  20.659 -21.136  0.00  0.00    -0.121 NA
ENDBRANCH  11  12
ENDBRANCH  10  11
ENDBRANCH   8  10
ENDBRANCH   1   8
BRANCH   3  21
ATOM     21  C   UNL d   1      31.978  16.674 -24.019  0.00  0.00     0.064 A 
ATOM     22  C   UNL d   1      31.256  16.402 -23.724  0.00  0.00     0.018 A 
ATOM     23  C   UNL d   1      30.855  15.799 -24.113  0.00  0.00     0.002 A 
ATOM     24  C   UNL d   1      31.166  15.468 -24.790  0.00  0.00     0.000 A 
ATOM     25  C   UNL d   1      31.894  15.740 -25.090  0.00  0.00     0.002 A 
ATOM     26  C   UNL d   1      32.288  16.341 -24.699  0.00  0.00     0.018 A 
ENDBRANCH   3  21
TORSDOF 5
ENDMDL
MODEL 2
REMARK VINA RESULT:      -2.9      1.001      5.766
REMARK  5 active torsions:
REMARK  status: ('A' for Active; 'I' for Inactive)
REMARK    1  A    between atoms: C_11  and  C_1 
REMARK    2  A    between atoms: C_14  and  N_4 
REMARK    3  A    between atoms: C_5  and  S_12 
REMARK    4  A    between atoms: C_16  and  C_11 
REMARK    5  A    between atoms: S_12  and  C_16 
ROOT
ATOM      1  C   UNL d   1      33.077  20.701 -22.148  0.00  0.00     0.057 A 
ATOM      2  C   UNL d   1      32.828  21.047 -21.432  0.00  0.00     0.067 A 
ATOM      3  N   UNL d   1      32.840  21.857 -21.526  0.00  0.00    -0.306 N 
ATOM      4  C   UNL d   1      33.097  22.033 -22.301  0.00  0.00     0.064 A 
ATOM      5  C   UNL d   1      33.241  21.304 -22.676  0.00  0.00     0.022 A 
ATOM      6  C   UNL d   1      32.598  20.630 -20.721  0.00  0.00     0.019 C 
ATOM      7  C   UNL d   1      33.192  22.791 -22.634  0.00  0.00     0.019 C 
ENDROOT
BRANCH   1   8
ATOM      8  C   UNL d   1      33.115  19.882 -22.204  0.00  0.00     0.204 C 
ATOM      9  O   UNL d   1      33.241  19.448 -21.523  0.00  0.00    -0.286 OA
BRANCH   8  10
ATOM     10  C   UNL d   1      33.028  19.503 -22.936  0.00  0.00     0.080 C 
BRANCH  10  11
ATOM     11  S   UNL d   1      32.868  18.701 -22.972  0.00  0.00    -0.044 SA
BRANCH  11  12
ATOM     12  C   UNL d   1      32.606  18.355 -23.677  0.00  0.00     0.201 A 
ATOM     13  N   UNL d   1      32.487  17.564 -23.838  0.00  0.00    -0.268 N 
ATOM     14  C   UNL d   1      32.222  17.494 -24.624  0.00  0.00     0.171 A 
ATOM     15  C   UNL d   1      32.582  16.872 -23.370  0.00  0.00     0.084 A 
ATOM     16  C   UNL d   1      32.054  16.738 -24.939  0.00  0.00     0.039 A 
ATOM     17  N   UNL d   1      32.184  18.247 -24.932  0.00  0.00    -0.128 NA
ATOM     18  C   UNL d   1      32.147  16.060 -24.481  0.00  0.00     0.005 A 
ATOM     19  C   UNL d   1      32.409  16.136 -23.705  0.00  0.00     0.019 A 
ATOM     20  N   UNL d   1      32.416  18.765 -24.361  0.00  0.00    -0.121 NA
ENDBRANCH  11  12
ENDBRANCH  10  11
ENDBRANCH   8  10
ENDBRANCH   1   8
BRANCH   3  21
ATOM     21  C   UNL d   1      32.650  22.478 -21.004  0.00  0.00     0.064 A 
ATOM     22  C   UNL d   1      33.139  22.641 -20.359  0.00  0.00     0.018 A 
ATOM     23  C   UNL d   1      32.950  23.254 -19.844  0.00  0.00     0.002 A 
ATOM     24  C   UNL d   1      32.281  23.702 -19.969  0.00  0.00     0.000 A 
ATOM     25  C   UNL d   1      31.785  23.541 -20.618  0.00  0.00     0.002 A 
ATOM     26  C   UNL d   1      31.978  22.930 -21.127  0.00  0.00     0.018 A 
ENDBRANCH   3  21
TORSDOF 5
ENDMDL
MODEL 3
REMARK VINA RESULT:      -1.2      1.841      2.863
REMARK  5 active torsions:
REMARK  status: ('A' for Active; 'I' for Inactive)
REMARK    1  A    between atoms: C_11  and  C_1 
REMARK    2  A    between atoms: C_14  and  N_4 
REMARK    3  A    between atoms: C_5  and  S_12 
REMARK    4  A    between atoms: C_16  and  C_11 
REMARK    5  A    between atoms: S_12  and  C_16 
ROOT
ATOM      1  C   UNL d   1      31.262  17.612 -24.488  0.00  0.00     0.057 A 
ATOM      2  C   UNL d   1      30.889  16.908 -24.244  0.00  0.00     0.067 A 
ATOM      3  N   UNL d   1      30.088  16.990 -24.374  0.00  0.00    -0.306 N 
ATOM      4  C   UNL d   1      29.944  17.746 -24.700  0.00  0.00     0.064 A 
ATOM      5  C   UNL d   1      30.685  18.121 -24.765  0.00  0.00     0.022 A 
ATOM      6  C   UNL d   1      31.274  16.217 -23.916  0.00  0.00     0.019 C 
ATOM      7  C   UNL d   1      29.205  18.062 -24.917  0.00  0.00     0.019 C 
ENDROOT
BRANCH   1   8
ATOM      8  C   UNL d   1      32.078  17.676 -24.416  0.00  0.00     0.204 C 
ATOM      9  O   UNL d   1      32.517  16.997 -24.303  0.00  0.00    -0.286 OA
BRANCH   8  10
ATOM     10  C   UNL d   1      32.449  18.416 -24.459  0.00  0.00     0.080 C 
BRANCH  10  11
ATOM     11  S   UNL d   1      33.022  18.625 -23.912  0.00  0.00    -0.044 SA
BRANCH  11  12
ATOM     12  C   UNL d   1      33.100  19.412 -23.664  0.00  0.00     0.201 A 
ATOM     13  N   UNL d   1      33.118  19.702 -22.901  0.00  0.00    -0.268 N 
ATOM     14  C   UNL d   1      33.205  20.529 -22.938  0.00  0.00     0.171 A 
ATOM     15  C   UNL d   1      33.065  19.324 -22.152  0.00  0.00     0.084 A 
ATOM     16  C   UNL d   1      33.240  20.974 -22.231  0.00  0.00     0.039 A 
ATOM     17  N   UNL d   1      33.240  20.731 -23.726  0.00  0.00    -0.128 NA
ATOM     18  C   UNL d   1      33.188  20.604 -21.497  0.00  0.00     0.005 A 
ATOM     19  C   UNL d   1      33.102  19.787 -21.468  0.00  0.00     0.019 A 
ATOM     20  N   UNL d   1      33.177  20.058 -24.163  0.00  0.00    -0.121 NA
ENDBRANCH  11  12
ENDBRANCH  10  11
ENDBRANCH   8  10
ENDBRANCH   1   8
BRANCH   3  21
ATOM     21  C   UNL d   1      29.449  16.472 -24.238  0.00  0.00     0.064 A 
ATOM     22  C   UNL d   1      29.113  16.418 -23.485  0.00  0.00     0.018 A 
ATOM     23  C   UNL d   1      28.483  15.907 -23.352  0.00  0.00     0.002 A 
ATOM     24  C   UNL d   1      28.187  15.453 -23.962  0.00  0.00     0.000 A 
ATOM     25  C   UNL d   1      28.523  15.505 -24.722  0.00  0.00     0.002 A 
ATOM     26  C   UNL d   1      29.150  16.015 -24.848  0.00  0.00     0.018 A 
ENDBRANCH   3  21
TORSDOF 5
ENDMDL
