MODEL 1
REMARK VINA RESULT:      -4.0      0.000      0.000
REMARK  5 active torsions:
REMARK  status: ('A' for Active; 'I' for Inactive)
REMARK    1  A    between atoms: C_9  and  N_1 
REMARK    2  A    between atoms: C_2  and  C_9 
REMARK    3  A    between atoms: S_14  and  C_5 
REMARK    4  A    between atoms: C_12  and  C_16 
REMARK       I    between atoms: N_13  and  C_12 
REMARK    5  A    between atoms: C_16  and  S_14 
ROOT
ATOM      1  C   UNL d   1      58.197  -1.144  30.012  0.00  0.00     0.189 A 
ATOM      2  N   UNL d   1      58.081  -0.413  30.363  0.00  0.00    -0.265 N 
ATOM      3  C   UNL d   1      57.577  -0.518  31.007  0.00  0.00     0.202 A 
ATOM      4  N   UNL d   1      57.766  -1.702  30.434  0.00  0.00    -0.126 NA
ATOM      5  N   UNL d   1      57.380  -1.316  31.051  0.00  0.00    -0.121 NA
ATOM      6  C   UNL d   1      58.406   0.310  30.127  0.00  0.00     0.103 C 
ENDROOT
BRANCH   1   7
ATOM      7  C   UNL d   1      58.678  -1.210  29.354  0.00  0.00     0.123 C 
BRANCH   7   8
ATOM      8  N   UNL d   1      58.935  -1.952  29.096  0.00  0.00    -0.265 N 
ATOM      9  C   UNL d   1      58.457  -2.547  28.770  0.00  0.00     0.296 A 
ATOM     10  S   UNL d   1      58.945  -3.187  28.593  0.00  0.00    -0.025 SA
ATOM     11  O   UNL d   1      57.644  -2.503  28.647  0.00  0.00    -0.259 OA
ATOM     12  C   UNL d   1      59.725  -2.981  28.812  0.00  0.00     0.050 A 
ATOM     13  C   UNL d   1      59.710  -2.219  29.120  0.00  0.00     0.074 A 
ATOM     14  C   UNL d   1      60.439  -3.399  28.764  0.00  0.00     0.008 A 
ATOM     15  C   UNL d   1      60.416  -1.867  29.386  0.00  0.00     0.018 A 
ATOM     16  C   UNL d   1      61.132  -2.281  29.341  0.00  0.00     0.002 A 
ATOM     17  C   UNL d   1      61.133  -3.053  29.026  0.00  0.00     0.001 A 
ENDBRANCH   7   8
ENDBRANCH   1   7
BRANCH   3  18
ATOM     18  S   UNL d   1      57.312   0.073  31.519  0.00  0.00    -0.043 SA
BRANCH  18  19
ATOM     19  C   UNL d   1      56.721  -0.087  32.076  0.00  0.00     0.099 C 
BRANCH  19  20
ATOM     20  C   UNL d   1      56.726   0.295  32.810  0.00  0.00     0.271 C 
ATOM     21  N   UNL d   1      56.048   0.304  33.275  0.00  0.00    -0.272 N 
ATOM     22  C   UNL d   1      55.297  -0.015  33.157  0.00  0.00     0.083 A 
ATOM     23  C   UNL d   1      56.052   0.681  34.000  0.00  0.00     0.083 A 
ATOM     24  C   UNL d   1      54.839   0.172  33.820  0.00  0.00     0.021 A 
ATOM     25  C   UNL d   1      55.307   0.598  34.332  0.00  0.00     0.021 A 
ATOM     26  O   UNL d   1      57.415   0.670  33.077  0.00  0.00    -0.266 OA
ENDBRANCH  19  20
ENDBRANCH  18  19
ENDBRANCH   3  18
TORSDOF 5
ENDMDL
