MODEL 1
REMARK VINA RESULT:     104.7      0.000      0.000
REMARK  3 active torsions:
REMARK  status: ('A' for Active; 'I' for Inactive)
REMARK    1  A    between atoms: N_11  and  C_1 
REMARK    2  A    between atoms: N_5  and  C_4 
REMARK    3  A    between atoms: C_7  and  C_10 
REMARK       I    between atoms: C_10  and  N_12 
ROOT
ATOM      1  C   UNL d   1      60.333  49.121  50.957  0.00  0.00     0.288 C 
ATOM      2  N   UNL d   1      60.970  46.740  50.678  0.00  0.00    -0.281 N 
ATOM      3  N   UNL d   1      60.544  48.320  50.864  0.00  0.00    -0.267 N 
ATOM      4  C   UNL d   1      60.186  46.944  50.783  0.00  0.00     0.101 A 
ATOM      5  C   UNL d   1      61.549  47.330  50.666  0.00  0.00     0.101 A 
ATOM      6  C   UNL d   1      59.965  47.730  50.876  0.00  0.00     0.102 A 
ATOM      7  C   UNL d   1      61.344  48.125  50.758  0.00  0.00     0.102 A 
ATOM      8  O   UNL d   1      60.907  49.705  50.945  0.00  0.00    -0.264 OA
ENDROOT
BRANCH   2   9
ATOM      9  C   UNL d   1      61.190  45.954  50.585  0.00  0.00     0.179 A 
ATOM     10  N   UNL d   1      61.139  45.367  51.166  0.00  0.00    -0.222 NA
ATOM     11  C   UNL d   1      61.414  44.662  50.848  0.00  0.00     0.089 A 
ATOM     12  C   UNL d   1      61.491  43.914  51.160  0.00  0.00     0.018 A 
ATOM     13  C   UNL d   1      61.638  44.810  50.067  0.00  0.00     0.050 A 
ATOM     14  C   UNL d   1      61.789  43.303  50.703  0.00  0.00     0.002 A 
ATOM     15  C   UNL d   1      61.266  43.767  51.940  0.00  0.00     0.002 C 
ATOM     16  C   UNL d   1      62.013  43.451  49.923  0.00  0.00     0.001 A 
ATOM     17  C   UNL d   1      61.935  44.210  49.609  0.00  0.00     0.007 A 
ATOM     18  C   UNL d   1      62.158  44.356  48.832  0.00  0.00     0.001 C 
ATOM     19  S   UNL d   1      61.503  45.599  49.901  0.00  0.00    -0.048 SA
ENDBRANCH   2   9
BRANCH   1  20
ATOM     20  C   UNL d   1      59.537  49.313  51.062  0.00  0.00     0.158 A 
ATOM     21  O   UNL d   1      58.940  49.265  50.485  0.00  0.00    -0.281 OA
ATOM     22  C   UNL d   1      58.233  49.514  50.844  0.00  0.00     0.228 A 
ATOM     23  C   UNL d   1      58.406  49.708  51.625  0.00  0.00     0.051 A 
ATOM     24  C   UNL d   1      59.210  49.583  51.754  0.00  0.00     0.034 A 
BRANCH  22  25
ATOM     25  N   UNL d   1      57.486  49.561  50.486  0.00  0.00    -0.089 N 
ATOM     26  O   UNL d   1      57.431  49.706  49.659  0.00  0.00    -0.530 OA
ATOM     27  O   UNL d   1      56.802  49.468  50.927  0.00  0.00    -0.530 OA
ENDBRANCH  22  25
ENDBRANCH   1  20
TORSDOF 3
ENDMDL
