MODEL 1
REMARK VINA RESULT:      -5.4      0.000      0.000
REMARK  0 active torsions:
REMARK  status: ('A' for Active; 'I' for Inactive)
ROOT
ATOM      1  N   UNL d   1      53.938  34.547  54.896  0.00  0.00    -0.219 NA
ATOM      2  C   UNL d   1      53.257  34.547  54.429  0.00  0.00     0.215 A 
ATOM      3  S   UNL d   1      53.130  33.786  54.156  0.00  0.00    -0.045 SA
ATOM      4  C   UNL d   1      54.231  33.776  54.909  0.00  0.00     0.090 A 
ATOM      5  C   UNL d   1      53.732  33.298  54.450  0.00  0.00     0.050 A 
ATOM      6  N   UNL d   1      52.784  35.206  54.264  0.00  0.00    -0.120 N 
ATOM      7  C   UNL d   1      54.904  33.518  55.309  0.00  0.00     0.021 C 
ATOM      8  C   UNL d   1      53.814  32.495  54.311  0.00  0.00     0.009 C 
ENDROOT
TORSDOF 0
ENDMDL
MODEL 2
REMARK VINA RESULT:      -5.2      1.769      2.115
REMARK  0 active torsions:
REMARK  status: ('A' for Active; 'I' for Inactive)
ROOT
ATOM      1  N   UNL d   1      53.699  32.075  54.005  0.00  0.00    -0.219 NA
ATOM      2  C   UNL d   1      53.148  32.171  53.398  0.00  0.00     0.215 A 
ATOM      3  S   UNL d   1      52.899  32.951  53.395  0.00  0.00    -0.045 SA
ATOM      4  C   UNL d   1      53.788  32.805  54.379  0.00  0.00     0.090 A 
ATOM      5  C   UNL d   1      53.292  33.354  54.004  0.00  0.00     0.050 A 
ATOM      6  N   UNL d   1      52.891  31.579  52.879  0.00  0.00    -0.120 N 
ATOM      7  C   UNL d   1      54.284  32.967  55.018  0.00  0.00     0.021 C 
ATOM      8  C   UNL d   1      53.205  34.146  54.194  0.00  0.00     0.009 C 
ENDROOT
TORSDOF 0
ENDMDL
MODEL 3
REMARK VINA RESULT:      -5.2      1.460      1.870
REMARK  0 active torsions:
REMARK  status: ('A' for Active; 'I' for Inactive)
ROOT
ATOM      1  N   UNL d   1      53.019  33.361  53.833  0.00  0.00    -0.219 NA
ATOM      2  C   UNL d   1      53.377  32.643  53.639  0.00  0.00     0.215 A 
ATOM      3  S   UNL d   1      54.039  32.548  54.112  0.00  0.00    -0.045 SA
ATOM      4  C   UNL d   1      53.467  33.710  54.431  0.00  0.00     0.090 A 
ATOM      5  C   UNL d   1      54.103  33.208  54.609  0.00  0.00     0.050 A 
ATOM      6  N   UNL d   1      53.112  32.110  53.064  0.00  0.00    -0.120 N 
ATOM      7  C   UNL d   1      53.314  34.434  54.796  0.00  0.00     0.021 C 
ATOM      8  C   UNL d   1      54.688  33.335  55.169  0.00  0.00     0.009 C 
ENDROOT
TORSDOF 0
ENDMDL
MODEL 4
REMARK VINA RESULT:      -5.1      1.460      2.175
REMARK  0 active torsions:
REMARK  status: ('A' for Active; 'I' for Inactive)
ROOT
ATOM      1  N   UNL d   1      54.043  32.199  54.268  0.00  0.00    -0.219 NA
ATOM      2  C   UNL d   1      54.086  32.946  54.616  0.00  0.00     0.215 A 
ATOM      3  S   UNL d   1      53.528  33.430  54.262  0.00  0.00    -0.045 SA
ATOM      4  C   UNL d   1      53.451  32.225  53.693  0.00  0.00     0.090 A 
ATOM      5  C   UNL d   1      53.127  32.989  53.686  0.00  0.00     0.050 A 
ATOM      6  N   UNL d   1      54.606  33.169  55.221  0.00  0.00    -0.120 N 
ATOM      7  C   UNL d   1      53.217  31.602  53.207  0.00  0.00     0.021 C 
ATOM      8  C   UNL d   1      52.525  33.261  53.201  0.00  0.00     0.009 C 
ENDROOT
TORSDOF 0
ENDMDL
MODEL 5
REMARK VINA RESULT:      -5.0      2.406      2.978
REMARK  0 active torsions:
REMARK  status: ('A' for Active; 'I' for Inactive)
ROOT
ATOM      1  N   UNL d   1      52.797  31.878  52.867  0.00  0.00    -0.219 NA
ATOM      2  C   UNL d   1      53.240  31.292  53.244  0.00  0.00     0.215 A 
ATOM      3  S   UNL d   1      53.693  31.644  53.828  0.00  0.00    -0.045 SA
ATOM      4  C   UNL d   1      52.982  32.598  53.225  0.00  0.00     0.090 A 
ATOM      5  C   UNL d   1      53.539  32.458  53.823  0.00  0.00     0.050 A 
ATOM      6  N   UNL d   1      53.227  30.484  53.061  0.00  0.00    -0.120 N 
ATOM      7  C   UNL d   1      52.669  33.335  53.026  0.00  0.00     0.021 C 
ATOM      8  C   UNL d   1      53.876  33.016  54.320  0.00  0.00     0.009 C 
ENDROOT
TORSDOF 0
ENDMDL
MODEL 6
REMARK VINA RESULT:      -4.9      2.136      2.843
REMARK  0 active torsions:
REMARK  status: ('A' for Active; 'I' for Inactive)
ROOT
ATOM      1  N   UNL d   1      52.233  32.936  52.808  0.00  0.00    -0.219 NA
ATOM      2  C   UNL d   1      52.909  32.751  53.244  0.00  0.00     0.215 A 
ATOM      3  S   UNL d   1      53.178  33.433  53.608  0.00  0.00    -0.045 SA
ATOM      4  C   UNL d   1      52.085  33.742  52.908  0.00  0.00     0.090 A 
ATOM      5  C   UNL d   1      52.670  34.056  53.405  0.00  0.00     0.050 A 
ATOM      6  N   UNL d   1      53.257  32.002  53.302  0.00  0.00    -0.120 N 
ATOM      7  C   UNL d   1      51.464  34.168  52.572  0.00  0.00     0.021 C 
ATOM      8  C   UNL d   1      52.739  34.835  53.651  0.00  0.00     0.009 C 
ENDROOT
TORSDOF 0
ENDMDL
MODEL 7
REMARK VINA RESULT:      -4.2      1.998      2.659
REMARK  0 active torsions:
REMARK  status: ('A' for Active; 'I' for Inactive)
ROOT
ATOM      1  N   UNL d   1      52.098  33.892  54.052  0.00  0.00    -0.219 NA
ATOM      2  C   UNL d   1      52.668  34.436  53.806  0.00  0.00     0.215 A 
ATOM      3  S   UNL d   1      52.541  34.605  53.015  0.00  0.00    -0.045 SA
ATOM      4  C   UNL d   1      51.616  33.726  53.403  0.00  0.00     0.090 A 
ATOM      5  C   UNL d   1      51.888  34.167  52.755  0.00  0.00     0.050 A 
ATOM      6  N   UNL d   1      53.267  34.757  54.279  0.00  0.00    -0.120 N 
ATOM      7  C   UNL d   1      50.973  33.210  53.395  0.00  0.00     0.021 C 
ATOM      8  C   UNL d   1      51.572  34.172  51.999  0.00  0.00     0.009 C 
ENDROOT
TORSDOF 0
ENDMDL
MODEL 8
REMARK VINA RESULT:      -3.3     10.517     10.760
REMARK  0 active torsions:
REMARK  status: ('A' for Active; 'I' for Inactive)
ROOT
ATOM      1  N   UNL d   1      45.306  28.370  58.419  0.00  0.00    -0.219 NA
ATOM      2  C   UNL d   1      45.340  27.701  57.936  0.00  0.00     0.215 A 
ATOM      3  S   UNL d   1      45.163  27.925  57.168  0.00  0.00    -0.045 SA
ATOM      4  C   UNL d   1      45.106  29.012  57.940  0.00  0.00     0.090 A 
ATOM      5  C   UNL d   1      45.016  28.741  57.161  0.00  0.00     0.050 A 
ATOM      6  N   UNL d   1      45.521  26.933  58.187  0.00  0.00    -0.120 N 
ATOM      7  C   UNL d   1      45.010  29.793  58.188  0.00  0.00     0.021 C 
ATOM      8  C   UNL d   1      44.820  29.190  56.505  0.00  0.00     0.009 C 
ENDROOT
TORSDOF 0
ENDMDL
MODEL 9
REMARK VINA RESULT:      -3.2     10.345     10.506
REMARK  0 active torsions:
REMARK  status: ('A' for Active; 'I' for Inactive)
ROOT
ATOM      1  N   UNL d   1      45.433  28.875  58.646  0.00  0.00    -0.219 NA
ATOM      2  C   UNL d   1      45.176  29.650  58.525  0.00  0.00     0.215 A 
ATOM      3  S   UNL d   1      44.866  29.706  57.769  0.00  0.00    -0.045 SA
ATOM      4  C   UNL d   1      45.279  28.451  57.956  0.00  0.00     0.090 A 
ATOM      5  C   UNL d   1      44.926  28.963  57.407  0.00  0.00     0.050 A 
ATOM      6  N   UNL d   1      45.223  30.267  59.076  0.00  0.00    -0.120 N 
ATOM      7  C   UNL d   1      45.445  27.653  57.827  0.00  0.00     0.021 C 
ATOM      8  C   UNL d   1      44.681  28.775  56.648  0.00  0.00     0.009 C 
ENDROOT
TORSDOF 0
ENDMDL
