MODEL 1
REMARK VINA RESULT:      -2.3      0.000      0.000
REMARK  5 active torsions:
REMARK  status: ('A' for Active; 'I' for Inactive)
REMARK    1  A    between atoms: C_11  and  N_3 
REMARK    2  A    between atoms: C_10  and  C_4 
REMARK    3  A    between atoms: C_15  and  C_11 
REMARK    4  A    between atoms: N_13  and  C_16 
REMARK    5  A    between atoms: C_16  and  C_15 
ROOT
ATOM      1  C   UNL d   1      59.507  -1.034  29.397  0.00  0.00     0.137 A 
ATOM      2  N   UNL d   1      59.910  -1.683  29.059  0.00  0.00    -0.259 N 
ATOM      3  N   UNL d   1      58.719  -1.259  29.487  0.00  0.00    -0.287 N 
ATOM      4  C   UNL d   1      59.914  -0.342  29.569  0.00  0.00     0.054 A 
ATOM      5  C   UNL d   1      60.722  -1.625  28.899  0.00  0.00     0.266 A 
ATOM      6  C   UNL d   1      59.370  -2.297  28.946  0.00  0.00     0.084 A 
ATOM      7  C   UNL d   1      58.623  -2.031  29.215  0.00  0.00     0.082 A 
ATOM      8  C   UNL d   1      60.722  -0.283  29.410  0.00  0.00     0.009 A 
ATOM      9  C   UNL d   1      61.133  -0.922  29.074  0.00  0.00     0.061 A 
ATOM     10  O   UNL d   1      61.127  -2.266  28.564  0.00  0.00    -0.267 OA
ATOM     11  C   UNL d   1      59.444  -3.056  28.641  0.00  0.00     0.019 A 
ATOM     12  C   UNL d   1      61.132   0.417  29.585  0.00  0.00     0.000 C 
ATOM     13  C   UNL d   1      57.981  -2.536  29.167  0.00  0.00     0.019 A 
ATOM     14  C   UNL d   1      58.791  -3.549  28.600  0.00  0.00     0.002 A 
ATOM     15  C   UNL d   1      58.051  -3.285  28.866  0.00  0.00     0.002 A 
ENDROOT
BRANCH   3  16
ATOM     16  C   UNL d   1      57.981  -1.005  29.750  0.00  0.00     0.125 C 
BRANCH  16  17
ATOM     17  C   UNL d   1      57.820  -0.971  30.558  0.00  0.00     0.231 C 
ATOM     18  O   UNL d   1      58.140  -1.533  31.070  0.00  0.00    -0.283 OA
BRANCH  17  19
ATOM     19  C   UNL d   1      57.338  -0.373  30.857  0.00  0.00     0.124 C 
BRANCH  19  20
ATOM     20  N   UNL d   1      56.956  -0.473  31.579  0.00  0.00    -0.300 N 
ATOM     21  C   UNL d   1      56.981   0.131  32.139  0.00  0.00     0.080 A 
ATOM     22  C   UNL d   1      56.600   0.037  32.866  0.00  0.00     0.019 A 
ATOM     23  C   UNL d   1      56.194  -0.663  33.031  0.00  0.00     0.003 A 
ATOM     24  C   UNL d   1      56.170  -1.268  32.471  0.00  0.00     0.019 A 
ATOM     25  C   UNL d   1      55.813  -0.764  33.752  0.00  0.00     0.000 C 
ATOM     26  C   UNL d   1      56.551  -1.175  31.743  0.00  0.00     0.080 A 
ENDBRANCH  19  20
ENDBRANCH  17  19
ENDBRANCH  16  17
ENDBRANCH   3  16
BRANCH   4  27
ATOM     27  C   UNL d   1      59.519   0.296  29.900  0.00  0.00     0.125 C 
ATOM     28  N   UNL d   1      59.814   0.682  30.565  0.00  0.00    -0.146 N 
ENDBRANCH   4  27
TORSDOF 5
ENDMDL
MODEL 2
REMARK VINA RESULT:      -2.3      0.653      2.396
REMARK  5 active torsions:
REMARK  status: ('A' for Active; 'I' for Inactive)
REMARK    1  A    between atoms: C_11  and  N_3 
REMARK    2  A    between atoms: C_10  and  C_4 
REMARK    3  A    between atoms: C_15  and  C_11 
REMARK    4  A    between atoms: N_13  and  C_16 
REMARK    5  A    between atoms: C_16  and  C_15 
ROOT
ATOM      1  C   UNL d   1      59.094  -1.778  29.157  0.00  0.00     0.137 A 
ATOM      2  N   UNL d   1      59.901  -1.673  28.966  0.00  0.00    -0.259 N 
ATOM      3  N   UNL d   1      58.822  -1.059  29.458  0.00  0.00    -0.287 N 
ATOM      4  C   UNL d   1      58.733  -2.504  29.031  0.00  0.00     0.054 A 
ATOM      5  C   UNL d   1      60.333  -2.306  28.648  0.00  0.00     0.266 A 
ATOM      6  C   UNL d   1      60.115  -0.897  29.148  0.00  0.00     0.084 A 
ATOM      7  C   UNL d   1      59.439  -0.513  29.457  0.00  0.00     0.082 A 
ATOM      8  C   UNL d   1      59.162  -3.134  28.715  0.00  0.00     0.009 A 
ATOM      9  C   UNL d   1      59.964  -3.042  28.520  0.00  0.00     0.061 A 
ATOM     10  O   UNL d   1      61.133  -2.208  28.455  0.00  0.00    -0.267 OA
ATOM     11  C   UNL d   1      60.822  -0.484  29.081  0.00  0.00     0.019 A 
ATOM     12  C   UNL d   1      58.795  -3.868  28.588  0.00  0.00     0.000 C 
ATOM     13  C   UNL d   1      59.497   0.270  29.685  0.00  0.00     0.019 A 
ATOM     14  C   UNL d   1      60.862   0.301  29.314  0.00  0.00     0.002 A 
ATOM     15  C   UNL d   1      60.193   0.682  29.620  0.00  0.00     0.002 A 
ENDROOT
BRANCH   3  16
ATOM     16  C   UNL d   1      58.161  -0.674  29.762  0.00  0.00     0.125 C 
BRANCH  16  17
ATOM     17  C   UNL d   1      57.932  -0.805  30.544  0.00  0.00     0.231 C 
ATOM     18  O   UNL d   1      58.499  -0.943  31.127  0.00  0.00    -0.283 OA
BRANCH  17  19
ATOM     19  C   UNL d   1      57.133  -0.798  30.745  0.00  0.00     0.124 C 
BRANCH  19  20
ATOM     20  N   UNL d   1      56.891  -0.475  31.462  0.00  0.00    -0.300 N 
ATOM     21  C   UNL d   1      56.620  -0.972  32.061  0.00  0.00     0.080 A 
ATOM     22  C   UNL d   1      56.375  -0.655  32.783  0.00  0.00     0.019 A 
ATOM     23  C   UNL d   1      56.402   0.162  32.904  0.00  0.00     0.003 A 
ATOM     24  C   UNL d   1      56.673   0.659  32.306  0.00  0.00     0.019 A 
ATOM     25  C   UNL d   1      56.160   0.485  33.620  0.00  0.00     0.000 C 
ATOM     26  C   UNL d   1      56.918   0.342  31.582  0.00  0.00     0.080 A 
ENDBRANCH  19  20
ENDBRANCH  17  19
ENDBRANCH  16  17
ENDBRANCH   3  16
BRANCH   4  27
ATOM     27  C   UNL d   1      57.941  -2.608  29.219  0.00  0.00     0.125 C 
ATOM     28  N   UNL d   1      57.418  -2.957  28.688  0.00  0.00    -0.146 N 
ENDBRANCH   4  27
TORSDOF 5
ENDMDL
MODEL 3
REMARK VINA RESULT:      -0.9      2.210      5.930
REMARK  5 active torsions:
REMARK  status: ('A' for Active; 'I' for Inactive)
REMARK    1  A    between atoms: C_11  and  N_3 
REMARK    2  A    between atoms: C_10  and  C_4 
REMARK    3  A    between atoms: C_15  and  C_11 
REMARK    4  A    between atoms: N_13  and  C_16 
REMARK    5  A    between atoms: C_16  and  C_15 
ROOT
ATOM      1  C   UNL d   1      56.106   0.676  34.014  0.00  0.00     0.137 A 
ATOM      2  N   UNL d   1      56.358   0.678  34.810  0.00  0.00    -0.259 N 
ATOM      3  N   UNL d   1      56.785   0.675  33.545  0.00  0.00    -0.287 N 
ATOM      4  C   UNL d   1      55.304   0.675  33.836  0.00  0.00     0.054 A 
ATOM      5  C   UNL d   1      55.795   0.680  35.419  0.00  0.00     0.266 A 
ATOM      6  C   UNL d   1      57.183   0.679  34.824  0.00  0.00     0.084 A 
ATOM      7  C   UNL d   1      57.451   0.677  34.031  0.00  0.00     0.082 A 
ATOM      8  C   UNL d   1      54.744   0.676  34.442  0.00  0.00     0.009 A 
ATOM      9  C   UNL d   1      54.983   0.679  35.238  0.00  0.00     0.061 A 
ATOM     10  O   UNL d   1      56.040   0.682  36.212  0.00  0.00    -0.267 OA
ATOM     11  C   UNL d   1      57.731   0.681  35.437  0.00  0.00     0.019 A 
ATOM     12  C   UNL d   1      53.934   0.675  34.261  0.00  0.00     0.000 C 
ATOM     13  C   UNL d   1      58.255   0.677  33.883  0.00  0.00     0.019 A 
ATOM     14  C   UNL d   1      58.533   0.681  35.271  0.00  0.00     0.002 A 
ATOM     15  C   UNL d   1      58.798   0.679  34.485  0.00  0.00     0.002 A 
ENDROOT
BRANCH   3  16
ATOM     16  C   UNL d   1      57.056   0.673  32.768  0.00  0.00     0.125 C 
BRANCH  16  17
ATOM     17  C   UNL d   1      56.939   0.009  32.293  0.00  0.00     0.231 C 
ATOM     18  O   UNL d   1      56.943  -0.746  32.625  0.00  0.00    -0.283 OA
BRANCH  17  19
ATOM     19  C   UNL d   1      56.818   0.098  31.483  0.00  0.00     0.124 C 
BRANCH  19  20
ATOM     20  N   UNL d   1      57.393  -0.153  30.949  0.00  0.00    -0.300 N 
ATOM     21  C   UNL d   1      57.554  -0.957  30.875  0.00  0.00     0.080 A 
ATOM     22  C   UNL d   1      58.129  -1.217  30.341  0.00  0.00     0.019 A 
ATOM     23  C   UNL d   1      58.542  -0.667  29.882  0.00  0.00     0.003 A 
ATOM     24  C   UNL d   1      58.381   0.137  29.957  0.00  0.00     0.019 A 
ATOM     25  C   UNL d   1      59.115  -0.918  29.350  0.00  0.00     0.000 C 
ATOM     26  C   UNL d   1      57.805   0.397  30.490  0.00  0.00     0.080 A 
ENDBRANCH  19  20
ENDBRANCH  17  19
ENDBRANCH  16  17
ENDBRANCH   3  16
BRANCH   4  27
ATOM     27  C   UNL d   1      55.056   0.673  33.055  0.00  0.00     0.125 C 
ATOM     28  N   UNL d   1      54.256   0.681  32.861  0.00  0.00    -0.146 N 
ENDBRANCH   4  27
TORSDOF 5
ENDMDL
MODEL 4
REMARK VINA RESULT:       0.1      2.112      5.506
REMARK  5 active torsions:
REMARK  status: ('A' for Active; 'I' for Inactive)
REMARK    1  A    between atoms: C_11  and  N_3 
REMARK    2  A    between atoms: C_10  and  C_4 
REMARK    3  A    between atoms: C_15  and  C_11 
REMARK    4  A    between atoms: N_13  and  C_16 
REMARK    5  A    between atoms: C_16  and  C_15 
ROOT
ATOM      1  C   UNL d   1      56.795   0.671  33.905  0.00  0.00     0.137 A 
ATOM      2  N   UNL d   1      56.225   0.671  34.517  0.00  0.00    -0.259 N 
ATOM      3  N   UNL d   1      56.381   0.667  33.191  0.00  0.00    -0.287 N 
ATOM      4  C   UNL d   1      57.595   0.674  34.088  0.00  0.00     0.054 A 
ATOM      5  C   UNL d   1      56.473   0.674  35.308  0.00  0.00     0.266 A 
ATOM      6  C   UNL d   1      55.474   0.667  34.175  0.00  0.00     0.084 A 
ATOM      7  C   UNL d   1      55.572   0.665  33.344  0.00  0.00     0.082 A 
ATOM      8  C   UNL d   1      57.842   0.678  34.876  0.00  0.00     0.009 A 
ATOM      9  C   UNL d   1      57.285   0.678  35.492  0.00  0.00     0.061 A 
ATOM     10  O   UNL d   1      55.912   0.674  35.920  0.00  0.00    -0.267 OA
ATOM     11  C   UNL d   1      54.716   0.665  34.495  0.00  0.00     0.019 A 
ATOM     12  C   UNL d   1      58.651   0.681  35.060  0.00  0.00     0.000 C 
ATOM     13  C   UNL d   1      54.908   0.661  32.866  0.00  0.00     0.019 A 
ATOM     14  C   UNL d   1      54.063   0.662  34.001  0.00  0.00     0.002 A 
ATOM     15  C   UNL d   1      54.160   0.659  33.177  0.00  0.00     0.002 A 
ENDROOT
BRANCH   3  16
ATOM     16  C   UNL d   1      56.470   0.665  32.373  0.00  0.00     0.125 C 
BRANCH  16  17
ATOM     17  C   UNL d   1      56.670  -0.034  31.982  0.00  0.00     0.231 C 
ATOM     18  O   UNL d   1      56.909  -0.697  32.410  0.00  0.00    -0.283 OA
BRANCH  17  19
ATOM     19  C   UNL d   1      56.632  -0.070  31.159  0.00  0.00     0.124 C 
BRANCH  19  20
ATOM     20  N   UNL d   1      57.321  -0.152  30.717  0.00  0.00    -0.300 N 
ATOM     21  C   UNL d   1      57.658   0.512  30.363  0.00  0.00     0.080 A 
ATOM     22  C   UNL d   1      58.350   0.438  29.918  0.00  0.00     0.019 A 
ATOM     23  C   UNL d   1      58.704  -0.304  29.828  0.00  0.00     0.003 A 
ATOM     24  C   UNL d   1      58.367  -0.967  30.182  0.00  0.00     0.019 A 
ATOM     25  C   UNL d   1      59.392  -0.385  29.387  0.00  0.00     0.000 C 
ATOM     26  C   UNL d   1      57.675  -0.894  30.628  0.00  0.00     0.080 A 
ENDBRANCH  19  20
ENDBRANCH  17  19
ENDBRANCH  16  17
ENDBRANCH   3  16
BRANCH   4  27
ATOM     27  C   UNL d   1      58.154   0.674  33.488  0.00  0.00     0.125 C 
ATOM     28  N   UNL d   1      58.960   0.673  33.656  0.00  0.00    -0.146 N 
ENDBRANCH   4  27
TORSDOF 5
ENDMDL
