MODEL 1
REMARK VINA RESULT:      12.7      0.000      0.000
REMARK  8 active torsions:
REMARK  status: ('A' for Active; 'I' for Inactive)
REMARK    1  A    between atoms: C_5  and  C_1 
REMARK       I    between atoms: C_2  and  N_4 
REMARK    2  A    between atoms: C_7  and  C_2 
REMARK    3  A    between atoms: N_4  and  C_3 
REMARK    4  A    between atoms: N_6  and  C_5 
REMARK    5  A    between atoms: C_13  and  C_5 
REMARK    6  A    between atoms: C_15  and  N_6 
REMARK    7  A    between atoms: C_9  and  C_15 
REMARK    8  A    between atoms: O_19  and  C_9 
ROOT
ATOM      1  C   UNL d   1      57.867  -1.060  30.766  0.00  0.00     0.035 A 
ATOM      2  C   UNL d   1      57.413  -1.322  31.416  0.00  0.00     0.086 A 
ATOM      3  C   UNL d   1      58.234  -1.615  30.279  0.00  0.00     0.003 A 
ATOM      4  C   UNL d   1      57.334  -2.137  31.568  0.00  0.00     0.019 A 
ATOM      5  C   UNL d   1      58.155  -2.429  30.431  0.00  0.00     0.000 A 
ATOM      6  C   UNL d   1      57.709  -2.684  31.070  0.00  0.00     0.002 A 
ATOM      7  C   UNL d   1      58.527  -2.976  29.937  0.00  0.00     0.000 C 
ENDROOT
BRANCH   1   8
ATOM      8  C   UNL d   1      57.945  -0.256  30.616  0.00  0.00     0.083 C 
BRANCH   8   9
ATOM      9  N   UNL d   1      58.282   0.246  31.185  0.00  0.00    -0.238 NA
BRANCH   9  10
ATOM     10  C   UNL d   1      58.977   0.649  31.011  0.00  0.00     0.167 C 
BRANCH  10  11
ATOM     11  C   UNL d   1      59.645   0.547  31.483  0.00  0.00     0.315 C 
ATOM     12  O   UNL d   1      59.598   0.619  32.310  0.00  0.00    -0.257 OA
BRANCH  11  13
ATOM     13  O   UNL d   1      60.382   0.367  31.134  0.00  0.00    -0.295 OA
ATOM     14  C   UNL d   1      61.083   0.397  31.655  0.00  0.00     0.185 C 
ENDBRANCH  11  13
ENDBRANCH  10  11
ENDBRANCH   9  10
ENDBRANCH   8   9
BRANCH   8  15
ATOM     15  C   UNL d   1      57.689   0.053  29.901  0.00  0.00     0.018 A 
ATOM     16  C   UNL d   1      58.233   0.245  29.310  0.00  0.00     0.002 A 
ATOM     17  C   UNL d   1      57.981   0.552  28.599  0.00  0.00     0.000 A 
ATOM     18  C   UNL d   1      57.165   0.676  28.461  0.00  0.00     0.000 A 
ATOM     19  C   UNL d   1      56.622   0.486  29.047  0.00  0.00     0.000 A 
ATOM     20  C   UNL d   1      56.877   0.175  29.768  0.00  0.00     0.002 A 
ENDBRANCH   8  15
ENDBRANCH   1   8
BRANCH   2  21
ATOM     21  N   UNL d   1      57.048  -0.768  31.901  0.00  0.00    -0.208 NA
ATOM     22  C   UNL d   1      56.588  -1.024  32.555  0.00  0.00     0.279 C 
ATOM     23  O   UNL d   1      56.507  -1.833  32.705  0.00  0.00    -0.265 OA
BRANCH  22  24
ATOM     24  C   UNL d   1      56.220  -0.469  33.044  0.00  0.00     0.059 A 
ATOM     25  C   UNL d   1      55.397  -0.421  33.063  0.00  0.00     0.016 A 
ATOM     26  C   UNL d   1      55.028   0.133  33.551  0.00  0.00     0.058 A 
ATOM     27 CL   UNL d   1      54.208   0.171  33.562  0.00  0.00    -0.082 Cl
ATOM     28  C   UNL d   1      55.481   0.638  34.017  0.00  0.00     0.011 A 
ATOM     29  C   UNL d   1      56.304   0.591  33.997  0.00  0.00     0.001 A 
ATOM     30  C   UNL d   1      56.672   0.036  33.509  0.00  0.00     0.005 A 
ENDBRANCH  22  24
ENDBRANCH   2  21
TORSDOF 8
ENDMDL
MODEL 2
REMARK VINA RESULT:      14.1      1.432      2.852
REMARK  8 active torsions:
REMARK  status: ('A' for Active; 'I' for Inactive)
REMARK    1  A    between atoms: C_5  and  C_1 
REMARK       I    between atoms: C_2  and  N_4 
REMARK    2  A    between atoms: C_7  and  C_2 
REMARK    3  A    between atoms: N_4  and  C_3 
REMARK    4  A    between atoms: N_6  and  C_5 
REMARK    5  A    between atoms: C_13  and  C_5 
REMARK    6  A    between atoms: C_15  and  N_6 
REMARK    7  A    between atoms: C_9  and  C_15 
REMARK    8  A    between atoms: O_19  and  C_9 
ROOT
ATOM      1  C   UNL d   1      57.930  -0.147  30.426  0.00  0.00     0.035 A 
ATOM      2  C   UNL d   1      57.252   0.060  30.867  0.00  0.00     0.086 A 
ATOM      3  C   UNL d   1      57.973   0.063  29.629  0.00  0.00     0.003 A 
ATOM      4  C   UNL d   1      56.627   0.473  30.505  0.00  0.00     0.019 A 
ATOM      5  C   UNL d   1      57.348   0.476  29.266  0.00  0.00     0.000 A 
ATOM      6  C   UNL d   1      56.683   0.678  29.703  0.00  0.00     0.002 A 
ATOM      7  C   UNL d   1      57.402   0.680  28.468  0.00  0.00     0.000 C 
ENDROOT
BRANCH   1   8
ATOM      8  C   UNL d   1      58.547  -0.555  30.784  0.00  0.00     0.083 C 
BRANCH   8   9
ATOM      9  N   UNL d   1      58.611  -1.378  30.697  0.00  0.00    -0.238 NA
BRANCH   9  10
ATOM     10  C   UNL d   1      58.448  -1.723  29.969  0.00  0.00     0.167 C 
BRANCH  10  11
ATOM     11  C   UNL d   1      58.784  -2.448  29.769  0.00  0.00     0.315 C 
ATOM     12  O   UNL d   1      58.490  -2.893  29.130  0.00  0.00    -0.257 OA
BRANCH  11  13
ATOM     13  O   UNL d   1      59.428  -2.748  30.208  0.00  0.00    -0.295 OA
ATOM     14  C   UNL d   1      59.688  -3.560  30.023  0.00  0.00     0.185 C 
ENDBRANCH  11  13
ENDBRANCH  10  11
ENDBRANCH   9  10
ENDBRANCH   8   9
BRANCH   8  15
ATOM     15  C   UNL d   1      59.102  -0.148  31.230  0.00  0.00     0.018 A 
ATOM     16  C   UNL d   1      58.870   0.276  31.900  0.00  0.00     0.002 A 
ATOM     17  C   UNL d   1      59.419   0.681  32.344  0.00  0.00     0.000 A 
ATOM     18  C   UNL d   1      60.227   0.670  32.125  0.00  0.00     0.000 A 
ATOM     19  C   UNL d   1      60.460   0.250  31.459  0.00  0.00     0.000 A 
ATOM     20  C   UNL d   1      59.903  -0.161  31.008  0.00  0.00     0.002 A 
ENDBRANCH   8  15
ENDBRANCH   1   8
BRANCH   2  21
ATOM     21  N   UNL d   1      57.211  -0.149  31.661  0.00  0.00    -0.208 NA
ATOM     22  C   UNL d   1      56.473  -0.371  31.997  0.00  0.00     0.279 C 
ATOM     23  O   UNL d   1      55.795  -0.375  31.524  0.00  0.00    -0.265 OA
BRANCH  22  24
ATOM     24  C   UNL d   1      56.430  -0.582  32.795  0.00  0.00     0.059 A 
ATOM     25  C   UNL d   1      56.567  -0.014  33.377  0.00  0.00     0.016 A 
ATOM     26  C   UNL d   1      56.524  -0.224  34.174  0.00  0.00     0.058 A 
ATOM     27 CL   UNL d   1      56.662   0.350  34.745  0.00  0.00    -0.082 Cl
ATOM     28  C   UNL d   1      56.343  -0.998  34.387  0.00  0.00     0.011 A 
ATOM     29  C   UNL d   1      56.206  -1.565  33.805  0.00  0.00     0.001 A 
ATOM     30  C   UNL d   1      56.250  -1.355  33.008  0.00  0.00     0.005 A 
ENDBRANCH  22  24
ENDBRANCH   2  21
TORSDOF 8
ENDMDL
