MODEL 1
REMARK VINA RESULT:      -9.1      0.000      0.000
REMARK  4 active torsions:
REMARK  status: ('A' for Active; 'I' for Inactive)
REMARK    1  A    between atoms: C_12  and  N_1 
REMARK    2  A    between atoms: N_3  and  C_11 
REMARK    3  A    between atoms: C_11  and  C_15 
REMARK    4  A    between atoms: C_15  and  C_12 
ROOT
ATOM      1  N   UNL d   1      52.686  32.941  53.198  0.00  0.00    -0.303 N 
ATOM      2  C   UNL d   1      52.821  32.123  53.132  0.00  0.00     0.064 A 
ATOM      3  C   UNL d   1      53.421  31.921  53.661  0.00  0.00     0.018 A 
ATOM      4  C   UNL d   1      53.661  32.606  54.055  0.00  0.00     0.018 A 
ATOM      5  C   UNL d   1      53.204  33.239  53.768  0.00  0.00     0.064 A 
ATOM      6  C   UNL d   1      53.323  34.001  54.064  0.00  0.00     0.018 A 
ATOM      7  C   UNL d   1      54.232  32.740  54.637  0.00  0.00     0.002 A 
ATOM      8  C   UNL d   1      53.892  34.132  54.643  0.00  0.00     0.002 A 
ATOM      9  C   UNL d   1      54.344  33.505  54.928  0.00  0.00     0.000 A 
ATOM     10  C   UNL d   1      52.424  31.607  52.627  0.00  0.00     0.019 C 
ATOM     11  C   UNL d   1      53.726  31.163  53.774  0.00  0.00     0.002 C 
ATOM     12  C   UNL d   1      54.913  33.637  55.507  0.00  0.00     0.000 C 
ENDROOT
BRANCH   1  13
ATOM     13  C   UNL d   1      52.131  33.378  52.767  0.00  0.00     0.124 C 
BRANCH  13  14
ATOM     14  C   UNL d   1      51.361  33.458  53.059  0.00  0.00     0.232 C 
ATOM     15  O   UNL d   1      50.953  32.799  53.322  0.00  0.00    -0.283 OA
BRANCH  14  16
ATOM     16  C   UNL d   1      51.012  34.204  53.082  0.00  0.00     0.144 C 
BRANCH  16  17
ATOM     17  N   UNL d   1      50.360  34.375  52.613  0.00  0.00    -0.225 N 
ATOM     18  N   UNL d   1      50.256  34.128  51.829  0.00  0.00    -0.165 NA
ATOM     19  C   UNL d   1      49.526  34.420  51.566  0.00  0.00     0.103 A 
ATOM     20  C   UNL d   1      49.194  34.312  50.821  0.00  0.00     0.022 C 
ATOM     21  C   UNL d   1      49.181  34.847  52.188  0.00  0.00     0.040 A 
ATOM     22  C   UNL d   1      49.699  34.817  52.834  0.00  0.00     0.085 A 
ATOM     23  C   UNL d   1      49.578  35.166  53.569  0.00  0.00     0.021 C 
ENDBRANCH  16  17
ENDBRANCH  14  16
ENDBRANCH  13  14
ENDBRANCH   1  13
TORSDOF 4
ENDMDL
MODEL 2
REMARK VINA RESULT:      -8.9      0.407      1.788
REMARK  4 active torsions:
REMARK  status: ('A' for Active; 'I' for Inactive)
REMARK    1  A    between atoms: C_12  and  N_1 
REMARK    2  A    between atoms: N_3  and  C_11 
REMARK    3  A    between atoms: C_11  and  C_15 
REMARK    4  A    between atoms: C_15  and  C_12 
ROOT
ATOM      1  N   UNL d   1      52.616  33.074  53.268  0.00  0.00    -0.303 N 
ATOM      2  C   UNL d   1      53.081  33.432  53.857  0.00  0.00     0.064 A 
ATOM      3  C   UNL d   1      53.554  32.849  54.198  0.00  0.00     0.018 A 
ATOM      4  C   UNL d   1      53.388  32.130  53.827  0.00  0.00     0.018 A 
ATOM      5  C   UNL d   1      52.805  32.270  53.249  0.00  0.00     0.064 A 
ATOM      6  C   UNL d   1      52.527  31.645  52.786  0.00  0.00     0.018 A 
ATOM      7  C   UNL d   1      53.687  31.368  53.935  0.00  0.00     0.002 A 
ATOM      8  C   UNL d   1      52.826  30.888  52.895  0.00  0.00     0.002 A 
ATOM      9  C   UNL d   1      53.403  30.750  53.467  0.00  0.00     0.000 A 
ATOM     10  C   UNL d   1      53.068  34.231  54.062  0.00  0.00     0.019 C 
ATOM     11  C   UNL d   1      54.098  32.968  54.806  0.00  0.00     0.002 C 
ATOM     12  C   UNL d   1      53.702  29.991  53.576  0.00  0.00     0.000 C 
ENDROOT
BRANCH   1  13
ATOM     13  C   UNL d   1      52.062  33.455  52.787  0.00  0.00     0.124 C 
BRANCH  13  14
ATOM     14  C   UNL d   1      51.299  33.596  53.075  0.00  0.00     0.232 C 
ATOM     15  O   UNL d   1      50.877  32.990  53.427  0.00  0.00    -0.283 OA
BRANCH  14  16
ATOM     16  C   UNL d   1      50.973  34.349  53.005  0.00  0.00     0.144 C 
BRANCH  16  17
ATOM     17  N   UNL d   1      50.299  34.471  52.549  0.00  0.00    -0.225 N 
ATOM     18  N   UNL d   1      50.190  34.201  51.774  0.00  0.00    -0.165 NA
ATOM     19  C   UNL d   1      49.438  34.445  51.525  0.00  0.00     0.103 A 
ATOM     20  C   UNL d   1      49.094  34.301  50.791  0.00  0.00     0.022 C 
ATOM     21  C   UNL d   1      49.085  34.864  52.147  0.00  0.00     0.040 A 
ATOM     22  C   UNL d   1      49.620  34.879  52.779  0.00  0.00     0.085 A 
ATOM     23  C   UNL d   1      49.498  35.237  53.510  0.00  0.00     0.021 C 
ENDBRANCH  16  17
ENDBRANCH  14  16
ENDBRANCH  13  14
ENDBRANCH   1  13
TORSDOF 4
ENDMDL
MODEL 3
REMARK VINA RESULT:      -8.7      1.669      4.403
REMARK  4 active torsions:
REMARK  status: ('A' for Active; 'I' for Inactive)
REMARK    1  A    between atoms: C_12  and  N_1 
REMARK    2  A    between atoms: N_3  and  C_11 
REMARK    3  A    between atoms: C_11  and  C_15 
REMARK    4  A    between atoms: C_15  and  C_12 
ROOT
ATOM      1  N   UNL d   1      53.556  33.169  53.768  0.00  0.00    -0.303 N 
ATOM      2  C   UNL d   1      53.774  33.677  54.389  0.00  0.00     0.064 A 
ATOM      3  C   UNL d   1      53.217  34.284  54.429  0.00  0.00     0.018 A 
ATOM      4  C   UNL d   1      52.654  34.157  53.838  0.00  0.00     0.018 A 
ATOM      5  C   UNL d   1      52.865  33.465  53.428  0.00  0.00     0.064 A 
ATOM      6  C   UNL d   1      52.397  33.199  52.800  0.00  0.00     0.018 A 
ATOM      7  C   UNL d   1      51.978  34.577  53.617  0.00  0.00     0.002 A 
ATOM      8  C   UNL d   1      51.726  33.619  52.582  0.00  0.00     0.002 A 
ATOM      9  C   UNL d   1      51.517  34.304  52.988  0.00  0.00     0.000 A 
ATOM     10  C   UNL d   1      54.432  33.588  54.878  0.00  0.00     0.019 C 
ATOM     11  C   UNL d   1      53.224  34.908  54.968  0.00  0.00     0.002 C 
ATOM     12  C   UNL d   1      50.844  34.724  52.769  0.00  0.00     0.000 C 
ENDROOT
BRANCH   1  13
ATOM     13  C   UNL d   1      53.962  32.487  53.534  0.00  0.00     0.124 C 
BRANCH  13  14
ATOM     14  C   UNL d   1      53.745  31.754  53.852  0.00  0.00     0.232 C 
ATOM     15  O   UNL d   1      53.576  31.689  54.650  0.00  0.00    -0.283 OA
BRANCH  14  16
ATOM     16  C   UNL d   1      53.704  31.095  53.360  0.00  0.00     0.144 C 
BRANCH  16  17
ATOM     17  N   UNL d   1      53.474  30.365  53.658  0.00  0.00    -0.225 N 
ATOM     18  N   UNL d   1      53.678  30.066  54.404  0.00  0.00    -0.165 NA
ATOM     19  C   UNL d   1      53.333  29.316  54.480  0.00  0.00     0.103 A 
ATOM     20  C   UNL d   1      53.388  28.815  55.129  0.00  0.00     0.022 C 
ATOM     21  C   UNL d   1      52.917  29.154  53.781  0.00  0.00     0.040 A 
ATOM     22  C   UNL d   1      53.006  29.804  53.275  0.00  0.00     0.085 A 
ATOM     23  C   UNL d   1      52.685  29.879  52.521  0.00  0.00     0.021 C 
ENDBRANCH  16  17
ENDBRANCH  14  16
ENDBRANCH  13  14
ENDBRANCH   1  13
TORSDOF 4
ENDMDL
MODEL 4
REMARK VINA RESULT:      -7.6      1.740      4.094
REMARK  4 active torsions:
REMARK  status: ('A' for Active; 'I' for Inactive)
REMARK    1  A    between atoms: C_12  and  N_1 
REMARK    2  A    between atoms: N_3  and  C_11 
REMARK    3  A    between atoms: C_11  and  C_15 
REMARK    4  A    between atoms: C_15  and  C_12 
ROOT
ATOM      1  N   UNL d   1      52.478  33.087  53.633  0.00  0.00    -0.303 N 
ATOM      2  C   UNL d   1      52.022  33.316  52.976  0.00  0.00     0.064 A 
ATOM      3  C   UNL d   1      52.030  34.140  52.936  0.00  0.00     0.018 A 
ATOM      4  C   UNL d   1      52.486  34.426  53.562  0.00  0.00     0.018 A 
ATOM      5  C   UNL d   1      52.764  33.772  53.995  0.00  0.00     0.064 A 
ATOM      6  C   UNL d   1      53.241  33.890  54.660  0.00  0.00     0.018 A 
ATOM      7  C   UNL d   1      52.687  35.191  53.798  0.00  0.00     0.002 A 
ATOM      8  C   UNL d   1      53.439  34.653  54.892  0.00  0.00     0.002 A 
ATOM      9  C   UNL d   1      53.164  35.300  54.464  0.00  0.00     0.000 A 
ATOM     10  C   UNL d   1      51.633  32.807  52.457  0.00  0.00     0.019 C 
ATOM     11  C   UNL d   1      51.647  34.596  52.366  0.00  0.00     0.002 C 
ATOM     12  C   UNL d   1      53.363  36.063  54.697  0.00  0.00     0.000 C 
ENDROOT
BRANCH   1  13
ATOM     13  C   UNL d   1      52.618  32.310  53.879  0.00  0.00     0.124 C 
BRANCH  13  14
ATOM     14  C   UNL d   1      53.177  31.850  53.478  0.00  0.00     0.232 C 
ATOM     15  O   UNL d   1      53.960  32.085  53.456  0.00  0.00    -0.283 OA
BRANCH  14  16
ATOM     16  C   UNL d   1      52.937  31.156  53.105  0.00  0.00     0.144 C 
BRANCH  16  17
ATOM     17  N   UNL d   1      53.055  30.426  53.463  0.00  0.00    -0.225 N 
ATOM     18  N   UNL d   1      53.268  30.310  54.255  0.00  0.00    -0.165 NA
ATOM     19  C   UNL d   1      53.328  29.494  54.384  0.00  0.00     0.103 A 
ATOM     20  C   UNL d   1      53.526  29.122  55.091  0.00  0.00     0.022 C 
ATOM     21  C   UNL d   1      53.152  29.108  53.671  0.00  0.00     0.040 A 
ATOM     22  C   UNL d   1      52.984  29.687  53.104  0.00  0.00     0.085 A 
ATOM     23  C   UNL d   1      52.781  29.551  52.318  0.00  0.00     0.021 C 
ENDBRANCH  16  17
ENDBRANCH  14  16
ENDBRANCH  13  14
ENDBRANCH   1  13
TORSDOF 4
ENDMDL
MODEL 5
REMARK VINA RESULT:      -6.5      1.270      2.048
REMARK  4 active torsions:
REMARK  status: ('A' for Active; 'I' for Inactive)
REMARK    1  A    between atoms: C_12  and  N_1 
REMARK    2  A    between atoms: N_3  and  C_11 
REMARK    3  A    between atoms: C_11  and  C_15 
REMARK    4  A    between atoms: C_15  and  C_12 
ROOT
ATOM      1  N   UNL d   1      51.459  34.228  52.955  0.00  0.00    -0.303 N 
ATOM      2  C   UNL d   1      51.512  33.437  52.704  0.00  0.00     0.064 A 
ATOM      3  C   UNL d   1      52.181  33.104  53.051  0.00  0.00     0.018 A 
ATOM      4  C   UNL d   1      52.546  33.681  53.517  0.00  0.00     0.018 A 
ATOM      5  C   UNL d   1      52.097  34.379  53.457  0.00  0.00     0.064 A 
ATOM      6  C   UNL d   1      52.332  35.056  53.868  0.00  0.00     0.018 A 
ATOM      7  C   UNL d   1      53.225  33.666  53.987  0.00  0.00     0.002 A 
ATOM      8  C   UNL d   1      53.008  35.039  54.335  0.00  0.00     0.002 A 
ATOM      9  C   UNL d   1      53.452  34.348  54.394  0.00  0.00     0.000 A 
ATOM     10  C   UNL d   1      50.986  33.056  52.197  0.00  0.00     0.019 C 
ATOM     11  C   UNL d   1      52.439  32.327  52.949  0.00  0.00     0.002 C 
ATOM     12  C   UNL d   1      54.129  34.332  54.862  0.00  0.00     0.000 C 
ENDROOT
BRANCH   1  13
ATOM     13  C   UNL d   1      50.871  34.768  52.739  0.00  0.00     0.124 C 
BRANCH  13  14
ATOM     14  C   UNL d   1      50.092  34.645  52.991  0.00  0.00     0.232 C 
ATOM     15  O   UNL d   1      49.947  34.344  53.738  0.00  0.00    -0.283 OA
BRANCH  14  16
ATOM     16  C   UNL d   1      49.469  34.828  52.485  0.00  0.00     0.144 C 
BRANCH  16  17
ATOM     17  N   UNL d   1      48.864  35.327  52.730  0.00  0.00    -0.225 N 
ATOM     18  N   UNL d   1      48.857  35.761  53.435  0.00  0.00    -0.165 NA
ATOM     19  C   UNL d   1      48.147  36.188  53.463  0.00  0.00     0.103 A 
ATOM     20  C   UNL d   1      47.903  36.695  54.064  0.00  0.00     0.022 C 
ATOM     21  C   UNL d   1      47.718  36.017  52.775  0.00  0.00     0.040 A 
ATOM     22  C   UNL d   1      48.164  35.484  52.323  0.00  0.00     0.085 A 
ATOM     23  C   UNL d   1      47.948  35.166  51.596  0.00  0.00     0.021 C 
ENDBRANCH  16  17
ENDBRANCH  14  16
ENDBRANCH  13  14
ENDBRANCH   1  13
TORSDOF 4
ENDMDL
MODEL 6
REMARK VINA RESULT:      -6.5      2.564      3.942
REMARK  4 active torsions:
REMARK  status: ('A' for Active; 'I' for Inactive)
REMARK    1  A    between atoms: C_12  and  N_1 
REMARK    2  A    between atoms: N_3  and  C_11 
REMARK    3  A    between atoms: C_11  and  C_15 
REMARK    4  A    between atoms: C_15  and  C_12 
ROOT
ATOM      1  N   UNL d   1      53.025  31.081  53.763  0.00  0.00    -0.303 N 
ATOM      2  C   UNL d   1      52.875  30.854  52.978  0.00  0.00     0.064 A 
ATOM      3  C   UNL d   1      52.929  30.032  52.936  0.00  0.00     0.018 A 
ATOM      4  C   UNL d   1      53.112  29.745  53.689  0.00  0.00     0.018 A 
ATOM      5  C   UNL d   1      53.171  30.397  54.203  0.00  0.00     0.064 A 
ATOM      6  C   UNL d   1      53.349  30.278  55.000  0.00  0.00     0.018 A 
ATOM      7  C   UNL d   1      53.232  28.981  53.978  0.00  0.00     0.002 A 
ATOM      8  C   UNL d   1      53.469  29.517  55.285  0.00  0.00     0.002 A 
ATOM      9  C   UNL d   1      53.410  28.871  54.777  0.00  0.00     0.000 A 
ATOM     10  C   UNL d   1      52.703  31.362  52.353  0.00  0.00     0.019 C 
ATOM     11  C   UNL d   1      52.820  29.577  52.257  0.00  0.00     0.002 C 
ATOM     12  C   UNL d   1      53.530  28.109  55.062  0.00  0.00     0.000 C 
ENDROOT
BRANCH   1  13
ATOM     13  C   UNL d   1      53.026  31.856  54.053  0.00  0.00     0.124 C 
BRANCH  13  14
ATOM     14  C   UNL d   1      53.721  32.305  54.013  0.00  0.00     0.232 C 
ATOM     15  O   UNL d   1      54.149  32.333  53.317  0.00  0.00    -0.283 OA
BRANCH  14  16
ATOM     16  C   UNL d   1      53.973  32.719  54.678  0.00  0.00     0.144 C 
BRANCH  16  17
ATOM     17  N   UNL d   1      53.892  33.536  54.717  0.00  0.00    -0.225 N 
ATOM     18  N   UNL d   1      53.254  33.969  54.414  0.00  0.00    -0.165 NA
ATOM     19  C   UNL d   1      53.394  34.771  54.571  0.00  0.00     0.103 A 
ATOM     20  C   UNL d   1      52.907  35.402  54.371  0.00  0.00     0.022 C 
ATOM     21  C   UNL d   1      54.119  34.831  54.971  0.00  0.00     0.040 A 
ATOM     22  C   UNL d   1      54.424  34.066  55.059  0.00  0.00     0.085 A 
ATOM     23  C   UNL d   1      55.134  33.867  55.424  0.00  0.00     0.021 C 
ENDBRANCH  16  17
ENDBRANCH  14  16
ENDBRANCH  13  14
ENDBRANCH   1  13
TORSDOF 4
ENDMDL
MODEL 7
REMARK VINA RESULT:      -6.2      1.187      4.849
REMARK  4 active torsions:
REMARK  status: ('A' for Active; 'I' for Inactive)
REMARK    1  A    between atoms: C_12  and  N_1 
REMARK    2  A    between atoms: N_3  and  C_11 
REMARK    3  A    between atoms: C_11  and  C_15 
REMARK    4  A    between atoms: C_15  and  C_12 
ROOT
ATOM      1  N   UNL d   1      49.565  34.511  52.360  0.00  0.00    -0.303 N 
ATOM      2  C   UNL d   1      49.331  34.391  51.571  0.00  0.00     0.064 A 
ATOM      3  C   UNL d   1      48.674  34.868  51.425  0.00  0.00     0.018 A 
ATOM      4  C   UNL d   1      48.498  35.284  52.116  0.00  0.00     0.018 A 
ATOM      5  C   UNL d   1      49.051  35.063  52.697  0.00  0.00     0.064 A 
ATOM      6  C   UNL d   1      49.010  35.394  53.452  0.00  0.00     0.018 A 
ATOM      7  C   UNL d   1      47.909  35.835  52.297  0.00  0.00     0.002 A 
ATOM      8  C   UNL d   1      48.424  35.942  53.630  0.00  0.00     0.002 A 
ATOM      9  C   UNL d   1      47.876  36.161  53.055  0.00  0.00     0.000 A 
ATOM     10  C   UNL d   1      49.693  33.883  51.033  0.00  0.00     0.019 C 
ATOM     11  C   UNL d   1      48.267  34.917  50.710  0.00  0.00     0.002 C 
ATOM     12  C   UNL d   1      47.289  36.709  53.233  0.00  0.00     0.000 C 
ENDROOT
BRANCH   1  13
ATOM     13  C   UNL d   1      50.201  34.143  52.740  0.00  0.00     0.124 C 
BRANCH  13  14
ATOM     14  C   UNL d   1      50.972  34.404  52.590  0.00  0.00     0.232 C 
ATOM     15  O   UNL d   1      51.241  34.462  51.820  0.00  0.00    -0.283 OA
BRANCH  14  16
ATOM     16  C   UNL d   1      51.462  34.603  53.222  0.00  0.00     0.144 C 
BRANCH  16  17
ATOM     17  N   UNL d   1      52.130  34.155  53.389  0.00  0.00    -0.225 N 
ATOM     18  N   UNL d   1      52.248  33.367  53.165  0.00  0.00    -0.165 NA
ATOM     19  C   UNL d   1      52.991  33.131  53.445  0.00  0.00     0.103 A 
ATOM     20  C   UNL d   1      53.339  32.392  53.351  0.00  0.00     0.022 C 
ATOM     21  C   UNL d   1      53.331  33.775  53.842  0.00  0.00     0.040 A 
ATOM     22  C   UNL d   1      52.796  34.407  53.806  0.00  0.00     0.085 A 
ATOM     23  C   UNL d   1      52.908  35.156  54.128  0.00  0.00     0.021 C 
ENDBRANCH  16  17
ENDBRANCH  14  16
ENDBRANCH  13  14
ENDBRANCH   1  13
TORSDOF 4
ENDMDL
