MODEL 1
REMARK VINA RESULT:      71.7      0.000      0.000
REMARK  3 active torsions:
REMARK  status: ('A' for Active; 'I' for Inactive)
REMARK    1  A    between atoms: C_8  and  N_1 
REMARK    2  A    between atoms: C_2  and  C_7 
REMARK    3  A    between atoms: C_7  and  C_9 
ROOT
ATOM      1  N   UNL d   1      14.280  12.634  -2.036  0.00  0.00    -0.242 N 
ATOM      2  C   UNL d   1      15.057  12.338  -1.969  0.00  0.00     0.267 A 
ATOM      3  C   UNL d   1      14.104  13.032  -1.332  0.00  0.00     0.267 A 
ATOM      4  C   UNL d   1      14.761  12.985  -0.832  0.00  0.00     0.062 A 
ATOM      5  C   UNL d   1      15.350  12.557  -1.224  0.00  0.00     0.066 A 
ATOM      6  O   UNL d   1      15.455  11.907  -2.543  0.00  0.00    -0.267 OA
ATOM      7  O   UNL d   1      13.387  13.411  -1.163  0.00  0.00    -0.267 OA
ENDROOT
BRANCH   4   8
ATOM      8  C   UNL d   1      14.818  13.309  -0.076  0.00  0.00     0.018 C 
BRANCH   8   9
ATOM      9  C   UNL d   1      15.180  14.044  -0.064  0.00  0.00     0.045 A 
ATOM     10  N   UNL d   1      14.800  14.772  -0.073  0.00  0.00    -0.308 N 
ATOM     11  C   UNL d   1      15.366  15.365  -0.056  0.00  0.00     0.060 A 
ATOM     12  C   UNL d   1      13.981  14.887  -0.096  0.00  0.00     0.099 C 
ATOM     13  C   UNL d   1      15.308  16.181  -0.057  0.00  0.00     0.017 A 
ATOM     14  C   UNL d   1      16.105  15.005  -0.036  0.00  0.00    -0.002 A 
ATOM     15  C   UNL d   1      15.993  16.647  -0.036  0.00  0.00     0.002 A 
ATOM     16  C   UNL d   1      16.734  16.278  -0.016  0.00  0.00    -0.000 A 
ATOM     17  C   UNL d   1      16.790  15.464  -0.016  0.00  0.00    -0.003 A 
ATOM     18  C   UNL d   1      15.991  14.186  -0.041  0.00  0.00     0.054 A 
ATOM     19  C   UNL d   1      16.773  14.463  -0.019  0.00  0.00     0.010 C 
ATOM     20  C   UNL d   1      16.623  13.647  -0.025  0.00  0.00     0.010 C 
ENDBRANCH   8   9
ENDBRANCH   4   8
BRANCH   1  21
ATOM     21  C   UNL d   1      13.782  12.549  -2.679  0.00  0.00     0.070 A 
ATOM     22  C   UNL d   1      13.758  13.127  -3.273  0.00  0.00     0.016 A 
ATOM     23  C   UNL d   1      13.252  13.032  -3.917  0.00  0.00     0.001 A 
ATOM     24  C   UNL d   1      14.233  13.788  -3.220  0.00  0.00     0.001 A 
ATOM     25  C   UNL d   1      13.229  13.604  -4.505  0.00  0.00     0.000 A 
ATOM     26  C   UNL d   1      12.773  12.368  -3.973  0.00  0.00     0.000 A 
ATOM     27  C   UNL d   1      13.704  14.270  -4.456  0.00  0.00     0.000 A 
ATOM     28  C   UNL d   1      14.209  14.361  -3.808  0.00  0.00     0.000 A 
ATOM     29  C   UNL d   1      12.797  11.789  -3.379  0.00  0.00     0.002 A 
ATOM     30  C   UNL d   1      13.300  11.878  -2.733  0.00  0.00     0.018 A 
ENDBRANCH   1  21
TORSDOF 3
ENDMDL
