MODEL 1
REMARK VINA RESULT:      64.2      0.000      0.000
REMARK  4 active torsions:
REMARK  status: ('A' for Active; 'I' for Inactive)
REMARK    1  A    between atoms: C_11  and  N_4 
REMARK    2  A    between atoms: C_18  and  C_7 
REMARK    3  A    between atoms: C_19  and  C_11 
REMARK    4  A    between atoms: O_20  and  C_16 
ROOT
ATOM      1  C   UNL d   1     -54.714-101.144 -41.370  0.00  0.00     0.137 A 
ATOM      2  C   UNL d   1     -54.713-101.957 -41.491  0.00  0.00     0.192 A 
ATOM      3  C   UNL d   1     -54.714-100.631 -42.014  0.00  0.00     0.272 A 
ATOM      4  N   UNL d   1     -54.713-100.928 -42.778  0.00  0.00    -0.258 N 
ATOM      5  N   UNL d   1     -54.713-102.263 -42.253  0.00  0.00    -0.204 NA
ATOM      6  C   UNL d   1     -54.714-100.839 -40.601  0.00  0.00     0.205 A 
ATOM      7  C   UNL d   1     -54.713-101.749 -42.905  0.00  0.00     0.152 A 
ATOM      8  C   UNL d   1     -54.714-101.354 -39.965  0.00  0.00     0.062 A 
ATOM      9  O   UNL d   1     -54.713-102.473 -40.848  0.00  0.00    -0.289 OA
ATOM     10  C   UNL d   1     -54.714-102.168 -40.082  0.00  0.00     0.107 A 
ATOM     11  C   UNL d   1     -54.714-102.681 -39.430  0.00  0.00     0.049 A 
ATOM     12  C   UNL d   1     -54.715-101.049 -39.195  0.00  0.00     0.007 A 
ATOM     13  O   UNL d   1     -54.714 -99.818 -41.889  0.00  0.00    -0.266 OA
ATOM     14  O   UNL d   1     -54.715-100.024 -40.484  0.00  0.00    -0.286 OA
ATOM     15  C   UNL d   1     -54.714-102.375 -38.668  0.00  0.00     0.096 A 
ATOM     16  C   UNL d   1     -54.715-101.557 -38.551  0.00  0.00     0.024 A 
ENDROOT
BRANCH   4  17
ATOM     17  C   UNL d   1     -54.713-100.407 -43.430  0.00  0.00     0.084 C 
BRANCH  17  18
ATOM     18  C   UNL d   1     -55.414-100.049 -43.669  0.00  0.00     0.018 A 
ATOM     19  C   UNL d   1     -56.109-100.487 -43.771  0.00  0.00     0.002 A 
ATOM     20  C   UNL d   1     -56.809-100.120 -44.011  0.00  0.00     0.000 A 
ATOM     21  C   UNL d   1     -56.814 -99.293 -44.152  0.00  0.00     0.000 A 
ATOM     22  C   UNL d   1     -56.117 -98.851 -44.050  0.00  0.00     0.000 A 
ATOM     23  C   UNL d   1     -55.422 -99.230 -43.809  0.00  0.00     0.002 A 
ENDBRANCH  17  18
ENDBRANCH   4  17
BRANCH   7  24
ATOM     24  C   UNL d   1     -54.712-102.047 -43.670  0.00  0.00     0.038 C 
ATOM     25  C   UNL d   1     -54.893-102.838 -43.803  0.00  0.00     0.003 C 
ENDBRANCH   7  24
BRANCH  15  26
ATOM     26  O   UNL d   1     -54.714-102.879 -38.023  0.00  0.00    -0.328 OA
ATOM     27  C   UNL d   1     -54.932-102.595 -37.283  0.00  0.00     0.181 C 
ENDBRANCH  15  26
TORSDOF 4
ENDMDL
