MODEL 1
REMARK VINA RESULT:      -7.3      0.000      0.000
REMARK  5 active torsions:
REMARK  status: ('A' for Active; 'I' for Inactive)
REMARK    1  A    between atoms: C_12  and  C_3 
REMARK    2  A    between atoms: C_14  and  N_5 
REMARK    3  A    between atoms: C_11  and  C_6 
REMARK    4  A    between atoms: O_25  and  C_12 
REMARK    5  A    between atoms: C_24  and  C_14 
ROOT
ATOM      1  C   UNL d   1     -47.909  12.375  23.042  0.00  0.00     0.080 A 
ATOM      2  C   UNL d   1     -47.216  12.827  23.063  0.00  0.00     0.267 A 
ATOM      3  C   UNL d   1     -49.320  12.265  22.806  0.00  0.00     0.106 A 
ATOM      4  C   UNL d   1     -47.887  11.567  23.241  0.00  0.00     0.108 A 
ATOM      5  N   UNL d   1     -46.497  12.473  23.282  0.00  0.00    -0.271 N 
ATOM      6  C   UNL d   1     -48.627  12.717  22.826  0.00  0.00     0.015 A 
ATOM      7  C   UNL d   1     -49.294  11.466  23.003  0.00  0.00     0.208 A 
ATOM      8  O   UNL d   1     -48.575  11.106  23.224  0.00  0.00    -0.288 OA
ATOM      9  C   UNL d   1     -47.172  11.216  23.459  0.00  0.00     0.043 A 
ATOM     10  C   UNL d   1     -46.475  11.665  23.480  0.00  0.00     0.069 A 
ATOM     11  O   UNL d   1     -47.238  13.627  22.866  0.00  0.00    -0.267 OA
ATOM     12  N   UNL d   1     -49.987  11.009  22.984  0.00  0.00    -0.121 N 
ATOM     13  C   UNL d   1     -45.764  11.313  23.697  0.00  0.00     0.019 C 
ENDROOT
BRANCH   6  14
ATOM     14  C   UNL d   1     -48.654  13.517  22.629  0.00  0.00     0.001 A 
ATOM     15  C   UNL d   1     -48.852  14.073  23.207  0.00  0.00     0.012 A 
ATOM     16  C   UNL d   1     -48.879  14.873  23.010  0.00  0.00     0.068 A 
ATOM     17 CL   UNL d   1     -49.076  15.428  23.583  0.00  0.00    -0.082 Cl
ATOM     18  C   UNL d   1     -48.710  15.118  22.244  0.00  0.00     0.068 A 
ATOM     19  C   UNL d   1     -48.511  14.549  21.666  0.00  0.00     0.012 A 
ATOM     20 CL   UNL d   1     -48.736  15.916  22.044  0.00  0.00    -0.082 Cl
ATOM     21  C   UNL d   1     -48.485  13.750  21.866  0.00  0.00     0.001 A 
ENDBRANCH   6  14
BRANCH   3  22
ATOM     22  C   UNL d   1     -50.030  12.609  22.591  0.00  0.00     0.299 C 
ATOM     23  O   UNL d   1     -50.513  12.956  23.162  0.00  0.00    -0.259 OA
BRANCH  22  24
ATOM     24  O   UNL d   1     -50.270  12.611  21.804  0.00  0.00    -0.296 OA
ATOM     25  C   UNL d   1     -51.064  12.733  21.608  0.00  0.00     0.185 C 
ENDBRANCH  22  24
ENDBRANCH   3  22
BRANCH   5  26
ATOM     26  C   UNL d   1     -45.808  12.912  23.304  0.00  0.00     0.108 C 
BRANCH  26  27
ATOM     27  C   UNL d   1     -45.288  12.902  22.668  0.00  0.00     0.118 A 
ATOM     28  O   UNL d   1     -44.744  12.319  22.498  0.00  0.00    -0.304 OA
ATOM     29  C   UNL d   1     -44.341  12.531  21.814  0.00  0.00     0.123 A 
ATOM     30  C   UNL d   1     -44.636  13.257  21.553  0.00  0.00     0.029 A 
ATOM     31  C   UNL d   1     -45.226  13.485  22.087  0.00  0.00     0.028 A 
ENDBRANCH  26  27
ENDBRANCH   5  26
TORSDOF 5
ENDMDL
MODEL 2
REMARK VINA RESULT:      -5.6      1.479      3.693
REMARK  5 active torsions:
REMARK  status: ('A' for Active; 'I' for Inactive)
REMARK    1  A    between atoms: C_12  and  C_3 
REMARK    2  A    between atoms: C_14  and  N_5 
REMARK    3  A    between atoms: C_11  and  C_6 
REMARK    4  A    between atoms: O_25  and  C_12 
REMARK    5  A    between atoms: C_24  and  C_14 
ROOT
ATOM      1  C   UNL d   1     -48.197  12.151  23.259  0.00  0.00     0.080 A 
ATOM      2  C   UNL d   1     -48.674  12.816  23.140  0.00  0.00     0.267 A 
ATOM      3  C   UNL d   1     -46.907  11.521  23.239  0.00  0.00     0.106 A 
ATOM      4  C   UNL d   1     -48.533  11.437  23.523  0.00  0.00     0.108 A 
ATOM      5  N   UNL d   1     -49.492  12.770  23.284  0.00  0.00    -0.271 N 
ATOM      6  C   UNL d   1     -47.385  12.187  23.119  0.00  0.00     0.015 A 
ATOM      7  C   UNL d   1     -47.244  10.816  23.499  0.00  0.00     0.208 A 
ATOM      8  O   UNL d   1     -48.063  10.766  23.645  0.00  0.00    -0.288 OA
ATOM      9  C   UNL d   1     -49.345  11.392  23.666  0.00  0.00     0.043 A 
ATOM     10  C   UNL d   1     -49.828  12.056  23.548  0.00  0.00     0.069 A 
ATOM     11  O   UNL d   1     -48.342  13.524  22.879  0.00  0.00    -0.267 OA
ATOM     12  N   UNL d   1     -46.769  10.147  23.620  0.00  0.00    -0.121 N 
ATOM     13  C   UNL d   1     -50.636  12.009  23.691  0.00  0.00     0.019 C 
ENDROOT
BRANCH   6  14
ATOM     14  C   UNL d   1     -47.048  12.891  22.858  0.00  0.00     0.001 A 
ATOM     15  C   UNL d   1     -46.768  13.438  23.410  0.00  0.00     0.012 A 
ATOM     16  C   UNL d   1     -46.430  14.144  23.150  0.00  0.00     0.068 A 
ATOM     17 CL   UNL d   1     -46.151  14.689  23.697  0.00  0.00    -0.082 Cl
ATOM     18  C   UNL d   1     -46.371  14.304  22.345  0.00  0.00     0.068 A 
ATOM     19  C   UNL d   1     -46.657  13.745  21.794  0.00  0.00     0.012 A 
ATOM     20 CL   UNL d   1     -46.035  15.007  22.081  0.00  0.00    -0.082 Cl
ATOM     21  C   UNL d   1     -46.994  13.041  22.058  0.00  0.00     0.001 A 
ENDBRANCH   6  14
BRANCH   3  22
ATOM     22  C   UNL d   1     -46.103  11.561  23.098  0.00  0.00     0.299 C 
ATOM     23  O   UNL d   1     -45.822  11.779  22.355  0.00  0.00    -0.259 OA
BRANCH  22  24
ATOM     24  O   UNL d   1     -45.567  11.384  23.697  0.00  0.00    -0.296 OA
ATOM     25  C   UNL d   1     -44.856  10.999  23.522  0.00  0.00     0.185 C 
ENDBRANCH  22  24
ENDBRANCH   3  22
BRANCH   5  26
ATOM     26  C   UNL d   1     -49.971  13.422  23.169  0.00  0.00     0.108 C 
BRANCH  26  27
ATOM     27  C   UNL d   1     -50.284  13.582  22.426  0.00  0.00     0.118 A 
ATOM     28  O   UNL d   1     -50.500  13.030  21.865  0.00  0.00    -0.304 OA
ATOM     29  C   UNL d   1     -50.786  13.429  21.206  0.00  0.00     0.123 A 
ATOM     30  C   UNL d   1     -50.749  14.240  21.357  0.00  0.00     0.029 A 
ATOM     31  C   UNL d   1     -50.436  14.331  22.117  0.00  0.00     0.028 A 
ENDBRANCH  26  27
ENDBRANCH   5  26
TORSDOF 5
ENDMDL
MODEL 3
REMARK VINA RESULT:      -5.6      7.343      9.360
REMARK  5 active torsions:
REMARK  status: ('A' for Active; 'I' for Inactive)
REMARK    1  A    between atoms: C_12  and  C_3 
REMARK    2  A    between atoms: C_14  and  N_5 
REMARK    3  A    between atoms: C_11  and  C_6 
REMARK    4  A    between atoms: O_25  and  C_12 
REMARK    5  A    between atoms: C_24  and  C_14 
ROOT
ATOM      1  C   UNL d   1     -39.292  15.039  19.758  0.00  0.00     0.080 A 
ATOM      2  C   UNL d   1     -39.740  14.746  19.126  0.00  0.00     0.267 A 
ATOM      3  C   UNL d   1     -39.139  15.312  21.159  0.00  0.00     0.106 A 
ATOM      4  C   UNL d   1     -38.536  15.359  19.622  0.00  0.00     0.108 A 
ATOM      5  N   UNL d   1     -39.432  14.772  18.354  0.00  0.00    -0.271 N 
ATOM      6  C   UNL d   1     -39.587  15.019  20.527  0.00  0.00     0.015 A 
ATOM      7  C   UNL d   1     -38.392  15.627  21.020  0.00  0.00     0.208 A 
ATOM      8  O   UNL d   1     -38.080  15.654  20.247  0.00  0.00    -0.288 OA
ATOM      9  C   UNL d   1     -38.231  15.383  18.854  0.00  0.00     0.043 A 
ATOM     10  C   UNL d   1     -38.676  15.091  18.218  0.00  0.00     0.069 A 
ATOM     11  O   UNL d   1     -40.488  14.430  19.262  0.00  0.00    -0.267 OA
ATOM     12  N   UNL d   1     -37.940  15.922  21.650  0.00  0.00    -0.121 N 
ATOM     13  C   UNL d   1     -38.371  15.117  17.455  0.00  0.00     0.019 C 
ENDROOT
BRANCH   6  14
ATOM     14  C   UNL d   1     -40.336  14.703  20.667  0.00  0.00     0.001 A 
ATOM     15  C   UNL d   1     -40.986  15.209  20.728  0.00  0.00     0.012 A 
ATOM     16  C   UNL d   1     -41.735  14.894  20.868  0.00  0.00     0.068 A 
ATOM     17 CL   UNL d   1     -42.384  15.395  20.929  0.00  0.00    -0.082 Cl
ATOM     18  C   UNL d   1     -41.836  14.082  20.947  0.00  0.00     0.068 A 
ATOM     19  C   UNL d   1     -41.173  13.578  20.884  0.00  0.00     0.012 A 
ATOM     20 CL   UNL d   1     -42.582  13.764  21.087  0.00  0.00    -0.082 Cl
ATOM     21  C   UNL d   1     -40.425  13.896  20.744  0.00  0.00     0.001 A 
ENDBRANCH   6  14
BRANCH   3  22
ATOM     22  C   UNL d   1     -39.437  15.289  21.920  0.00  0.00     0.299 C 
ATOM     23  O   UNL d   1     -39.940  15.885  22.187  0.00  0.00    -0.259 OA
BRANCH  22  24
ATOM     24  O   UNL d   1     -39.237  14.672  22.426  0.00  0.00    -0.296 OA
ATOM     25  C   UNL d   1     -39.126  14.813  23.234  0.00  0.00     0.185 C 
ENDBRANCH  22  24
ENDBRANCH   3  22
BRANCH   5  26
ATOM     26  C   UNL d   1     -39.868  14.484  17.725  0.00  0.00     0.108 C 
BRANCH  26  27
ATOM     27  C   UNL d   1     -40.339  14.990  17.281  0.00  0.00     0.118 A 
ATOM     28  O   UNL d   1     -40.080  15.530  16.728  0.00  0.00    -0.304 OA
ATOM     29  C   UNL d   1     -40.734  15.918  16.417  0.00  0.00     0.123 A 
ATOM     30  C   UNL d   1     -41.412  15.617  16.781  0.00  0.00     0.029 A 
ATOM     31  C   UNL d   1     -41.162  15.040  17.319  0.00  0.00     0.028 A 
ENDBRANCH  26  27
ENDBRANCH   5  26
TORSDOF 5
ENDMDL
