MODEL 1
REMARK VINA RESULT:      -7.8      0.000      0.000
REMARK  4 active torsions:
REMARK  status: ('A' for Active; 'I' for Inactive)
REMARK    1  A    between atoms: C_4  and  C_1 
REMARK    2  A    between atoms: N_7  and  C_2 
REMARK       I    between atoms: N_8  and  C_4 
REMARK       I    between atoms: C_11  and  N_7 
REMARK    3  A    between atoms: C_13  and  N_8 
REMARK    4  A    between atoms: C_22  and  C_11 
ROOT
ATOM      1  C   UNL d   1      53.166  32.769  53.100  0.00  0.00     0.175 A 
ATOM      2  C   UNL d   1      52.864  33.075  53.744  0.00  0.00     0.114 A 
ATOM      3  O   UNL d   1      53.930  32.719  53.197  0.00  0.00    -0.301 OA
ATOM      4  C   UNL d   1      53.440  33.215  54.239  0.00  0.00     0.043 A 
ATOM      5  C   UNL d   1      54.102  32.994  53.901  0.00  0.00     0.102 A 
ATOM      6  C   UNL d   1      53.453  33.510  54.947  0.00  0.00     0.004 A 
ATOM      7  C   UNL d   1      54.769  33.070  54.271  0.00  0.00     0.025 A 
ATOM      8  C   UNL d   1      54.126  33.587  55.322  0.00  0.00     0.000 A 
ATOM      9  C   UNL d   1      54.781  33.367  54.983  0.00  0.00     0.002 A 
ENDROOT
BRANCH   1  10
ATOM     10  C   UNL d   1      52.778  32.554  52.477  0.00  0.00     0.303 C 
ATOM     11  N   UNL d   1      52.633  31.075  52.298  0.00  0.00    -0.206 NA
ATOM     12  O   UNL d   1      52.460  33.006  51.943  0.00  0.00    -0.263 OA
BRANCH  11  13
ATOM     13  C   UNL d   1      52.964  30.557  52.856  0.00  0.00     0.087 A 
ATOM     14  C   UNL d   1      52.494  30.257  53.473  0.00  0.00     0.046 A 
ATOM     15  C   UNL d   1      52.823  29.742  54.028  0.00  0.00     0.124 A 
ATOM     16  O   UNL d   1      52.357  29.438  54.649  0.00  0.00    -0.301 OA
ATOM     17  C   UNL d   1      53.629  29.515  53.982  0.00  0.00     0.123 A 
ATOM     18  C   UNL d   1      52.687  28.922  55.205  0.00  0.00     0.149 A 
ATOM     19  C   UNL d   1      53.484  28.702  55.153  0.00  0.00     0.149 A 
ATOM     20  O   UNL d   1      53.960  29.007  54.526  0.00  0.00    -0.301 OA
ATOM     21  C   UNL d   1      54.094  29.820  53.360  0.00  0.00     0.028 A 
ATOM     22  C   UNL d   1      53.759  30.345  52.794  0.00  0.00     0.021 A 
ENDBRANCH  11  13
ENDBRANCH   1  10
BRANCH   2  23
ATOM     23  N   UNL d   1      52.114  33.216  53.865  0.00  0.00    -0.206 NA
ATOM     24  C   UNL d   1      51.790  33.955  53.669  0.00  0.00     0.279 C 
ATOM     25  O   UNL d   1      52.275  34.551  53.338  0.00  0.00    -0.265 OA
BRANCH  24  26
ATOM     26  C   UNL d   1      50.978  34.102  53.802  0.00  0.00     0.062 C 
ATOM     27  C   UNL d   1      50.603  34.725  53.411  0.00  0.00     0.005 C 
ENDBRANCH  24  26
ENDBRANCH   2  23
TORSDOF 4
ENDMDL
MODEL 2
REMARK VINA RESULT:      -6.1      1.707      4.193
REMARK  4 active torsions:
REMARK  status: ('A' for Active; 'I' for Inactive)
REMARK    1  A    between atoms: C_4  and  C_1 
REMARK    2  A    between atoms: N_7  and  C_2 
REMARK       I    between atoms: N_8  and  C_4 
REMARK       I    between atoms: C_11  and  N_7 
REMARK    3  A    between atoms: C_13  and  N_8 
REMARK    4  A    between atoms: C_22  and  C_11 
ROOT
ATOM      1  C   UNL d   1      53.817  32.838  53.074  0.00  0.00     0.175 A 
ATOM      2  C   UNL d   1      53.928  32.369  53.680  0.00  0.00     0.114 A 
ATOM      3  O   UNL d   1      53.274  32.520  52.625  0.00  0.00    -0.301 OA
ATOM      4  C   UNL d   1      53.456  31.762  53.607  0.00  0.00     0.043 A 
ATOM      5  C   UNL d   1      53.049  31.855  52.954  0.00  0.00     0.102 A 
ATOM      6  C   UNL d   1      53.341  31.142  54.045  0.00  0.00     0.004 A 
ATOM      7  C   UNL d   1      52.533  31.330  52.742  0.00  0.00     0.025 A 
ATOM      8  C   UNL d   1      52.819  30.611  53.831  0.00  0.00     0.000 A 
ATOM      9  C   UNL d   1      52.418  30.706  53.181  0.00  0.00     0.002 A 
ENDROOT
BRANCH   1  10
ATOM     10  C   UNL d   1      54.178  33.498  52.940  0.00  0.00     0.303 C 
ATOM     11  N   UNL d   1      53.286  34.686  52.759  0.00  0.00    -0.206 NA
ATOM     12  O   UNL d   1      54.935  33.617  52.890  0.00  0.00    -0.263 OA
BRANCH  11  13
ATOM     13  C   UNL d   1      52.462  34.595  52.807  0.00  0.00     0.087 A 
ATOM     14  C   UNL d   1      52.024  34.423  52.122  0.00  0.00     0.046 A 
ATOM     15  C   UNL d   1      51.204  34.332  52.170  0.00  0.00     0.124 A 
ATOM     16  O   UNL d   1      50.758  34.160  51.487  0.00  0.00    -0.301 OA
ATOM     17  C   UNL d   1      50.803  34.410  52.902  0.00  0.00     0.123 A 
ATOM     18  C   UNL d   1      49.938  34.069  51.534  0.00  0.00     0.149 A 
ATOM     19  C   UNL d   1      49.549  34.147  52.261  0.00  0.00     0.149 A 
ATOM     20  O   UNL d   1      49.995  34.322  52.956  0.00  0.00    -0.301 OA
ATOM     21  C   UNL d   1      51.249  34.583  53.585  0.00  0.00     0.028 A 
ATOM     22  C   UNL d   1      52.085  34.676  53.537  0.00  0.00     0.021 A 
ENDBRANCH  11  13
ENDBRANCH   1  10
BRANCH   2  23
ATOM     23  N   UNL d   1      54.428  32.492  54.256  0.00  0.00    -0.206 NA
ATOM     24  C   UNL d   1      54.160  32.786  54.986  0.00  0.00     0.279 C 
ATOM     25  O   UNL d   1      53.347  32.949  55.099  0.00  0.00    -0.265 OA
BRANCH  24  26
ATOM     26  C   UNL d   1      54.704  32.917  55.607  0.00  0.00     0.062 C 
ATOM     27  C   UNL d   1      54.676  33.622  56.036  0.00  0.00     0.005 C 
ENDBRANCH  24  26
ENDBRANCH   2  23
TORSDOF 4
ENDMDL
MODEL 3
REMARK VINA RESULT:      -5.9      1.399      2.374
REMARK  4 active torsions:
REMARK  status: ('A' for Active; 'I' for Inactive)
REMARK    1  A    between atoms: C_4  and  C_1 
REMARK    2  A    between atoms: N_7  and  C_2 
REMARK       I    between atoms: N_8  and  C_4 
REMARK       I    between atoms: C_11  and  N_7 
REMARK    3  A    between atoms: C_13  and  N_8 
REMARK    4  A    between atoms: C_22  and  C_11 
ROOT
ATOM      1  C   UNL d   1      53.124  33.667  53.192  0.00  0.00     0.175 A 
ATOM      2  C   UNL d   1      52.613  33.964  53.692  0.00  0.00     0.114 A 
ATOM      3  O   UNL d   1      52.729  33.348  52.611  0.00  0.00    -0.301 OA
ATOM      4  C   UNL d   1      51.902  33.829  53.421  0.00  0.00     0.043 A 
ATOM      5  C   UNL d   1      51.973  33.447  52.750  0.00  0.00     0.102 A 
ATOM      6  C   UNL d   1      51.205  34.001  53.691  0.00  0.00     0.004 A 
ATOM      7  C   UNL d   1      51.349  33.239  52.356  0.00  0.00     0.025 A 
ATOM      8  C   UNL d   1      50.574  33.791  53.293  0.00  0.00     0.000 A 
ATOM      9  C   UNL d   1      50.649  33.412  52.628  0.00  0.00     0.002 A 
ENDROOT
BRANCH   1  10
ATOM     10  C   UNL d   1      53.885  33.686  53.260  0.00  0.00     0.303 C 
ATOM     11  N   UNL d   1      54.520  32.389  53.657  0.00  0.00    -0.206 NA
ATOM     12  O   UNL d   1      54.352  34.286  53.149  0.00  0.00    -0.263 OA
BRANCH  11  13
ATOM     13  C   UNL d   1      54.046  31.720  53.786  0.00  0.00     0.087 A 
ATOM     14  C   UNL d   1      53.831  31.235  53.146  0.00  0.00     0.046 A 
ATOM     15  C   UNL d   1      53.359  30.569  53.274  0.00  0.00     0.124 A 
ATOM     16  O   UNL d   1      53.140  30.079  52.636  0.00  0.00    -0.301 OA
ATOM     17  C   UNL d   1      53.091  30.372  54.044  0.00  0.00     0.123 A 
ATOM     18  C   UNL d   1      52.667  29.412  52.765  0.00  0.00     0.149 A 
ATOM     19  C   UNL d   1      52.406  29.224  53.527  0.00  0.00     0.149 A 
ATOM     20  O   UNL d   1      52.626  29.717  54.177  0.00  0.00    -0.301 OA
ATOM     21  C   UNL d   1      53.311  30.863  54.681  0.00  0.00     0.028 A 
ATOM     22  C   UNL d   1      53.792  31.542  54.551  0.00  0.00     0.021 A 
ENDBRANCH  11  13
ENDBRANCH   1  10
BRANCH   2  23
ATOM     23  N   UNL d   1      52.789  34.332  54.349  0.00  0.00    -0.206 NA
ATOM     24  C   UNL d   1      52.837  35.161  54.363  0.00  0.00     0.279 C 
ATOM     25  O   UNL d   1      52.696  35.601  53.665  0.00  0.00    -0.265 OA
BRANCH  24  26
ATOM     26  C   UNL d   1      53.027  35.554  55.075  0.00  0.00     0.062 C 
ATOM     27  C   UNL d   1      53.003  36.379  55.109  0.00  0.00     0.005 C 
ENDBRANCH  24  26
ENDBRANCH   2  23
TORSDOF 4
ENDMDL
MODEL 4
REMARK VINA RESULT:      -5.6      1.544      4.366
REMARK  4 active torsions:
REMARK  status: ('A' for Active; 'I' for Inactive)
REMARK    1  A    between atoms: C_4  and  C_1 
REMARK    2  A    between atoms: N_7  and  C_2 
REMARK       I    between atoms: N_8  and  C_4 
REMARK       I    between atoms: C_11  and  N_7 
REMARK    3  A    between atoms: C_13  and  N_8 
REMARK    4  A    between atoms: C_22  and  C_11 
ROOT
ATOM      1  C   UNL d   1      53.568  32.037  53.139  0.00  0.00     0.175 A 
ATOM      2  C   UNL d   1      53.037  31.600  53.494  0.00  0.00     0.114 A 
ATOM      3  O   UNL d   1      53.197  32.562  52.711  0.00  0.00    -0.301 OA
ATOM      4  C   UNL d   1      52.337  31.853  53.287  0.00  0.00     0.043 A 
ATOM      5  C   UNL d   1      52.435  32.450  52.801  0.00  0.00     0.102 A 
ATOM      6  C   UNL d   1      51.628  31.624  53.473  0.00  0.00     0.004 A 
ATOM      7  C   UNL d   1      51.827  32.812  52.506  0.00  0.00     0.025 A 
ATOM      8  C   UNL d   1      51.014  31.990  53.175  0.00  0.00     0.000 A 
ATOM      9  C   UNL d   1      51.115  32.581  52.694  0.00  0.00     0.002 A 
ENDROOT
BRANCH   1  10
ATOM     10  C   UNL d   1      54.326  31.964  53.199  0.00  0.00     0.303 C 
ATOM     11  N   UNL d   1      54.992  32.957  54.099  0.00  0.00    -0.206 NA
ATOM     12  O   UNL d   1      54.777  31.445  52.854  0.00  0.00    -0.263 OA
BRANCH  11  13
ATOM     13  C   UNL d   1      54.536  33.532  54.488  0.00  0.00     0.087 A 
ATOM     14  C   UNL d   1      54.299  34.217  54.083  0.00  0.00     0.046 A 
ATOM     15  C   UNL d   1      53.846  34.789  54.470  0.00  0.00     0.124 A 
ATOM     16  O   UNL d   1      53.605  35.479  54.069  0.00  0.00    -0.301 OA
ATOM     17  C   UNL d   1      53.617  34.690  55.270  0.00  0.00     0.123 A 
ATOM     18  C   UNL d   1      53.151  36.051  54.456  0.00  0.00     0.149 A 
ATOM     19  C   UNL d   1      52.929  35.946  55.247  0.00  0.00     0.149 A 
ATOM     20  O   UNL d   1      53.170  35.249  55.658  0.00  0.00    -0.301 OA
ATOM     21  C   UNL d   1      53.858  33.999  55.671  0.00  0.00     0.028 A 
ATOM     22  C   UNL d   1      54.321  33.416  55.277  0.00  0.00     0.021 A 
ENDBRANCH  11  13
ENDBRANCH   1  10
BRANCH   2  23
ATOM     23  N   UNL d   1      53.186  31.012  53.972  0.00  0.00    -0.206 NA
ATOM     24  C   UNL d   1      53.161  30.229  53.694  0.00  0.00     0.279 C 
ATOM     25  O   UNL d   1      52.973  30.076  52.893  0.00  0.00    -0.265 OA
BRANCH  24  26
ATOM     26  C   UNL d   1      53.323  29.597  54.215  0.00  0.00     0.062 C 
ATOM     27  C   UNL d   1      53.220  28.818  53.961  0.00  0.00     0.005 C 
ENDBRANCH  24  26
ENDBRANCH   2  23
TORSDOF 4
ENDMDL
MODEL 5
REMARK VINA RESULT:      -5.5      1.162      3.842
REMARK  4 active torsions:
REMARK  status: ('A' for Active; 'I' for Inactive)
REMARK    1  A    between atoms: C_4  and  C_1 
REMARK    2  A    between atoms: N_7  and  C_2 
REMARK       I    between atoms: N_8  and  C_4 
REMARK       I    between atoms: C_11  and  N_7 
REMARK    3  A    between atoms: C_13  and  N_8 
REMARK    4  A    between atoms: C_22  and  C_11 
ROOT
ATOM      1  C   UNL d   1      53.584  31.950  53.294  0.00  0.00     0.175 A 
ATOM      2  C   UNL d   1      53.491  31.753  54.038  0.00  0.00     0.114 A 
ATOM      3  O   UNL d   1      54.030  32.579  53.269  0.00  0.00    -0.301 OA
ATOM      4  C   UNL d   1      53.880  32.260  54.473  0.00  0.00     0.043 A 
ATOM      5  C   UNL d   1      54.215  32.773  53.997  0.00  0.00     0.102 A 
ATOM      6  C   UNL d   1      53.974  32.324  55.231  0.00  0.00     0.004 A 
ATOM      7  C   UNL d   1      54.640  33.344  54.282  0.00  0.00     0.025 A 
ATOM      8  C   UNL d   1      54.404  32.901  55.520  0.00  0.00     0.000 A 
ATOM      9  C   UNL d   1      54.735  33.407  55.045  0.00  0.00     0.002 A 
ENDROOT
BRANCH   1  10
ATOM     10  C   UNL d   1      53.286  31.587  52.691  0.00  0.00     0.303 C 
ATOM     11  N   UNL d   1      52.121  32.273  52.047  0.00  0.00    -0.206 NA
ATOM     12  O   UNL d   1      53.515  30.921  52.384  0.00  0.00    -0.263 OA
BRANCH  11  13
ATOM     13  C   UNL d   1      51.847  32.994  52.353  0.00  0.00     0.087 A 
ATOM     14  C   UNL d   1      51.180  33.008  52.848  0.00  0.00     0.046 A 
ATOM     15  C   UNL d   1      50.907  33.726  53.152  0.00  0.00     0.124 A 
ATOM     16  O   UNL d   1      50.239  33.746  53.650  0.00  0.00    -0.301 OA
ATOM     17  C   UNL d   1      51.293  34.447  52.969  0.00  0.00     0.123 A 
ATOM     18  C   UNL d   1      49.965  34.465  53.955  0.00  0.00     0.149 A 
ATOM     19  C   UNL d   1      50.352  35.173  53.769  0.00  0.00     0.149 A 
ATOM     20  O   UNL d   1      51.029  35.158  53.265  0.00  0.00    -0.301 OA
ATOM     21  C   UNL d   1      51.962  34.426  52.471  0.00  0.00     0.028 A 
ATOM     22  C   UNL d   1      52.241  33.694  52.161  0.00  0.00     0.021 A 
ENDBRANCH  11  13
ENDBRANCH   1  10
BRANCH   2  23
ATOM     23  N   UNL d   1      53.079  31.153  54.295  0.00  0.00    -0.206 NA
ATOM     24  C   UNL d   1      53.422  30.397  54.334  0.00  0.00     0.279 C 
ATOM     25  O   UNL d   1      54.216  30.284  54.093  0.00  0.00    -0.265 OA
BRANCH  24  26
ATOM     26  C   UNL d   1      52.973  29.750  54.613  0.00  0.00     0.062 C 
ATOM     27  C   UNL d   1      53.345  29.032  54.779  0.00  0.00     0.005 C 
ENDBRANCH  24  26
ENDBRANCH   2  23
TORSDOF 4
ENDMDL
