MODEL 1
REMARK VINA RESULT:      27.8      0.000      0.000
REMARK  3 active torsions:
REMARK  status: ('A' for Active; 'I' for Inactive)
REMARK    1  A    between atoms: C_9  and  C_1 
REMARK    2  A    between atoms: C_11  and  C_2 
REMARK    3  A    between atoms: C_3  and  C_9 
ROOT
ATOM      1  C   UNL d   1      59.055  49.701  50.587  0.00  0.00     0.003 A 
ATOM      2  C   UNL d   1      57.552  49.688  49.938  0.00  0.00    -0.023 A 
ATOM      3  C   UNL d   1      58.953  49.700  49.771  0.00  0.00    -0.000 A 
ATOM      4  C   UNL d   1      58.402  49.696  51.071  0.00  0.00    -0.000 A 
ATOM      5  C   UNL d   1      57.650  49.690  50.753  0.00  0.00    -0.004 A 
ATOM      6  C   UNL d   1      58.205  49.693  49.454  0.00  0.00    -0.004 A 
ATOM      7  C   UNL d   1      58.501  49.698  51.896  0.00  0.00    -0.000 C 
ATOM      8  C   UNL d   1      59.612  49.704  49.272  0.00  0.00    -0.000 C 
ENDROOT
BRANCH   1   9
ATOM      9  C   UNL d   1      59.814  49.708  50.909  0.00  0.00     0.039 C 
BRANCH   9  10
ATOM     10  C   UNL d   1      60.413  49.144  51.003  0.00  0.00     0.163 A 
ATOM     11  N   UNL d   1      61.054  49.026  50.495  0.00  0.00    -0.224 NA
ATOM     12  C   UNL d   1      61.504  48.411  50.805  0.00  0.00     0.121 A 
ATOM     13  C   UNL d   1      61.154  48.142  51.501  0.00  0.00     0.121 A 
ATOM     14  N   UNL d   1      60.476  48.594  51.629  0.00  0.00    -0.224 NA
ENDBRANCH   9  10
ENDBRANCH   1   9
BRANCH   2  15
ATOM     15  C   UNL d   1      56.793  49.682  49.616  0.00  0.00     0.019 C 
ATOM     16  C   UNL d   1      56.033  49.675  49.294  0.00  0.00     0.004 C 
ATOM     17  C   UNL d   1      56.471  49.655  50.375  0.00  0.00     0.004 C 
ATOM     18  C   UNL d   1      57.114  49.708  48.857  0.00  0.00     0.004 C 
ENDBRANCH   2  15
TORSDOF 3
ENDMDL
