MODEL 1
REMARK VINA RESULT:       2.9      0.000      0.000
REMARK  4 active torsions:
REMARK  status: ('A' for Active; 'I' for Inactive)
REMARK    1  A    between atoms: N_10  and  C_3 
REMARK    2  A    between atoms: C_13  and  C_5 
REMARK    3  A    between atoms: C_12  and  C_9 
REMARK    4  A    between atoms: C_19  and  N_11 
ROOT
ATOM      1  N   UNL d   1      58.084  -1.089  30.567  0.00  0.00    -0.196 N 
ATOM      2  C   UNL d   1      58.781  -1.319  30.183  0.00  0.00     0.167 A 
ATOM      3  C   UNL d   1      58.093  -0.429  31.045  0.00  0.00     0.152 A 
ATOM      4  N   UNL d   1      57.417  -2.178  29.980  0.00  0.00    -0.163 NA
ATOM      5  C   UNL d   1      58.790  -1.968  29.707  0.00  0.00     0.055 A 
ATOM      6  N   UNL d   1      59.468  -0.882  30.288  0.00  0.00    -0.231 NA
ATOM      7  C   UNL d   1      58.783   0.010  31.152  0.00  0.00     0.052 A 
ATOM      8  C   UNL d   1      58.103  -2.405  29.602  0.00  0.00     0.104 A 
ATOM      9  C   UNL d   1      59.469  -0.216  30.774  0.00  0.00     0.063 A 
ATOM     10  C   UNL d   1      58.099  -3.063  29.123  0.00  0.00     0.023 C 
ENDROOT
BRANCH   3  11
ATOM     11  N   UNL d   1      57.374  -0.192  31.441  0.00  0.00    -0.286 N 
ATOM     12  C   UNL d   1      56.907   0.469  31.203  0.00  0.00     0.101 A 
ATOM     13  C   UNL d   1      56.205   0.660  31.629  0.00  0.00     0.100 A 
ATOM     14  N   UNL d   1      55.963   0.192  32.297  0.00  0.00    -0.300 N 
ATOM     15  C   UNL d   1      56.436  -0.468  32.529  0.00  0.00     0.100 A 
ATOM     16  C   UNL d   1      57.149  -0.666  32.100  0.00  0.00     0.101 A 
BRANCH  14  17
ATOM     17  C   UNL d   1      55.262   0.377  32.728  0.00  0.00     0.080 C 
ATOM     18  C   UNL d   1      55.085  -0.060  33.432  0.00  0.00     0.021 C 
ENDBRANCH  14  17
ENDBRANCH   3  11
BRANCH   9  19
ATOM     19  C   UNL d   1      60.184   0.235  30.881  0.00  0.00     0.036 C 
ATOM     20  C   UNL d   1      60.890   0.682  30.981  0.00  0.00     0.006 C 
ATOM     21  C   UNL d   1      60.576   0.236  31.638  0.00  0.00     0.006 C 
ATOM     22  C   UNL d   1      60.496   0.678  30.227  0.00  0.00     0.006 C 
ENDBRANCH   9  19
BRANCH   5  23
ATOM     23  C   UNL d   1      59.480  -2.196  29.327  0.00  0.00     0.004 A 
ATOM     24  C   UNL d   1      59.776  -2.948  29.448  0.00  0.00     0.000 A 
ATOM     25  C   UNL d   1      60.472  -3.178  29.065  0.00  0.00     0.000 A 
ATOM     26  C   UNL d   1      60.853  -2.648  28.571  0.00  0.00     0.000 A 
ATOM     27  C   UNL d   1      60.546  -1.897  28.459  0.00  0.00     0.000 A 
ATOM     28  C   UNL d   1      59.860  -1.670  28.836  0.00  0.00     0.000 A 
ENDBRANCH   5  23
TORSDOF 4
ENDMDL
