MODEL 1
REMARK VINA RESULT:      79.1      0.000      0.000
REMARK  4 active torsions:
REMARK  status: ('A' for Active; 'I' for Inactive)
REMARK    1  A    between atoms: N_6  and  C_1 
REMARK       I    between atoms: C_9  and  N_6 
REMARK    2  A    between atoms: C_15  and  C_9 
REMARK    3  A    between atoms: C_13  and  C_16 
REMARK    4  A    between atoms: C_19  and  C_13 
ROOT
ATOM      1  C   UNL d   1     -50.585  26.219  33.414  0.00  0.00     0.123 A 
ATOM      2  C   UNL d   1     -51.400  26.092  33.387  0.00  0.00     0.092 A 
ATOM      3  C   UNL d   1     -51.524  25.281  33.367  0.00  0.00     0.013 A 
ATOM      4  C   UNL d   1     -50.800  24.906  33.382  0.00  0.00     0.029 A 
ATOM      5  S   UNL d   1     -50.209  25.484  33.411  0.00  0.00    -0.070 SA
ATOM      6  C   UNL d   1     -50.754  24.077  33.367  0.00  0.00     0.104 A 
ATOM      7  N   UNL d   1     -51.446  23.631  33.338  0.00  0.00    -0.294 NA
ATOM      8  C   UNL d   1     -51.970  26.679  33.380  0.00  0.00     0.103 C 
ATOM      9  C   UNL d   1     -52.181  24.013  33.322  0.00  0.00     0.099 A 
ATOM     10  C   UNL d   1     -52.222  24.838  33.337  0.00  0.00    -0.004 A 
ATOM     11  N   UNL d   1     -52.541  27.258  33.374  0.00  0.00    -0.191 NA
ATOM     12  C   UNL d   1     -49.970  24.328  33.396  0.00  0.00     0.029 C 
ATOM     13  C   UNL d   1     -50.510  23.286  33.360  0.00  0.00     0.029 C 
ATOM     14  C   UNL d   1     -52.145  23.189  33.308  0.00  0.00     0.029 C 
ATOM     15  C   UNL d   1     -52.915  24.393  33.307  0.00  0.00     0.029 C 
ENDROOT
BRANCH   1  16
ATOM     16  N   UNL d   1     -50.204  26.954  33.440  0.00  0.00    -0.201 NA
ATOM     17  C   UNL d   1     -49.855  27.214  34.141  0.00  0.00     0.280 C 
ATOM     18  O   UNL d   1     -49.883  26.748  34.817  0.00  0.00    -0.265 OA
BRANCH  17  19
ATOM     19  C   UNL d   1     -49.481  27.938  34.166  0.00  0.00     0.058 A 
ATOM     20  C   UNL d   1     -49.566  28.470  33.542  0.00  0.00     0.005 A 
ATOM     21  C   UNL d   1     -49.185  29.205  33.568  0.00  0.00     0.003 A 
ATOM     22  C   UNL d   1     -48.720  29.406  34.218  0.00  0.00     0.039 A 
ATOM     23  C   UNL d   1     -48.639  28.877  34.832  0.00  0.00     0.003 A 
ATOM     24  C   UNL d   1     -49.019  28.142  34.806  0.00  0.00     0.005 A 
BRANCH  22  25
ATOM     25  C   UNL d   1     -48.342  30.139  34.240  0.00  0.00     0.196 C 
ATOM     26  O   UNL d   1     -48.436  30.666  33.622  0.00  0.00    -0.287 OA
BRANCH  25  27
ATOM     27  C   UNL d   1     -47.872  30.336  34.885  0.00  0.00     0.039 A 
ATOM     28  C   UNL d   1     -47.737  31.119  35.079  0.00  0.00     0.003 A 
ATOM     29  C   UNL d   1     -47.267  31.317  35.723  0.00  0.00     0.000 A 
ATOM     30  C   UNL d   1     -46.927  30.716  36.180  0.00  0.00     0.000 A 
ATOM     31  C   UNL d   1     -47.061  29.924  35.987  0.00  0.00     0.000 A 
ATOM     32  C   UNL d   1     -47.533  29.736  35.341  0.00  0.00     0.003 A 
ENDBRANCH  25  27
ENDBRANCH  22  25
ENDBRANCH  17  19
ENDBRANCH   1  16
TORSDOF 4
ENDMDL
MODEL 2
REMARK VINA RESULT:      80.5      0.830      1.545
REMARK  4 active torsions:
REMARK  status: ('A' for Active; 'I' for Inactive)
REMARK    1  A    between atoms: N_6  and  C_1 
REMARK       I    between atoms: C_9  and  N_6 
REMARK    2  A    between atoms: C_15  and  C_9 
REMARK    3  A    between atoms: C_13  and  C_16 
REMARK    4  A    between atoms: C_19  and  C_13 
ROOT
ATOM      1  C   UNL d   1     -50.908  26.088  33.367  0.00  0.00     0.123 A 
ATOM      2  C   UNL d   1     -50.661  25.301  33.352  0.00  0.00     0.092 A 
ATOM      3  C   UNL d   1     -51.332  24.830  33.340  0.00  0.00     0.013 A 
ATOM      4  C   UNL d   1     -51.989  25.311  33.348  0.00  0.00     0.029 A 
ATOM      5  S   UNL d   1     -51.734  26.098  33.365  0.00  0.00    -0.070 SA
ATOM      6  C   UNL d   1     -52.752  24.983  33.339  0.00  0.00     0.104 A 
ATOM      7  N   UNL d   1     -52.844  24.166  33.323  0.00  0.00    -0.294 NA
ATOM      8  C   UNL d   1     -49.881  25.051  33.349  0.00  0.00     0.103 C 
ATOM      9  C   UNL d   1     -52.176  23.677  33.315  0.00  0.00     0.099 A 
ATOM     10  C   UNL d   1     -51.418  24.007  33.323  0.00  0.00    -0.004 A 
ATOM     11  N   UNL d   1     -49.109  24.797  33.346  0.00  0.00    -0.191 NA
ATOM     12  C   UNL d   1     -52.876  25.798  33.355  0.00  0.00     0.029 C 
ATOM     13  C   UNL d   1     -53.569  24.851  33.334  0.00  0.00     0.029 C 
ATOM     14  C   UNL d   1     -52.929  23.342  33.306  0.00  0.00     0.029 C 
ATOM     15  C   UNL d   1     -51.509  23.188  33.307  0.00  0.00     0.029 C 
ENDROOT
BRANCH   1  16
ATOM     16  N   UNL d   1     -50.419  26.756  33.382  0.00  0.00    -0.201 NA
ATOM     17  C   UNL d   1     -50.420  27.254  34.039  0.00  0.00     0.280 C 
ATOM     18  O   UNL d   1     -50.904  27.092  34.683  0.00  0.00    -0.265 OA
BRANCH  17  19
ATOM     19  C   UNL d   1     -49.939  27.912  34.054  0.00  0.00     0.058 A 
ATOM     20  C   UNL d   1     -50.176  28.607  33.678  0.00  0.00     0.005 A 
ATOM     21  C   UNL d   1     -49.687  29.275  33.693  0.00  0.00     0.003 A 
ATOM     22  C   UNL d   1     -48.961  29.247  34.084  0.00  0.00     0.039 A 
ATOM     23  C   UNL d   1     -48.731  28.558  34.454  0.00  0.00     0.003 A 
ATOM     24  C   UNL d   1     -49.220  27.890  34.439  0.00  0.00     0.005 A 
BRANCH  22  25
ATOM     25  C   UNL d   1     -48.477  29.913  34.096  0.00  0.00     0.196 C 
ATOM     26  O   UNL d   1     -48.571  30.499  33.533  0.00  0.00    -0.287 OA
BRANCH  25  27
ATOM     27  C   UNL d   1     -47.900  29.988  34.677  0.00  0.00     0.039 A 
ATOM     28  C   UNL d   1     -47.137  29.725  34.544  0.00  0.00     0.003 A 
ATOM     29  C   UNL d   1     -46.560  29.800  35.124  0.00  0.00     0.000 A 
ATOM     30  C   UNL d   1     -46.754  30.146  35.850  0.00  0.00     0.000 A 
ATOM     31  C   UNL d   1     -47.524  30.413  35.989  0.00  0.00     0.000 A 
ATOM     32  C   UNL d   1     -48.094  30.334  35.402  0.00  0.00     0.003 A 
ENDBRANCH  25  27
ENDBRANCH  22  25
ENDBRANCH  17  19
ENDBRANCH   1  16
TORSDOF 4
ENDMDL
