MODEL 1
REMARK VINA RESULT:      -4.7      0.000      0.000
REMARK  1 active torsions:
REMARK  status: ('A' for Active; 'I' for Inactive)
REMARK       I    between atoms: N_2  and  C_1 
REMARK    1  A    between atoms: C_4  and  N_2 
ROOT
ATOM      1  C   UNL d   1      56.269  -0.119  33.334  0.00  0.00     0.101 A 
ATOM      2  C   UNL d   1      56.640   0.367  32.780  0.00  0.00     0.031 A 
ATOM      3  C   UNL d   1      56.821   0.070  32.025  0.00  0.00     0.059 A 
ATOM      4 CL   UNL d   1      57.192   0.556  31.472  0.00  0.00    -0.082 Cl
ATOM      5  C   UNL d   1      56.260  -1.193  32.385  0.00  0.00     0.002 A 
ATOM      6  C   UNL d   1      56.079  -0.902  33.133  0.00  0.00     0.020 A 
ATOM      7  C   UNL d   1      56.631  -0.707  31.831  0.00  0.00     0.011 A 
ENDROOT
BRANCH   1   8
ATOM      8  N   UNL d   1      56.087   0.170  34.085  0.00  0.00    -0.056 NA
ATOM      9  C   UNL d   1      55.317   0.394  34.268  0.00  0.00     0.787 C 
ATOM     10  N   UNL d   1      55.132   0.682  35.017  0.00  0.00     0.064 N 
ATOM     11  N   UNL d   1      54.728   0.327  33.693  0.00  0.00     0.064 N 
ENDBRANCH   1   8
TORSDOF 1
ENDMDL
MODEL 2
REMARK VINA RESULT:      -4.2      1.901      2.745
REMARK  1 active torsions:
REMARK  status: ('A' for Active; 'I' for Inactive)
REMARK       I    between atoms: N_2  and  C_1 
REMARK    1  A    between atoms: C_4  and  N_2 
ROOT
ATOM      1  C   UNL d   1      56.343  -0.348  32.932  0.00  0.00     0.101 A 
ATOM      2  C   UNL d   1      55.533  -0.279  33.068  0.00  0.00     0.031 A 
ATOM      3  C   UNL d   1      55.255   0.239  33.656  0.00  0.00     0.059 A 
ATOM      4 CL   UNL d   1      54.445   0.308  33.792  0.00  0.00    -0.082 Cl
ATOM      5  C   UNL d   1      56.599   0.611  33.966  0.00  0.00     0.002 A 
ATOM      6  C   UNL d   1      56.877   0.099  33.384  0.00  0.00     0.020 A 
ATOM      7  C   UNL d   1      55.789   0.681  34.102  0.00  0.00     0.011 A 
ENDROOT
BRANCH   1   8
ATOM      8  N   UNL d   1      56.625  -0.860  32.349  0.00  0.00    -0.056 NA
ATOM      9  C   UNL d   1      56.938  -0.560  31.650  0.00  0.00     0.787 C 
ATOM     10  N   UNL d   1      57.220  -1.069  31.067  0.00  0.00     0.064 N 
ATOM     11  N   UNL d   1      56.968   0.256  31.537  0.00  0.00     0.064 N 
ENDBRANCH   1   8
TORSDOF 1
ENDMDL
MODEL 3
REMARK VINA RESULT:      -3.3      8.994      9.559
REMARK  1 active torsions:
REMARK  status: ('A' for Active; 'I' for Inactive)
REMARK       I    between atoms: N_2  and  C_1 
REMARK    1  A    between atoms: C_4  and  N_2 
ROOT
ATOM      1  C   UNL d   1      60.412  -8.001  35.983  0.00  0.00     0.101 A 
ATOM      2  C   UNL d   1      60.850  -7.309  36.077  0.00  0.00     0.031 A 
ATOM      3  C   UNL d   1      60.460  -6.585  36.197  0.00  0.00     0.059 A 
ATOM      4 CL   UNL d   1      60.898  -5.893  36.291  0.00  0.00    -0.082 Cl
ATOM      5  C   UNL d   1      59.198  -7.252  36.127  0.00  0.00     0.002 A 
ATOM      6  C   UNL d   1      59.583  -7.970  36.008  0.00  0.00     0.020 A 
ATOM      7  C   UNL d   1      59.636  -6.559  36.221  0.00  0.00     0.011 A 
ENDROOT
BRANCH   1   8
ATOM      8  N   UNL d   1      60.794  -8.722  35.864  0.00  0.00    -0.056 NA
ATOM      9  C   UNL d   1      60.753  -9.098  35.133  0.00  0.00     0.787 C 
ATOM     10  N   UNL d   1      61.133  -9.818  35.012  0.00  0.00     0.064 N 
ATOM     11  N   UNL d   1      60.327  -8.747  34.520  0.00  0.00     0.064 N 
ENDBRANCH   1   8
TORSDOF 1
ENDMDL
MODEL 4
REMARK VINA RESULT:      -3.3      1.064      1.620
REMARK  1 active torsions:
REMARK  status: ('A' for Active; 'I' for Inactive)
REMARK       I    between atoms: N_2  and  C_1 
REMARK    1  A    between atoms: C_4  and  N_2 
ROOT
ATOM      1  C   UNL d   1      56.632   0.546  32.572  0.00  0.00     0.101 A 
ATOM      2  C   UNL d   1      56.652   0.542  31.748  0.00  0.00     0.031 A 
ATOM      3  C   UNL d   1      57.380   0.608  31.352  0.00  0.00     0.059 A 
ATOM      4 CL   UNL d   1      57.400   0.603  30.527  0.00  0.00    -0.082 Cl
ATOM      5  C   UNL d   1      58.059   0.682  32.607  0.00  0.00     0.002 A 
ATOM      6  C   UNL d   1      57.339   0.617  33.002  0.00  0.00     0.020 A 
ATOM      7  C   UNL d   1      58.079   0.677  31.782  0.00  0.00     0.011 A 
ENDROOT
BRANCH   1   8
ATOM      8  N   UNL d   1      55.913   0.481  32.971  0.00  0.00    -0.056 NA
ATOM      9  C   UNL d   1      55.633  -0.256  33.205  0.00  0.00     0.787 C 
ATOM     10  N   UNL d   1      54.916  -0.324  33.604  0.00  0.00     0.064 N 
ATOM     11  N   UNL d   1      56.079  -0.930  33.038  0.00  0.00     0.064 N 
ENDBRANCH   1   8
TORSDOF 1
ENDMDL
MODEL 5
REMARK VINA RESULT:      -3.2      9.346      9.929
REMARK  1 active torsions:
REMARK  status: ('A' for Active; 'I' for Inactive)
REMARK       I    between atoms: N_2  and  C_1 
REMARK    1  A    between atoms: C_4  and  N_2 
ROOT
ATOM      1  C   UNL d   1      59.988  -8.888  34.957  0.00  0.00     0.101 A 
ATOM      2  C   UNL d   1      59.915  -8.102  35.196  0.00  0.00     0.031 A 
ATOM      3  C   UNL d   1      59.491  -7.917  35.886  0.00  0.00     0.059 A 
ATOM      4 CL   UNL d   1      59.419  -7.131  36.125  0.00  0.00    -0.082 Cl
ATOM      5  C   UNL d   1      59.215  -9.304  36.090  0.00  0.00     0.002 A 
ATOM      6  C   UNL d   1      59.635  -9.490  35.407  0.00  0.00     0.020 A 
ATOM      7  C   UNL d   1      59.143  -8.518  36.330  0.00  0.00     0.011 A 
ENDROOT
BRANCH   1   8
ATOM      8  N   UNL d   1      60.408  -9.078  34.273  0.00  0.00    -0.056 NA
ATOM      9  C   UNL d   1      60.009  -9.222  33.567  0.00  0.00     0.787 C 
ATOM     10  N   UNL d   1      60.426  -9.411  32.883  0.00  0.00     0.064 N 
ATOM     11  N   UNL d   1      59.186  -9.174  33.550  0.00  0.00     0.064 N 
ENDBRANCH   1   8
TORSDOF 1
ENDMDL
MODEL 6
REMARK VINA RESULT:      -2.2      5.067      5.861
REMARK  1 active torsions:
REMARK  status: ('A' for Active; 'I' for Inactive)
REMARK       I    between atoms: N_2  and  C_1 
REMARK    1  A    between atoms: C_4  and  N_2 
ROOT
ATOM      1  C   UNL d   1      59.354  -2.065  28.701  0.00  0.00     0.101 A 
ATOM      2  C   UNL d   1      60.045  -2.360  29.041  0.00  0.00     0.031 A 
ATOM      3  C   UNL d   1      60.141  -3.180  29.137  0.00  0.00     0.059 A 
ATOM      4 CL   UNL d   1      60.832  -3.475  29.477  0.00  0.00    -0.082 Cl
ATOM      5  C   UNL d   1      58.856  -3.402  28.552  0.00  0.00     0.002 A 
ATOM      6  C   UNL d   1      58.758  -2.590  28.456  0.00  0.00     0.020 A 
ATOM      7  C   UNL d   1      59.547  -3.697  28.893  0.00  0.00     0.011 A 
ENDROOT
BRANCH   1   8
ATOM      8  N   UNL d   1      59.252  -1.253  28.603  0.00  0.00    -0.056 NA
ATOM      9  C   UNL d   1      58.783  -0.827  29.128  0.00  0.00     0.787 C 
ATOM     10  N   UNL d   1      58.680  -0.016  29.033  0.00  0.00     0.064 N 
ATOM     11  N   UNL d   1      58.415  -1.220  29.753  0.00  0.00     0.064 N 
ENDBRANCH   1   8
TORSDOF 1
ENDMDL
MODEL 7
REMARK VINA RESULT:      -2.0      3.336      4.109
REMARK  1 active torsions:
REMARK  status: ('A' for Active; 'I' for Inactive)
REMARK       I    between atoms: N_2  and  C_1 
REMARK    1  A    between atoms: C_4  and  N_2 
ROOT
ATOM      1  C   UNL d   1      58.390   0.188  29.942  0.00  0.00     0.101 A 
ATOM      2  C   UNL d   1      58.471  -0.518  29.522  0.00  0.00     0.031 A 
ATOM      3  C   UNL d   1      59.212  -0.730  29.211  0.00  0.00     0.059 A 
ATOM      4 CL   UNL d   1      59.293  -1.435  28.791  0.00  0.00    -0.082 Cl
ATOM      5  C   UNL d   1      59.782   0.467  29.741  0.00  0.00     0.002 A 
ATOM      6  C   UNL d   1      59.050   0.681  30.051  0.00  0.00     0.020 A 
ATOM      7  C   UNL d   1      59.863  -0.238  29.321  0.00  0.00     0.011 A 
ENDROOT
BRANCH   1   8
ATOM      8  N   UNL d   1      57.658   0.405  30.254  0.00  0.00    -0.056 NA
ATOM      9  C   UNL d   1      57.555   0.466  31.068  0.00  0.00     0.787 C 
ATOM     10  N   UNL d   1      56.826   0.682  31.382  0.00  0.00     0.064 N 
ATOM     11  N   UNL d   1      58.191   0.308  31.570  0.00  0.00     0.064 N 
ENDBRANCH   1   8
TORSDOF 1
ENDMDL
