MODEL 1
REMARK VINA RESULT:      51.7      0.000      0.000
REMARK  4 active torsions:
REMARK  status: ('A' for Active; 'I' for Inactive)
REMARK    1  A    between atoms: C_8  and  C_1 
REMARK    2  A    between atoms: C_6  and  C_16 
REMARK    3  A    between atoms: O_13  and  C_8 
REMARK    4  A    between atoms: C_16  and  O_13 
ROOT
ATOM      1  C   UNL d   1     -50.517  27.142  33.488  0.00  0.00     0.305 C 
ATOM      2  O   UNL d   1     -50.948  27.838  33.306  0.00  0.00    -0.259 OA
ENDROOT
BRANCH   1   3
ATOM      3  C   UNL d   1     -50.889  26.355  33.442  0.00  0.00     0.127 A 
ATOM      4  C   UNL d   1     -51.725  26.293  33.408  0.00  0.00     0.305 A 
ATOM      5  O   UNL d   1     -52.033  25.547  33.367  0.00  0.00    -0.273 OA
ATOM      6  O   UNL d   1     -52.209  26.958  33.416  0.00  0.00    -0.259 OA
ATOM      7  C   UNL d   1     -51.565  24.886  33.358  0.00  0.00     0.103 A 
ATOM      8  C   UNL d   1     -50.737  24.966  33.393  0.00  0.00     0.023 A 
ATOM      9  C   UNL d   1     -51.872  24.137  33.317  0.00  0.00     0.025 A 
ATOM     10  C   UNL d   1     -50.398  25.723  33.436  0.00  0.00     0.013 A 
ATOM     11  C   UNL d   1     -50.237  24.313  33.386  0.00  0.00     0.002 A 
ATOM     12  C   UNL d   1     -50.585  23.566  33.343  0.00  0.00     0.000 A 
ATOM     13  C   UNL d   1     -51.402  23.471  33.308  0.00  0.00     0.002 A 
ENDBRANCH   1   3
BRANCH   1  14
ATOM     14  O   UNL d   1     -49.739  27.201  33.711  0.00  0.00    -0.269 OA
BRANCH  14  15
ATOM     15  C   UNL d   1     -49.534  27.250  34.483  0.00  0.00     0.152 C 
BRANCH  15  16
ATOM     16  C   UNL d   1     -48.984  27.826  34.726  0.00  0.00     0.136 A 
ATOM     17  N   UNL d   1     -48.335  28.141  34.337  0.00  0.00    -0.236 NA
ATOM     18  C   UNL d   1     -47.994  28.690  34.843  0.00  0.00     0.088 A 
ATOM     19  C   UNL d   1     -47.335  29.181  34.765  0.00  0.00     0.020 A 
ATOM     20  C   UNL d   1     -48.445  28.698  35.536  0.00  0.00     0.049 A 
ATOM     21  C   UNL d   1     -47.104  29.699  35.379  0.00  0.00     0.002 A 
ATOM     22  C   UNL d   1     -47.562  29.693  36.055  0.00  0.00     0.001 A 
ATOM     23  C   UNL d   1     -48.235  29.197  36.146  0.00  0.00     0.008 A 
ATOM     24  S   UNL d   1     -49.045  28.169  35.455  0.00  0.00    -0.064 SA
ENDBRANCH  15  16
ENDBRANCH  14  15
ENDBRANCH   1  14
TORSDOF 4
ENDMDL
MODEL 2
REMARK VINA RESULT:      53.6      0.844      1.394
REMARK  4 active torsions:
REMARK  status: ('A' for Active; 'I' for Inactive)
REMARK    1  A    between atoms: C_8  and  C_1 
REMARK    2  A    between atoms: C_6  and  C_16 
REMARK    3  A    between atoms: O_13  and  C_8 
REMARK    4  A    between atoms: C_16  and  O_13 
ROOT
ATOM      1  C   UNL d   1     -50.324  27.290  33.706  0.00  0.00     0.305 C 
ATOM      2  O   UNL d   1     -50.706  27.920  33.306  0.00  0.00    -0.259 OA
ENDROOT
BRANCH   1   3
ATOM      3  C   UNL d   1     -50.582  26.464  33.599  0.00  0.00     0.127 A 
ATOM      4  C   UNL d   1     -50.011  25.870  33.439  0.00  0.00     0.305 A 
ATOM      5  O   UNL d   1     -50.287  25.117  33.345  0.00  0.00    -0.273 OA
ATOM      6  O   UNL d   1     -49.210  26.044  33.380  0.00  0.00    -0.259 OA
ATOM      7  C   UNL d   1     -51.075  24.935  33.401  0.00  0.00     0.103 A 
ATOM      8  C   UNL d   1     -51.627  25.537  33.560  0.00  0.00     0.023 A 
ATOM      9  C   UNL d   1     -51.354  24.179  33.307  0.00  0.00     0.025 A 
ATOM     10  C   UNL d   1     -51.366  26.320  33.660  0.00  0.00     0.013 A 
ATOM     11  C   UNL d   1     -52.433  25.382  33.622  0.00  0.00     0.002 A 
ATOM     12  C   UNL d   1     -52.680  24.602  33.521  0.00  0.00     0.000 A 
ATOM     13  C   UNL d   1     -52.147  23.995  33.363  0.00  0.00     0.002 A 
ENDBRANCH   1   3
BRANCH   1  14
ATOM     14  O   UNL d   1     -49.704  27.451  34.204  0.00  0.00    -0.269 OA
BRANCH  14  15
ATOM     15  C   UNL d   1     -49.124  27.959  33.988  0.00  0.00     0.152 C 
BRANCH  15  16
ATOM     16  C   UNL d   1     -48.716  28.387  34.574  0.00  0.00     0.136 A 
ATOM     17  N   UNL d   1     -48.761  28.349  35.391  0.00  0.00    -0.236 NA
ATOM     18  C   UNL d   1     -48.231  28.902  35.688  0.00  0.00     0.088 A 
ATOM     19  C   UNL d   1     -48.030  29.119  36.459  0.00  0.00     0.020 A 
ATOM     20  C   UNL d   1     -47.871  29.268  35.041  0.00  0.00     0.049 A 
ATOM     21  C   UNL d   1     -47.460  29.712  36.609  0.00  0.00     0.002 A 
ATOM     22  C   UNL d   1     -47.115  30.061  35.957  0.00  0.00     0.001 A 
ATOM     23  C   UNL d   1     -47.312  29.849  35.167  0.00  0.00     0.008 A 
ATOM     24  S   UNL d   1     -48.172  28.949  34.367  0.00  0.00    -0.064 SA
ENDBRANCH  15  16
ENDBRANCH  14  15
ENDBRANCH   1  14
TORSDOF 4
ENDMDL
