MODEL 1
REMARK VINA RESULT:      10.4      0.000      0.000
REMARK  5 active torsions:
REMARK  status: ('A' for Active; 'I' for Inactive)
REMARK    1  A    between atoms: N_4  and  S_1 
REMARK    2  A    between atoms: C_10  and  S_1 
REMARK    3  A    between atoms: C_2  and  N_9 
REMARK    4  A    between atoms: C_13  and  C_3 
REMARK    5  A    between atoms: C_11  and  C_8 
REMARK       I    between atoms: N_9  and  C_11 
REMARK       I    between atoms: C_15  and  N_12 
ROOT
ATOM      1  N   UNL d   1     -41.394-122.682 -51.098  0.00  0.00    -0.200 NA
ATOM      2  C   UNL d   1     -41.804-123.322 -50.769  0.00  0.00     0.296 C 
ATOM      3  O   UNL d   1     -42.247-123.817 -51.259  0.00  0.00    -0.264 OA
ENDROOT
BRANCH   1   4
ATOM      4  C   UNL d   1     -41.427-122.539 -51.910  0.00  0.00     0.119 A 
ATOM      5  C   UNL d   1     -41.581-121.822 -52.276  0.00  0.00     0.084 A 
ATOM      6  C   UNL d   1     -41.559-121.933 -53.098  0.00  0.00     0.016 A 
ATOM      7  C   UNL d   1     -41.671-121.419 -53.730  0.00  0.00     0.020 A 
ATOM      8  C   UNL d   1     -41.390-122.727 -53.233  0.00  0.00     0.049 A 
ATOM      9  C   UNL d   1     -41.613-121.698 -54.496  0.00  0.00     0.083 A 
ATOM     10  N   UNL d   1     -41.442-122.502 -54.639  0.00  0.00    -0.272 N 
ATOM     11  C   UNL d   1     -41.332-123.012 -54.005  0.00  0.00     0.089 A 
ATOM     12  C   UNL d   1     -41.384-122.783 -55.425  0.00  0.00     0.265 C 
ATOM     13  O   UNL d   1     -41.215-123.578 -55.561  0.00  0.00    -0.267 OA
ATOM     14  C   UNL d   1     -41.497-122.264 -56.058  0.00  0.00     0.066 C 
ATOM     15  S   UNL d   1     -41.308-123.105 -52.506  0.00  0.00    -0.066 SA
BRANCH   5  16
ATOM     16  C   UNL d   1     -41.733-121.102 -51.893  0.00  0.00     0.299 C 
ATOM     17  O   UNL d   1     -42.484-120.776 -51.914  0.00  0.00    -0.264 OA
ATOM     18  N   UNL d   1     -41.125-120.728 -51.499  0.00  0.00    -0.102 N 
ENDBRANCH   5  16
ENDBRANCH   1   4
BRANCH   2  19
ATOM     19  C   UNL d   1     -41.770-123.463 -49.965  0.00  0.00     0.133 A 
ATOM     20  N   UNL d   1     -42.385-123.327 -49.420  0.00  0.00    -0.226 N 
ATOM     21  C   UNL d   1     -42.106-123.549 -48.665  0.00  0.00     0.092 A 
ATOM     22  C   UNL d   1     -41.333-123.815 -48.750  0.00  0.00     0.021 A 
ATOM     23  C   UNL d   1     -41.123-123.763 -49.548  0.00  0.00     0.025 A 
BRANCH  20  24
ATOM     24  S   UNL d   1     -43.137-123.028 -49.594  0.00  0.00     0.277 S 
ATOM     25  O   UNL d   1     -42.937-122.353 -49.170  0.00  0.00    -0.199 OA
ATOM     26  O   UNL d   1     -43.334-123.711 -50.022  0.00  0.00    -0.199 OA
BRANCH  24  27
ATOM     27  C   UNL d   1     -43.874-122.697 -49.746  0.00  0.00     0.133 A 
ATOM     28  S   UNL d   1     -44.544-123.098 -50.012  0.00  0.00    -0.074 SA
ATOM     29  C   UNL d   1     -45.159-122.551 -50.089  0.00  0.00     0.036 A 
ATOM     30  C   UNL d   1     -44.865-121.809 -49.870  0.00  0.00     0.008 A 
ATOM     31  C   UNL d   1     -44.072-121.899 -49.658  0.00  0.00     0.020 A 
ENDBRANCH  24  27
ENDBRANCH  20  24
ENDBRANCH   2  19
TORSDOF 5
ENDMDL
