MODEL 1
REMARK VINA RESULT:       4.7      0.000      0.000
REMARK  6 active torsions:
REMARK  status: ('A' for Active; 'I' for Inactive)
REMARK    1  A    between atoms: N_8  and  C_1 
REMARK    2  A    between atoms: C_6  and  N_2 
REMARK       I    between atoms: C_12  and  N_8 
REMARK    3  A    between atoms: C_20  and  C_12 
REMARK    4  A    between atoms: O_24  and  C_13 
REMARK    5  A    between atoms: O_25  and  C_15 
REMARK    6  A    between atoms: C_19  and  C_20 
ROOT
ATOM      1  C   UNL d   1     -41.363-121.565 -52.399  0.00  0.00     0.169 A 
ATOM      2  N   UNL d   1     -41.470-121.426 -53.209  0.00  0.00    -0.212 N 
ATOM      3  C   UNL d   1     -41.303-120.831 -52.011  0.00  0.00     0.065 A 
ATOM      4  N   UNL d   1     -41.477-120.605 -53.322  0.00  0.00    -0.163 NA
ATOM      5  C   UNL d   1     -41.374-120.240 -52.584  0.00  0.00     0.114 A 
ATOM      6  S   UNL d   1     -41.210-119.643 -51.399  0.00  0.00     0.091 S 
ATOM      7  C   UNL d   1     -41.317-119.504 -52.208  0.00  0.00     0.090 A 
ATOM      8  C   UNL d   1     -41.202-120.465 -51.281  0.00  0.00     0.073 A 
ATOM      9  O   UNL d   1     -41.125-119.067 -50.810  0.00  0.00    -0.247 OA
ENDROOT
BRANCH   1  10
ATOM     10  N   UNL d   1     -41.321-122.307 -52.033  0.00  0.00    -0.189 NA
ATOM     11  C   UNL d   1     -41.847-122.508 -51.439  0.00  0.00     0.281 C 
ATOM     12  O   UNL d   1     -42.434-121.964 -51.196  0.00  0.00    -0.265 OA
BRANCH  11  13
ATOM     13  C   UNL d   1     -41.808-123.247 -51.072  0.00  0.00     0.063 C 
BRANCH  13  14
ATOM     14  C   UNL d   1     -41.822-123.283 -50.263  0.00  0.00     0.007 A 
ATOM     15  C   UNL d   1     -42.534-123.186 -49.845  0.00  0.00     0.026 A 
ATOM     16  C   UNL d   1     -42.541-123.224 -49.021  0.00  0.00     0.116 A 
ATOM     17  C   UNL d   1     -41.835-123.360 -48.615  0.00  0.00     0.116 A 
ATOM     18  C   UNL d   1     -41.128-123.458 -49.017  0.00  0.00     0.026 A 
ATOM     19  C   UNL d   1     -41.123-123.419 -49.845  0.00  0.00     0.002 A 
BRANCH  16  20
ATOM     20  O   UNL d   1     -43.244-123.128 -48.610  0.00  0.00    -0.326 OA
ATOM     21  C   UNL d   1     -43.600-123.775 -48.244  0.00  0.00     0.181 C 
ENDBRANCH  16  20
BRANCH  17  22
ATOM     22  O   UNL d   1     -41.841-123.399 -47.791  0.00  0.00    -0.326 OA
ATOM     23  C   UNL d   1     -41.145-123.300 -47.362  0.00  0.00     0.181 C 
ENDBRANCH  17  22
ENDBRANCH  13  14
ENDBRANCH  11  13
ENDBRANCH   1  10
BRANCH   2  24
ATOM     24  C   UNL d   1     -41.554-121.998 -53.797  0.00  0.00     0.085 A 
ATOM     25  C   UNL d   1     -42.057-121.858 -54.430  0.00  0.00     0.018 A 
ATOM     26  C   UNL d   1     -42.141-122.431 -55.018  0.00  0.00     0.002 A 
ATOM     27  C   UNL d   1     -42.474-121.154 -54.477  0.00  0.00     0.002 C 
ATOM     28  C   UNL d   1     -42.641-122.295 -55.649  0.00  0.00     0.000 C 
ATOM     29  C   UNL d   1     -41.717-123.136 -54.960  0.00  0.00     0.000 A 
ATOM     30  C   UNL d   1     -41.219-123.261 -54.322  0.00  0.00     0.002 A 
ATOM     31  C   UNL d   1     -41.130-122.704 -53.739  0.00  0.00     0.019 A 
ENDBRANCH   2  24
TORSDOF 6
ENDMDL
