MODEL 1
REMARK VINA RESULT:      21.6      0.000      0.000
REMARK  6 active torsions:
REMARK  status: ('A' for Active; 'I' for Inactive)
REMARK    1  A    between atoms: C_7  and  C_1 
REMARK    2  A    between atoms: C_9  and  N_2 
REMARK    3  A    between atoms: C_18  and  C_7 
REMARK    4  A    between atoms: C_8  and  C_9 
REMARK       I    between atoms: N_14  and  C_8 
REMARK    5  A    between atoms: C_16  and  N_14 
REMARK    6  A    between atoms: C_29  and  C_23 
ROOT
ATOM      1  C   UNL d   1     -41.937-121.367 -52.973  0.00  0.00     0.095 A 
ATOM      2  N   UNL d   1     -41.512-122.729 -52.730  0.00  0.00    -0.300 N 
ATOM      3  C   UNL d   1     -41.994-121.529 -53.781  0.00  0.00     0.202 A 
ATOM      4  C   UNL d   1     -41.694-121.967 -52.439  0.00  0.00     0.087 A 
ATOM      5  C   UNL d   1     -41.811-122.292 -54.071  0.00  0.00     0.055 A 
ATOM      6  C   UNL d   1     -41.569-122.893 -53.537  0.00  0.00     0.067 A 
ATOM      7  C   UNL d   1     -41.387-123.647 -53.818  0.00  0.00     0.018 A 
ATOM      8  C   UNL d   1     -41.868-122.455 -54.878  0.00  0.00     0.005 A 
ATOM      9  O   UNL d   1     -42.233-120.938 -54.307  0.00  0.00    -0.286 OA
ATOM     10  C   UNL d   1     -41.687-123.209 -55.157  0.00  0.00     0.000 A 
ATOM     11  C   UNL d   1     -41.445-123.809 -54.623  0.00  0.00     0.002 A 
ENDROOT
BRANCH   2  12
ATOM     12  C   UNL d   1     -41.273-123.321 -52.204  0.00  0.00     0.144 C 
BRANCH  12  13
ATOM     13  C   UNL d   1     -41.433-123.246 -51.398  0.00  0.00     0.297 C 
ATOM     14  N   UNL d   1     -41.897-123.812 -51.014  0.00  0.00    -0.207 NA
ATOM     15  O   UNL d   1     -41.130-122.605 -50.977  0.00  0.00    -0.264 OA
BRANCH  14  16
ATOM     16  C   UNL d   1     -42.057-123.737 -50.208  0.00  0.00     0.086 A 
ATOM     17  C   UNL d   1     -42.835-123.769 -49.938  0.00  0.00     0.031 A 
ATOM     18  C   UNL d   1     -43.004-123.696 -49.140  0.00  0.00     0.059 A 
ATOM     19 CL   UNL d   1     -43.787-123.728 -48.874  0.00  0.00    -0.082 Cl
ATOM     20  C   UNL d   1     -42.375-123.587 -48.596  0.00  0.00     0.011 A 
ATOM     21  C   UNL d   1     -41.597-123.556 -48.865  0.00  0.00     0.002 A 
ATOM     22  C   UNL d   1     -42.538-123.513 -47.793  0.00  0.00     0.001 C 
ATOM     23  C   UNL d   1     -41.437-123.631 -49.671  0.00  0.00     0.019 A 
ENDBRANCH  14  16
ENDBRANCH  12  13
ENDBRANCH   2  12
BRANCH   1  24
ATOM     24  C   UNL d   1     -42.116-120.614 -52.676  0.00  0.00     0.200 C 
ATOM     25  O   UNL d   1     -42.644-120.549 -52.026  0.00  0.00    -0.286 OA
BRANCH  24  26
ATOM     26  C   UNL d   1     -41.784-119.935 -53.007  0.00  0.00     0.039 A 
ATOM     27  C   UNL d   1     -41.561-119.943 -53.804  0.00  0.00     0.003 A 
ATOM     28  C   UNL d   1     -41.229-119.264 -54.136  0.00  0.00     0.000 A 
ATOM     29  C   UNL d   1     -41.123-118.590 -53.673  0.00  0.00     0.000 A 
ATOM     30  C   UNL d   1     -41.349-118.594 -52.877  0.00  0.00     0.000 A 
ATOM     31  C   UNL d   1     -41.681-119.272 -52.546  0.00  0.00     0.003 A 
ENDBRANCH  24  26
ENDBRANCH   1  24
BRANCH  10  32
ATOM     32  C   UNL d   1     -41.744-123.372 -55.965  0.00  0.00     0.000 C 
ATOM     33  C   UNL d   1     -42.441-123.698 -56.273  0.00  0.00     0.000 C 
ENDBRANCH  10  32
TORSDOF 6
ENDMDL
