MODEL 1
REMARK VINA RESULT:     158.3      0.000      0.000
REMARK  3 active torsions:
REMARK  status: ('A' for Active; 'I' for Inactive)
REMARK    1  A    between atoms: N_9  and  C_3 
REMARK    2  A    between atoms: C_14  and  C_5 
REMARK       I    between atoms: C_10  and  N_11 
REMARK    3  A    between atoms: C_13  and  C_10 
ROOT
ATOM      1  N   UNL d   1     -56.754-100.300 -43.670  0.00  0.00    -0.196 N 
ATOM      2  C   UNL d   1     -56.140-100.462 -43.152  0.00  0.00     0.167 A 
ATOM      3  C   UNL d   1     -56.726 -99.631 -44.152  0.00  0.00     0.152 A 
ATOM      4  N   UNL d   1     -57.316-100.892 -43.592  0.00  0.00    -0.163 NA
ATOM      5  C   UNL d   1     -56.319-101.155 -42.750  0.00  0.00     0.055 A 
ATOM      6  C   UNL d   1     -57.040-101.416 -43.021  0.00  0.00     0.104 A 
ATOM      7  N   UNL d   1     -55.487 -99.958 -43.107  0.00  0.00    -0.227 NA
ATOM      8  C   UNL d   1     -56.071 -99.119 -44.111  0.00  0.00     0.057 A 
ATOM      9  C   UNL d   1     -55.456 -99.282 -43.593  0.00  0.00     0.086 A 
ATOM     10  C   UNL d   1     -57.425-102.102 -42.757  0.00  0.00     0.023 C 
ATOM     11  C   UNL d   1     -54.798 -98.761 -43.556  0.00  0.00     0.021 C 
ENDROOT
BRANCH   3  12
ATOM     12  N   UNL d   1     -57.341 -99.469 -44.671  0.00  0.00    -0.286 N 
ATOM     13  C   UNL d   1     -57.224 -99.512 -45.489  0.00  0.00     0.101 A 
ATOM     14  C   UNL d   1     -57.841 -99.349 -46.004  0.00  0.00     0.102 A 
ATOM     15  N   UNL d   1     -58.588 -99.140 -45.705  0.00  0.00    -0.267 N 
ATOM     16  C   UNL d   1     -59.221 -98.973 -46.223  0.00  0.00     0.288 C 
ATOM     17  C   UNL d   1     -58.703 -99.097 -44.898  0.00  0.00     0.102 A 
ATOM     18  O   UNL d   1     -59.960 -98.765 -45.941  0.00  0.00    -0.264 OA
ATOM     19  C   UNL d   1     -58.079 -99.262 -44.376  0.00  0.00     0.101 A 
BRANCH  16  20
ATOM     20  C   UNL d   1     -59.096 -99.018 -47.045  0.00  0.00     0.156 A 
ATOM     21  O   UNL d   1     -58.474 -98.775 -47.520  0.00  0.00    -0.300 OA
ATOM     22  C   UNL d   1     -58.667 -98.971 -48.296  0.00  0.00     0.123 A 
ATOM     23  C   UNL d   1     -59.389 -99.327 -48.306  0.00  0.00     0.029 A 
ATOM     24  C   UNL d   1     -59.668 -99.361 -47.522  0.00  0.00     0.032 A 
ENDBRANCH  16  20
ENDBRANCH   3  12
BRANCH   5  25
ATOM     25  C   UNL d   1     -55.916-101.581 -42.171  0.00  0.00     0.004 A 
ATOM     26  C   UNL d   1     -56.227-102.306 -41.901  0.00  0.00     0.001 A 
ATOM     27  C   UNL d   1     -55.824-102.732 -41.322  0.00  0.00     0.011 A 
ATOM     28  C   UNL d   1     -55.117-102.445 -41.009  0.00  0.00     0.058 A 
ATOM     29  C   UNL d   1     -54.805-101.724 -41.276  0.00  0.00     0.011 A 
ATOM     30 CL   UNL d   1     -54.717-102.877 -40.428  0.00  0.00    -0.082 Cl
ATOM     31  C   UNL d   1     -55.208-101.297 -41.856  0.00  0.00     0.001 A 
ENDBRANCH   5  25
TORSDOF 3
ENDMDL
