MODEL 1
REMARK VINA RESULT:      -8.1      0.000      0.000
REMARK  5 active torsions:
REMARK  status: ('A' for Active; 'I' for Inactive)
REMARK    1  A    between atoms: C_4  and  C_1 
REMARK    2  A    between atoms: C_8  and  C_4 
REMARK    3  A    between atoms: C_9  and  C_4 
REMARK    4  A    between atoms: N_5  and  C_9 
REMARK    5  A    between atoms: O_18  and  C_11 
ROOT
ATOM      1  C   UNL d   1      53.971  32.736  53.636  0.00  0.00     0.025 C 
ENDROOT
BRANCH   1   2
ATOM      2  C   UNL d   1      53.740  32.042  54.026  0.00  0.00     0.021 A 
ATOM      3  C   UNL d   1      53.774  31.896  54.861  0.00  0.00     0.082 A 
ATOM      4  N   UNL d   1      53.493  31.146  54.998  0.00  0.00    -0.246 NA
ATOM      5  C   UNL d   1      54.047  32.432  55.424  0.00  0.00     0.021 C 
ATOM      6  C   UNL d   1      53.278  30.800  54.280  0.00  0.00     0.081 A 
ATOM      7  C   UNL d   1      53.431  31.354  53.678  0.00  0.00     0.019 A 
ATOM      8  C   UNL d   1      52.969  30.069  54.086  0.00  0.00     0.019 A 
ATOM      9  C   UNL d   1      53.271  31.170  52.891  0.00  0.00     0.002 A 
ATOM     10  C   UNL d   1      52.959  30.434  52.693  0.00  0.00     0.000 A 
ATOM     11  C   UNL d   1      52.805  29.871  53.304  0.00  0.00     0.002 A 
ENDBRANCH   1   2
BRANCH   1  12
ATOM     12  C   UNL d   1      53.513  33.411  53.693  0.00  0.00     0.004 A 
ATOM     13  C   UNL d   1      53.006  33.648  53.084  0.00  0.00     0.028 A 
ATOM     14  C   UNL d   1      52.550  34.322  53.146  0.00  0.00     0.133 A 
ATOM     15  C   UNL d   1      52.588  34.783  53.822  0.00  0.00     0.218 A 
ATOM     16  C   UNL d   1      53.090  34.566  54.448  0.00  0.00     0.044 A 
ATOM     17  O   UNL d   1      52.135  35.463  53.895  0.00  0.00    -0.284 OA
ATOM     18  C   UNL d   1      53.545  33.890  54.386  0.00  0.00     0.004 A 
BRANCH  14  19
ATOM     19  O   UNL d   1      52.051  34.537  52.520  0.00  0.00    -0.325 OA
ATOM     20  C   UNL d   1      51.366  34.103  52.397  0.00  0.00     0.181 C 
ENDBRANCH  14  19
ENDBRANCH   1  12
BRANCH   1  21
ATOM     21  C   UNL d   1      54.673  32.736  53.186  0.00  0.00     0.148 C 
BRANCH  21  22
ATOM     22  N   UNL d   1      55.318  33.178  53.451  0.00  0.00    -0.112 N 
ATOM     23  O   UNL d   1      55.503  33.203  54.245  0.00  0.00    -0.532 OA
ATOM     24  O   UNL d   1      55.776  33.597  52.895  0.00  0.00    -0.532 OA
ENDBRANCH  21  22
ENDBRANCH   1  21
TORSDOF 5
ENDMDL
MODEL 2
REMARK VINA RESULT:      -8.0      1.451      3.158
REMARK  5 active torsions:
REMARK  status: ('A' for Active; 'I' for Inactive)
REMARK    1  A    between atoms: C_4  and  C_1 
REMARK    2  A    between atoms: C_8  and  C_4 
REMARK    3  A    between atoms: C_9  and  C_4 
REMARK    4  A    between atoms: N_5  and  C_9 
REMARK    5  A    between atoms: O_18  and  C_11 
ROOT
ATOM      1  C   UNL d   1      53.684  32.952  53.570  0.00  0.00     0.025 C 
ENDROOT
BRANCH   1   2
ATOM      2  C   UNL d   1      53.100  33.507  53.764  0.00  0.00     0.021 A 
ATOM      3  C   UNL d   1      53.042  33.949  54.487  0.00  0.00     0.082 A 
ATOM      4  N   UNL d   1      52.387  34.426  54.439  0.00  0.00    -0.246 NA
ATOM      5  C   UNL d   1      53.568  33.892  55.119  0.00  0.00     0.021 C 
ATOM      6  C   UNL d   1      52.017  34.310  53.710  0.00  0.00     0.081 A 
ATOM      7  C   UNL d   1      52.458  33.741  53.292  0.00  0.00     0.019 A 
ATOM      8  C   UNL d   1      51.350  34.635  53.368  0.00  0.00     0.019 A 
ATOM      9  C   UNL d   1      52.226  33.505  52.538  0.00  0.00     0.002 A 
ATOM     10  C   UNL d   1      51.554  33.830  52.191  0.00  0.00     0.000 A 
ATOM     11  C   UNL d   1      51.106  34.408  52.615  0.00  0.00     0.002 A 
ENDBRANCH   1   2
BRANCH   1  12
ATOM     12  C   UNL d   1      53.605  32.174  53.806  0.00  0.00     0.004 A 
ATOM     13  C   UNL d   1      53.502  31.560  53.261  0.00  0.00     0.028 A 
ATOM     14  C   UNL d   1      53.424  30.784  53.501  0.00  0.00     0.133 A 
ATOM     15  C   UNL d   1      53.445  30.596  54.298  0.00  0.00     0.218 A 
ATOM     16  C   UNL d   1      53.547  31.195  54.866  0.00  0.00     0.044 A 
ATOM     17  O   UNL d   1      53.367  29.820  54.551  0.00  0.00    -0.284 OA
ATOM     18  C   UNL d   1      53.626  31.972  54.625  0.00  0.00     0.004 A 
BRANCH  14  19
ATOM     19  O   UNL d   1      53.322  30.188  52.933  0.00  0.00    -0.325 OA
ATOM     20  C   UNL d   1      52.567  30.040  52.650  0.00  0.00     0.181 C 
ENDBRANCH  14  19
ENDBRANCH   1  12
BRANCH   1  21
ATOM     21  C   UNL d   1      54.350  33.198  53.133  0.00  0.00     0.148 C 
BRANCH  21  22
ATOM     22  N   UNL d   1      55.102  33.098  53.458  0.00  0.00    -0.112 N 
ATOM     23  O   UNL d   1      55.302  33.471  54.156  0.00  0.00    -0.532 OA
ATOM     24  O   UNL d   1      55.653  32.613  53.063  0.00  0.00    -0.532 OA
ENDBRANCH  21  22
ENDBRANCH   1  21
TORSDOF 5
ENDMDL
MODEL 3
REMARK VINA RESULT:      -7.1      1.466      2.416
REMARK  5 active torsions:
REMARK  status: ('A' for Active; 'I' for Inactive)
REMARK    1  A    between atoms: C_4  and  C_1 
REMARK    2  A    between atoms: C_8  and  C_4 
REMARK    3  A    between atoms: C_9  and  C_4 
REMARK    4  A    between atoms: N_5  and  C_9 
REMARK    5  A    between atoms: O_18  and  C_11 
ROOT
ATOM      1  C   UNL d   1      52.670  33.278  53.085  0.00  0.00     0.025 C 
ENDROOT
BRANCH   1   2
ATOM      2  C   UNL d   1      52.325  32.528  53.169  0.00  0.00     0.021 A 
ATOM      3  C   UNL d   1      51.504  32.363  53.308  0.00  0.00     0.082 A 
ATOM      4  N   UNL d   1      51.413  31.557  53.353  0.00  0.00    -0.246 NA
ATOM      5  C   UNL d   1      50.913  32.932  53.384  0.00  0.00     0.021 C 
ATOM      6  C   UNL d   1      52.147  31.194  53.246  0.00  0.00     0.081 A 
ATOM      7  C   UNL d   1      52.711  31.795  53.132  0.00  0.00     0.019 A 
ATOM      8  C   UNL d   1      52.383  30.411  53.236  0.00  0.00     0.019 A 
ATOM      9  C   UNL d   1      53.503  31.605  53.010  0.00  0.00     0.002 A 
ATOM     10  C   UNL d   1      53.744  30.818  53.000  0.00  0.00     0.000 A 
ATOM     11  C   UNL d   1      53.171  30.208  53.115  0.00  0.00     0.002 A 
ENDBRANCH   1   2
BRANCH   1  12
ATOM     12  C   UNL d   1      52.873  33.712  53.746  0.00  0.00     0.004 A 
ATOM     13  C   UNL d   1      53.654  33.765  54.011  0.00  0.00     0.028 A 
ATOM     14  C   UNL d   1      53.853  34.201  54.673  0.00  0.00     0.133 A 
ATOM     15  C   UNL d   1      53.272  34.599  55.092  0.00  0.00     0.218 A 
ATOM     16  C   UNL d   1      52.478  34.561  54.846  0.00  0.00     0.044 A 
ATOM     17  O   UNL d   1      53.458  35.039  55.758  0.00  0.00    -0.284 OA
ATOM     18  C   UNL d   1      52.281  34.125  54.183  0.00  0.00     0.004 A 
BRANCH  14  19
ATOM     19  O   UNL d   1      54.644  34.237  54.917  0.00  0.00    -0.325 OA
ATOM     20  C   UNL d   1      54.993  33.561  55.222  0.00  0.00     0.181 C 
ENDBRANCH  14  19
ENDBRANCH   1  12
BRANCH   1  21
ATOM     21  C   UNL d   1      52.807  33.579  52.320  0.00  0.00     0.148 C 
BRANCH  21  22
ATOM     22  N   UNL d   1      52.399  34.253  52.076  0.00  0.00    -0.112 N 
ATOM     23  O   UNL d   1      51.624  34.199  51.825  0.00  0.00    -0.532 OA
ATOM     24  O   UNL d   1      52.789  34.990  52.089  0.00  0.00    -0.532 OA
ENDBRANCH  21  22
ENDBRANCH   1  21
TORSDOF 5
ENDMDL
MODEL 4
REMARK VINA RESULT:      -6.9      1.743      3.835
REMARK  5 active torsions:
REMARK  status: ('A' for Active; 'I' for Inactive)
REMARK    1  A    between atoms: C_4  and  C_1 
REMARK    2  A    between atoms: C_8  and  C_4 
REMARK    3  A    between atoms: C_9  and  C_4 
REMARK    4  A    between atoms: N_5  and  C_9 
REMARK    5  A    between atoms: O_18  and  C_11 
ROOT
ATOM      1  C   UNL d   1      53.152  32.343  53.822  0.00  0.00     0.025 C 
ENDROOT
BRANCH   1   2
ATOM      2  C   UNL d   1      53.896  32.706  53.876  0.00  0.00     0.021 A 
ATOM      3  C   UNL d   1      54.451  32.817  53.245  0.00  0.00     0.082 A 
ATOM      4  N   UNL d   1      55.104  33.196  53.546  0.00  0.00    -0.246 NA
ATOM      5  C   UNL d   1      54.335  32.577  52.465  0.00  0.00     0.021 C 
ATOM      6  C   UNL d   1      54.990  33.335  54.352  0.00  0.00     0.081 A 
ATOM      7  C   UNL d   1      54.243  33.032  54.556  0.00  0.00     0.019 A 
ATOM      8  C   UNL d   1      55.453  33.690  54.925  0.00  0.00     0.019 A 
ATOM      9  C   UNL d   1      53.968  33.087  55.332  0.00  0.00     0.002 A 
ATOM     10  C   UNL d   1      54.432  33.444  55.910  0.00  0.00     0.000 A 
ATOM     11  C   UNL d   1      55.191  33.752  55.703  0.00  0.00     0.002 A 
ENDBRANCH   1   2
BRANCH   1  12
ATOM     12  C   UNL d   1      53.095  31.552  53.627  0.00  0.00     0.004 A 
ATOM     13  C   UNL d   1      53.299  30.954  54.161  0.00  0.00     0.028 A 
ATOM     14  C   UNL d   1      53.241  30.164  53.961  0.00  0.00     0.133 A 
ATOM     15  C   UNL d   1      52.976  29.947  53.217  0.00  0.00     0.218 A 
ATOM     16  C   UNL d   1      52.765  30.529  52.662  0.00  0.00     0.044 A 
ATOM     17  O   UNL d   1      52.913  29.158  53.005  0.00  0.00    -0.284 OA
ATOM     18  C   UNL d   1      52.823  31.319  52.863  0.00  0.00     0.004 A 
BRANCH  14  19
ATOM     19  O   UNL d   1      53.452  29.586  54.516  0.00  0.00    -0.325 OA
ATOM     20  C   UNL d   1      52.981  29.487  55.179  0.00  0.00     0.181 C 
ENDBRANCH  14  19
ENDBRANCH   1  12
BRANCH   1  21
ATOM     21  C   UNL d   1      52.467  32.795  53.970  0.00  0.00     0.148 C 
BRANCH  21  22
ATOM     22  N   UNL d   1      51.982  33.005  53.336  0.00  0.00    -0.112 N 
ATOM     23  O   UNL d   1      52.250  33.525  52.766  0.00  0.00    -0.532 OA
ATOM     24  O   UNL d   1      51.216  32.680  53.287  0.00  0.00    -0.532 OA
ENDBRANCH  21  22
ENDBRANCH   1  21
TORSDOF 5
ENDMDL
MODEL 5
REMARK VINA RESULT:      -6.8      1.606      2.809
REMARK  5 active torsions:
REMARK  status: ('A' for Active; 'I' for Inactive)
REMARK    1  A    between atoms: C_4  and  C_1 
REMARK    2  A    between atoms: C_8  and  C_4 
REMARK    3  A    between atoms: C_9  and  C_4 
REMARK    4  A    between atoms: N_5  and  C_9 
REMARK    5  A    between atoms: O_18  and  C_11 
ROOT
ATOM      1  C   UNL d   1      53.161  32.487  53.626  0.00  0.00     0.025 C 
ENDROOT
BRANCH   1   2
ATOM      2  C   UNL d   1      53.909  32.770  53.846  0.00  0.00     0.021 A 
ATOM      3  C   UNL d   1      54.619  32.735  53.382  0.00  0.00     0.082 A 
ATOM      4  N   UNL d   1      55.218  33.076  53.810  0.00  0.00    -0.246 NA
ATOM      5  C   UNL d   1      54.675  32.408  52.627  0.00  0.00     0.021 C 
ATOM      6  C   UNL d   1      54.921  33.332  54.537  0.00  0.00     0.081 A 
ATOM      7  C   UNL d   1      54.111  33.143  54.559  0.00  0.00     0.019 A 
ATOM      8  C   UNL d   1      55.266  33.706  55.177  0.00  0.00     0.019 A 
ATOM      9  C   UNL d   1      53.657  33.330  55.221  0.00  0.00     0.002 A 
ATOM     10  C   UNL d   1      54.002  33.707  55.866  0.00  0.00     0.000 A 
ATOM     11  C   UNL d   1      54.824  33.899  55.844  0.00  0.00     0.002 A 
ENDBRANCH   1   2
BRANCH   1  12
ATOM     12  C   UNL d   1      52.648  32.966  53.208  0.00  0.00     0.004 A 
ATOM     13  C   UNL d   1      51.855  33.051  53.425  0.00  0.00     0.028 A 
ATOM     14  C   UNL d   1      51.345  33.531  53.004  0.00  0.00     0.133 A 
ATOM     15  C   UNL d   1      51.615  33.941  52.348  0.00  0.00     0.218 A 
ATOM     16  C   UNL d   1      52.408  33.872  52.109  0.00  0.00     0.044 A 
ATOM     17  O   UNL d   1      51.113  34.425  51.918  0.00  0.00    -0.284 OA
ATOM     18  C   UNL d   1      52.918  33.392  52.532  0.00  0.00     0.004 A 
BRANCH  14  19
ATOM     19  O   UNL d   1      50.555  33.598  53.244  0.00  0.00    -0.325 OA
ATOM     20  C   UNL d   1      50.356  34.183  53.784  0.00  0.00     0.181 C 
ENDBRANCH  14  19
ENDBRANCH   1  12
BRANCH   1  21
ATOM     21  C   UNL d   1      52.941  31.712  53.839  0.00  0.00     0.148 C 
BRANCH  21  22
ATOM     22  N   UNL d   1      53.067  31.098  53.301  0.00  0.00    -0.112 N 
ATOM     23  O   UNL d   1      52.677  31.092  52.584  0.00  0.00    -0.532 OA
ATOM     24  O   UNL d   1      53.596  30.486  53.502  0.00  0.00    -0.532 OA
ENDBRANCH  21  22
ENDBRANCH   1  21
TORSDOF 5
ENDMDL
MODEL 6
REMARK VINA RESULT:      -6.7      1.692      3.343
REMARK  5 active torsions:
REMARK  status: ('A' for Active; 'I' for Inactive)
REMARK    1  A    between atoms: C_4  and  C_1 
REMARK    2  A    between atoms: C_8  and  C_4 
REMARK    3  A    between atoms: C_9  and  C_4 
REMARK    4  A    between atoms: N_5  and  C_9 
REMARK    5  A    between atoms: O_18  and  C_11 
ROOT
ATOM      1  C   UNL d   1      52.742  32.883  53.514  0.00  0.00     0.025 C 
ENDROOT
BRANCH   1   2
ATOM      2  C   UNL d   1      52.357  33.417  53.009  0.00  0.00     0.021 A 
ATOM      3  C   UNL d   1      52.710  33.855  52.373  0.00  0.00     0.082 A 
ATOM      4  N   UNL d   1      52.131  34.309  52.028  0.00  0.00    -0.246 NA
ATOM      5  C   UNL d   1      53.503  33.816  52.155  0.00  0.00     0.021 C 
ATOM      6  C   UNL d   1      51.415  34.181  52.418  0.00  0.00     0.081 A 
ATOM      7  C   UNL d   1      51.555  33.629  53.025  0.00  0.00     0.019 A 
ATOM      8  C   UNL d   1      50.663  34.482  52.312  0.00  0.00     0.019 A 
ATOM      9  C   UNL d   1      50.940  33.386  53.518  0.00  0.00     0.002 A 
ATOM     10  C   UNL d   1      50.182  33.688  53.413  0.00  0.00     0.000 A 
ATOM     11  C   UNL d   1      50.040  34.248  52.796  0.00  0.00     0.002 A 
ENDBRANCH   1   2
BRANCH   1  12
ATOM     12  C   UNL d   1      53.363  33.134  53.980  0.00  0.00     0.004 A 
ATOM     13  C   UNL d   1      53.248  33.631  54.631  0.00  0.00     0.028 A 
ATOM     14  C   UNL d   1      53.872  33.881  55.095  0.00  0.00     0.133 A 
ATOM     15  C   UNL d   1      54.635  33.639  54.921  0.00  0.00     0.218 A 
ATOM     16  C   UNL d   1      54.777  33.139  54.272  0.00  0.00     0.044 A 
ATOM     17  O   UNL d   1      55.270  33.882  55.379  0.00  0.00    -0.284 OA
ATOM     18  C   UNL d   1      54.152  32.890  53.808  0.00  0.00     0.004 A 
BRANCH  14  19
ATOM     19  O   UNL d   1      53.727  34.379  55.742  0.00  0.00    -0.325 OA
ATOM     20  C   UNL d   1      53.366  35.102  55.608  0.00  0.00     0.181 C 
ENDBRANCH  14  19
ENDBRANCH   1  12
BRANCH   1  21
ATOM     21  C   UNL d   1      52.486  32.090  53.538  0.00  0.00     0.148 C 
BRANCH  21  22
ATOM     22  N   UNL d   1      52.931  31.513  53.150  0.00  0.00    -0.112 N 
ATOM     23  O   UNL d   1      52.918  31.460  52.336  0.00  0.00    -0.532 OA
ATOM     24  O   UNL d   1      53.393  30.987  53.603  0.00  0.00    -0.532 OA
ENDBRANCH  21  22
ENDBRANCH   1  21
TORSDOF 5
ENDMDL
MODEL 7
REMARK VINA RESULT:      -6.7      1.584      2.811
REMARK  5 active torsions:
REMARK  status: ('A' for Active; 'I' for Inactive)
REMARK    1  A    between atoms: C_4  and  C_1 
REMARK    2  A    between atoms: C_8  and  C_4 
REMARK    3  A    between atoms: C_9  and  C_4 
REMARK    4  A    between atoms: N_5  and  C_9 
REMARK    5  A    between atoms: O_18  and  C_11 
ROOT
ATOM      1  C   UNL d   1      53.011  31.644  53.711  0.00  0.00     0.025 C 
ENDROOT
BRANCH   1   2
ATOM      2  C   UNL d   1      53.116  30.833  53.571  0.00  0.00     0.021 A 
ATOM      3  C   UNL d   1      53.198  30.457  52.815  0.00  0.00     0.082 A 
ATOM      4  N   UNL d   1      53.288  29.659  52.939  0.00  0.00    -0.246 NA
ATOM      5  C   UNL d   1      53.185  30.846  52.089  0.00  0.00     0.021 C 
ATOM      6  C   UNL d   1      53.268  29.505  53.750  0.00  0.00     0.081 A 
ATOM      7  C   UNL d   1      53.161  30.232  54.141  0.00  0.00     0.019 A 
ATOM      8  C   UNL d   1      53.330  28.817  54.187  0.00  0.00     0.019 A 
ATOM      9  C   UNL d   1      53.119  30.260  54.964  0.00  0.00     0.002 A 
ATOM     10  C   UNL d   1      53.181  29.569  55.406  0.00  0.00     0.000 A 
ATOM     11  C   UNL d   1      53.289  28.831  55.008  0.00  0.00     0.002 A 
ENDBRANCH   1   2
BRANCH   1  12
ATOM     12  C   UNL d   1      53.659  32.127  53.833  0.00  0.00     0.004 A 
ATOM     13  C   UNL d   1      53.817  32.468  54.569  0.00  0.00     0.028 A 
ATOM     14  C   UNL d   1      54.466  32.950  54.687  0.00  0.00     0.133 A 
ATOM     15  C   UNL d   1      54.980  33.105  54.068  0.00  0.00     0.218 A 
ATOM     16  C   UNL d   1      54.843  32.774  53.318  0.00  0.00     0.044 A 
ATOM     17  O   UNL d   1      55.634  33.587  54.175  0.00  0.00    -0.284 OA
ATOM     18  C   UNL d   1      54.193  32.292  53.201  0.00  0.00     0.004 A 
BRANCH  14  19
ATOM     19  O   UNL d   1      54.600  33.279  55.436  0.00  0.00    -0.325 OA
ATOM     20  C   UNL d   1      54.188  33.955  55.648  0.00  0.00     0.181 C 
ENDBRANCH  14  19
ENDBRANCH   1  12
BRANCH   1  21
ATOM     21  C   UNL d   1      52.239  31.958  53.724  0.00  0.00     0.148 C 
BRANCH  21  22
ATOM     22  N   UNL d   1      52.046  32.569  53.204  0.00  0.00    -0.112 N 
ATOM     23  O   UNL d   1      52.143  32.472  52.399  0.00  0.00    -0.532 OA
ATOM     24  O   UNL d   1      51.751  33.285  53.512  0.00  0.00    -0.532 OA
ENDBRANCH  21  22
ENDBRANCH   1  21
TORSDOF 5
ENDMDL
