MODEL 1
REMARK VINA RESULT:      -5.1      0.000      0.000
REMARK  9 active torsions:
REMARK  status: ('A' for Active; 'I' for Inactive)
REMARK    1  A    between atoms: C_22  and  N_1 
REMARK    2  A    between atoms: S_10  and  C_2 
REMARK    3  A    between atoms: N_8  and  C_9 
REMARK    4  A    between atoms: C_24  and  S_10 
REMARK    5  A    between atoms: C_11  and  C_24 
REMARK       I    between atoms: N_15  and  C_11 
REMARK    6  A    between atoms: C_13  and  C_25 
REMARK    7  A    between atoms: C_25  and  N_15 
REMARK    8  A    between atoms: C_30  and  C_22 
REMARK    9  A    between atoms: C_31  and  C_30 
ROOT
ATOM      1  N   UNL d   1     -46.478  12.823  23.114  0.00  0.00    -0.253 N 
ATOM      2  C   UNL d   1     -45.961  13.291  22.673  0.00  0.00     0.182 A 
ATOM      3  C   UNL d   1     -47.259  13.077  23.238  0.00  0.00     0.268 A 
ATOM      4  C   UNL d   1     -47.517  13.793  22.924  0.00  0.00     0.076 A 
ATOM      5  N   UNL d   1     -46.224  14.013  22.357  0.00  0.00    -0.222 NA
ATOM      6  C   UNL d   1     -46.999  14.261  22.483  0.00  0.00     0.088 A 
ATOM      7  C   UNL d   1     -48.291  14.041  23.049  0.00  0.00     0.024 A 
ATOM      8  C   UNL d   1     -48.549  14.757  22.735  0.00  0.00     0.065 A 
ATOM      9  O   UNL d   1     -47.776  12.609  23.678  0.00  0.00    -0.267 OA
ATOM     10  C   UNL d   1     -47.256  14.977  22.168  0.00  0.00     0.021 A 
ATOM     11  C   UNL d   1     -48.032  15.225  22.294  0.00  0.00     0.019 A 
ENDROOT
BRANCH   2  12
ATOM     12  S   UNL d   1     -45.180  13.043  22.546  0.00  0.00    -0.044 SA
BRANCH  12  13
ATOM     13  C   UNL d   1     -44.775  13.276  21.855  0.00  0.00     0.101 C 
BRANCH  13  14
ATOM     14  C   UNL d   1     -44.019  12.975  21.700  0.00  0.00     0.286 C 
ATOM     15  N   UNL d   1     -43.406  13.492  21.490  0.00  0.00    -0.204 NA
ATOM     16  O   UNL d   1     -43.884  12.163  21.757  0.00  0.00    -0.265 OA
BRANCH  15  17
ATOM     17  C   UNL d   1     -42.646  13.188  21.334  0.00  0.00     0.127 C 
BRANCH  17  18
ATOM     18  C   UNL d   1     -42.031  13.706  21.126  0.00  0.00     0.119 A 
ATOM     19  O   UNL d   1     -41.991  14.323  20.588  0.00  0.00    -0.304 OA
ATOM     20  C   UNL d   1     -41.231  14.643  20.619  0.00  0.00     0.123 A 
ATOM     21  C   UNL d   1     -40.795  14.226  21.177  0.00  0.00     0.029 A 
ATOM     22  C   UNL d   1     -41.294  13.643  21.491  0.00  0.00     0.028 A 
ENDBRANCH  17  18
ENDBRANCH  15  17
ENDBRANCH  13  14
ENDBRANCH  12  13
ENDBRANCH   2  12
BRANCH   1  23
ATOM     23  C   UNL d   1     -46.218  12.105  23.429  0.00  0.00     0.085 C 
BRANCH  23  24
ATOM     24  C   UNL d   1     -46.636  11.411  23.272  0.00  0.00     0.019 C 
BRANCH  24  25
ATOM     25  C   UNL d   1     -46.462  10.719  23.697  0.00  0.00     0.002 C 
ATOM     26  C   UNL d   1     -46.260  10.018  23.287  0.00  0.00     0.000 C 
ENDBRANCH  24  25
ENDBRANCH  23  24
ENDBRANCH   1  23
BRANCH   8  27
ATOM     27  N   UNL d   1     -49.323  15.005  22.860  0.00  0.00    -0.300 N 
ATOM     28  C   UNL d   1     -49.488  15.583  23.439  0.00  0.00     0.107 A 
ATOM     29  C   UNL d   1     -50.263  15.831  23.564  0.00  0.00     0.142 A 
ATOM     30  O   UNL d   1     -50.887  15.508  23.115  0.00  0.00    -0.300 OA
ATOM     31  C   UNL d   1     -50.722  14.930  22.537  0.00  0.00     0.142 A 
ATOM     32  C   UNL d   1     -49.939  14.682  22.413  0.00  0.00     0.107 A 
ENDBRANCH   8  27
TORSDOF 9
ENDMDL
