MODEL 1
REMARK VINA RESULT:      -2.8      0.000      0.000
REMARK  2 active torsions:
REMARK  status: ('A' for Active; 'I' for Inactive)
REMARK    1  A    between atoms: C_9  and  C_1 
REMARK    2  A    between atoms: O_13  and  C_11 
ROOT
ATOM      1  C   UNL d   1      31.189  16.737 -23.919  0.00  0.00     0.064 A 
ATOM      2  C   UNL d   1      30.462  17.024 -24.164  0.00  0.00     0.199 A 
ATOM      3  C   UNL d   1      29.750  16.653 -23.955  0.00  0.00     0.062 A 
ATOM      4  C   UNL d   1      31.217  16.039 -23.437  0.00  0.00     0.126 A 
ATOM      5  C   UNL d   1      29.777  15.974 -23.486  0.00  0.00     0.105 A 
ATOM      6  O   UNL d   1      30.517  15.660 -23.222  0.00  0.00    -0.305 OA
ATOM      7  C   UNL d   1      29.050  16.942 -24.200  0.00  0.00     0.007 A 
ATOM      8  C   UNL d   1      29.105  15.577 -23.258  0.00  0.00     0.049 A 
ATOM      9  O   UNL d   1      30.434  17.700 -24.630  0.00  0.00    -0.286 OA
ATOM     10  C   UNL d   1      28.378  15.874 -23.509  0.00  0.00     0.096 A 
ATOM     11  C   UNL d   1      28.349  16.572 -23.991  0.00  0.00     0.024 A 
ENDROOT
BRANCH   1  12
ATOM     12  C   UNL d   1      31.861  17.124 -24.141  0.00  0.00     0.005 A 
ATOM     13  C   UNL d   1      32.164  17.751 -23.665  0.00  0.00     0.000 A 
ATOM     14  C   UNL d   1      32.836  18.138 -23.887  0.00  0.00     0.000 A 
ATOM     15  C   UNL d   1      33.237  17.929 -24.579  0.00  0.00     0.000 A 
ATOM     16  C   UNL d   1      32.945  17.306 -25.060  0.00  0.00     0.000 A 
ATOM     17  C   UNL d   1      32.263  16.915 -24.833  0.00  0.00     0.000 A 
ENDBRANCH   1  12
BRANCH  10  18
ATOM     18  O   UNL d   1      27.668  15.453 -23.266  0.00  0.00    -0.328 OA
ATOM     19  C   UNL d   1      27.021  15.453 -23.770  0.00  0.00     0.181 C 
ENDBRANCH  10  18
TORSDOF 2
ENDMDL
MODEL 2
REMARK VINA RESULT:      -2.3      2.619      4.484
REMARK  2 active torsions:
REMARK  status: ('A' for Active; 'I' for Inactive)
REMARK    1  A    between atoms: C_9  and  C_1 
REMARK    2  A    between atoms: O_13  and  C_11 
ROOT
ATOM      1  C   UNL d   1      32.689  17.807 -24.154  0.00  0.00     0.064 A 
ATOM      2  C   UNL d   1      32.856  17.929 -23.362  0.00  0.00     0.199 A 
ATOM      3  C   UNL d   1      32.957  18.690 -23.046  0.00  0.00     0.062 A 
ATOM      4  C   UNL d   1      32.617  18.477 -24.670  0.00  0.00     0.126 A 
ATOM      5  C   UNL d   1      32.887  19.342 -23.548  0.00  0.00     0.105 A 
ATOM      6  O   UNL d   1      32.715  19.239 -24.370  0.00  0.00    -0.305 OA
ATOM      7  C   UNL d   1      33.119  18.796 -22.274  0.00  0.00     0.007 A 
ATOM      8  C   UNL d   1      32.977  20.105 -23.283  0.00  0.00     0.049 A 
ATOM      9  O   UNL d   1      32.926  17.281 -22.862  0.00  0.00    -0.286 OA
ATOM     10  C   UNL d   1      33.145  20.218 -22.483  0.00  0.00     0.096 A 
ATOM     11  C   UNL d   1      33.217  19.549 -21.968  0.00  0.00     0.024 A 
ENDROOT
BRANCH   1  12
ATOM     12  C   UNL d   1      32.597  17.053 -24.427  0.00  0.00     0.005 A 
ATOM     13  C   UNL d   1      33.234  16.667 -24.823  0.00  0.00     0.000 A 
ATOM     14  C   UNL d   1      33.142  15.913 -25.095  0.00  0.00     0.000 A 
ATOM     15  C   UNL d   1      32.429  15.509 -24.992  0.00  0.00     0.000 A 
ATOM     16  C   UNL d   1      31.789  15.883 -24.599  0.00  0.00     0.000 A 
ATOM     17  C   UNL d   1      31.884  16.648 -24.323  0.00  0.00     0.000 A 
ENDBRANCH   1  12
BRANCH  10  18
ATOM     18  O   UNL d   1      33.241  21.027 -22.205  0.00  0.00    -0.328 OA
ATOM     19  C   UNL d   1      32.971  21.216 -21.454  0.00  0.00     0.181 C 
ENDBRANCH  10  18
TORSDOF 2
ENDMDL
MODEL 3
REMARK VINA RESULT:      -1.8      3.548      5.113
REMARK  2 active torsions:
REMARK  status: ('A' for Active; 'I' for Inactive)
REMARK    1  A    between atoms: C_9  and  C_1 
REMARK    2  A    between atoms: O_13  and  C_11 
ROOT
ATOM      1  C   UNL d   1      32.896  20.410 -21.813  0.00  0.00     0.064 A 
ATOM      2  C   UNL d   1      32.798  20.281 -22.616  0.00  0.00     0.199 A 
ATOM      3  C   UNL d   1      32.901  19.531 -22.956  0.00  0.00     0.062 A 
ATOM      4  C   UNL d   1      33.111  19.761 -21.312  0.00  0.00     0.126 A 
ATOM      5  C   UNL d   1      33.110  18.898 -22.468  0.00  0.00     0.105 A 
ATOM      6  O   UNL d   1      33.217  19.010 -21.636  0.00  0.00    -0.305 OA
ATOM      7  C   UNL d   1      32.802  19.417 -23.737  0.00  0.00     0.007 A 
ATOM      8  C   UNL d   1      33.222  18.146 -22.757  0.00  0.00     0.049 A 
ATOM      9  O   UNL d   1      32.590  20.909 -23.101  0.00  0.00    -0.286 OA
ATOM     10  C   UNL d   1      33.120  18.025 -23.566  0.00  0.00     0.096 A 
ATOM     11  C   UNL d   1      32.905  18.675 -24.067  0.00  0.00     0.024 A 
ENDROOT
BRANCH   1  12
ATOM     12  C   UNL d   1      32.788  21.153 -21.518  0.00  0.00     0.005 A 
ATOM     13  C   UNL d   1      33.225  21.802 -21.833  0.00  0.00     0.000 A 
ATOM     14  C   UNL d   1      33.117  22.545 -21.537  0.00  0.00     0.000 A 
ATOM     15  C   UNL d   1      32.579  22.683 -20.925  0.00  0.00     0.000 A 
ATOM     16  C   UNL d   1      32.138  22.046 -20.604  0.00  0.00     0.000 A 
ATOM     17  C   UNL d   1      32.249  21.292 -20.905  0.00  0.00     0.000 A 
ENDBRANCH   1  12
BRANCH  10  18
ATOM     18  O   UNL d   1      33.239  17.228 -23.870  0.00  0.00    -0.328 OA
ATOM     19  C   UNL d   1      33.241  17.116 -24.682  0.00  0.00     0.181 C 
ENDBRANCH  10  18
TORSDOF 2
ENDMDL
MODEL 4
REMARK VINA RESULT:      -1.4      4.104      6.170
REMARK  2 active torsions:
REMARK  status: ('A' for Active; 'I' for Inactive)
REMARK    1  A    between atoms: C_9  and  C_1 
REMARK    2  A    between atoms: O_13  and  C_11 
ROOT
ATOM      1  C   UNL d   1      33.229  20.245 -22.595  0.00  0.00     0.064 A 
ATOM      2  C   UNL d   1      33.232  20.300 -21.777  0.00  0.00     0.199 A 
ATOM      3  C   UNL d   1      33.234  21.032 -21.386  0.00  0.00     0.062 A 
ATOM      4  C   UNL d   1      33.227  20.956 -23.057  0.00  0.00     0.126 A 
ATOM      5  C   UNL d   1      33.233  21.724 -21.837  0.00  0.00     0.105 A 
ATOM      6  O   UNL d   1      33.229  21.690 -22.682  0.00  0.00    -0.305 OA
ATOM      7  C   UNL d   1      33.238  21.072 -20.591  0.00  0.00     0.007 A 
ATOM      8  C   UNL d   1      33.235  22.462 -21.496  0.00  0.00     0.049 A 
ATOM      9  O   UNL d   1      33.234  19.612 -21.329  0.00  0.00    -0.286 OA
ATOM     10  C   UNL d   1      33.238  22.508 -20.673  0.00  0.00     0.096 A 
ATOM     11  C   UNL d   1      33.240  21.797 -20.210  0.00  0.00     0.024 A 
ENDROOT
BRANCH   1  12
ATOM     12  C   UNL d   1      33.227  19.516 -22.941  0.00  0.00     0.005 A 
ATOM     13  C   UNL d   1      33.241  19.448 -23.782  0.00  0.00     0.000 A 
ATOM     14  C   UNL d   1      33.239  18.719 -24.128  0.00  0.00     0.000 A 
ATOM     15  C   UNL d   1      33.223  18.032 -23.670  0.00  0.00     0.000 A 
ATOM     16  C   UNL d   1      33.209  18.088 -22.833  0.00  0.00     0.000 A 
ATOM     17  C   UNL d   1      33.211  18.828 -22.483  0.00  0.00     0.000 A 
ENDBRANCH   1  12
BRANCH  10  18
ATOM     18  O   UNL d   1      33.240  23.290 -20.315  0.00  0.00    -0.328 OA
ATOM     19  C   UNL d   1      32.724  23.438 -19.695  0.00  0.00     0.181 C 
ENDBRANCH  10  18
TORSDOF 2
ENDMDL
MODEL 5
REMARK VINA RESULT:      -0.6      5.781      7.520
REMARK  2 active torsions:
REMARK  status: ('A' for Active; 'I' for Inactive)
REMARK    1  A    between atoms: C_9  and  C_1 
REMARK    2  A    between atoms: O_13  and  C_11 
ROOT
ATOM      1  C   UNL d   1      32.951  22.153 -19.873  0.00  0.00     0.064 A 
ATOM      2  C   UNL d   1      33.048  22.573 -20.570  0.00  0.00     0.199 A 
ATOM      3  C   UNL d   1      33.098  22.195 -21.307  0.00  0.00     0.062 A 
ATOM      4  C   UNL d   1      32.899  21.307 -19.904  0.00  0.00     0.126 A 
ATOM      5  C   UNL d   1      33.047  21.371 -21.337  0.00  0.00     0.105 A 
ATOM      6  O   UNL d   1      32.947  20.918 -20.629  0.00  0.00    -0.305 OA
ATOM      7  C   UNL d   1      33.192  22.614 -21.977  0.00  0.00     0.007 A 
ATOM      8  C   UNL d   1      33.091  20.959 -22.036  0.00  0.00     0.049 A 
ATOM      9  O   UNL d   1      33.098  23.392 -20.541  0.00  0.00    -0.286 OA
ATOM     10  C   UNL d   1      33.188  21.390 -22.733  0.00  0.00     0.096 A 
ATOM     11  C   UNL d   1      33.240  22.236 -22.702  0.00  0.00     0.024 A 
ENDROOT
BRANCH   1  12
ATOM     12  C   UNL d   1      32.907  22.554 -19.174  0.00  0.00     0.005 A 
ATOM     13  C   UNL d   1      32.516  23.300 -19.140  0.00  0.00     0.000 A 
ATOM     14  C   UNL d   1      32.472  23.701 -18.441  0.00  0.00     0.000 A 
ATOM     15  C   UNL d   1      32.806  23.390 -17.752  0.00  0.00     0.000 A 
ATOM     16  C   UNL d   1      33.197  22.648 -17.774  0.00  0.00     0.000 A 
ATOM     17  C   UNL d   1      33.241  22.242 -18.485  0.00  0.00     0.000 A 
ENDBRANCH   1  12
BRANCH  10  18
ATOM     18  O   UNL d   1      33.234  20.952 -23.472  0.00  0.00    -0.328 OA
ATOM     19  C   UNL d   1      33.206  21.370 -24.177  0.00  0.00     0.181 C 
ENDBRANCH  10  18
TORSDOF 2
ENDMDL
MODEL 6
REMARK VINA RESULT:       0.1      0.895      3.989
REMARK  2 active torsions:
REMARK  status: ('A' for Active; 'I' for Inactive)
REMARK    1  A    between atoms: C_9  and  C_1 
REMARK    2  A    between atoms: O_13  and  C_11 
ROOT
ATOM      1  C   UNL d   1      29.121  15.874 -23.558  0.00  0.00     0.064 A 
ATOM      2  C   UNL d   1      29.470  16.393 -24.086  0.00  0.00     0.199 A 
ATOM      3  C   UNL d   1      30.290  16.521 -24.100  0.00  0.00     0.062 A 
ATOM      4  C   UNL d   1      29.609  15.453 -23.007  0.00  0.00     0.126 A 
ATOM      5  C   UNL d   1      30.765  16.112 -23.563  0.00  0.00     0.105 A 
ATOM      6  O   UNL d   1      30.426  15.571 -23.008  0.00  0.00    -0.305 OA
ATOM      7  C   UNL d   1      30.617  17.029 -24.618  0.00  0.00     0.007 A 
ATOM      8  C   UNL d   1      31.572  16.206 -23.540  0.00  0.00     0.049 A 
ATOM      9  O   UNL d   1      28.997  16.800 -24.620  0.00  0.00    -0.286 OA
ATOM     10  C   UNL d   1      31.915  16.731 -24.076  0.00  0.00     0.096 A 
ATOM     11  C   UNL d   1      31.427  17.152 -24.627  0.00  0.00     0.024 A 
ENDROOT
BRANCH   1  12
ATOM     12  C   UNL d   1      28.320  15.774 -23.573  0.00  0.00     0.005 A 
ATOM     13  C   UNL d   1      27.866  15.893 -22.873  0.00  0.00     0.000 A 
ATOM     14  C   UNL d   1      27.065  15.794 -22.888  0.00  0.00     0.000 A 
ATOM     15  C   UNL d   1      26.679  15.574 -23.585  0.00  0.00     0.000 A 
ATOM     16  C   UNL d   1      27.120  15.453 -24.288  0.00  0.00     0.000 A 
ATOM     17  C   UNL d   1      27.933  15.555 -24.270  0.00  0.00     0.000 A 
ENDBRANCH   1  12
BRANCH  10  18
ATOM     18  O   UNL d   1      32.770  16.829 -24.050  0.00  0.00    -0.328 OA
ATOM     19  C   UNL d   1      33.085  17.564 -24.234  0.00  0.00     0.181 C 
ENDBRANCH  10  18
TORSDOF 2
ENDMDL
