MODEL 1
REMARK VINA RESULT:      33.7      0.000      0.000
REMARK  8 active torsions:
REMARK  status: ('A' for Active; 'I' for Inactive)
REMARK    1  A    between atoms: C_9  and  C_2 
REMARK    2  A    between atoms: S_7  and  C_4 
REMARK    3  A    between atoms: C_6  and  C_13 
REMARK       I    between atoms: N_10  and  C_6 
REMARK    4  A    between atoms: C_13  and  S_7 
REMARK    5  A    between atoms: C_8  and  C_14 
REMARK    6  A    between atoms: O_15  and  C_8 
REMARK    7  A    between atoms: C_14  and  N_10 
REMARK    8  A    between atoms: C_18  and  O_15 
ROOT
ATOM      1  N   UNL d   1     -51.366  25.560  33.325  0.00  0.00    -0.212 NA
ATOM      2  C   UNL d   1     -51.505  24.754  33.320  0.00  0.00     0.171 A 
ATOM      3  N   UNL d   1     -50.776  24.365  33.308  0.00  0.00    -0.188 NA
ATOM      4  C   UNL d   1     -50.551  25.686  33.317  0.00  0.00     0.160 A 
ATOM      5  S   UNL d   1     -50.186  24.941  33.306  0.00  0.00     0.041 SA
ENDROOT
BRANCH   4   6
ATOM      6  S   UNL d   1     -50.163  26.415  33.319  0.00  0.00    -0.054 SA
BRANCH   6   7
ATOM      7  C   UNL d   1     -50.089  26.837  34.014  0.00  0.00     0.100 C 
BRANCH   7   8
ATOM      8  C   UNL d   1     -49.673  27.555  34.032  0.00  0.00     0.286 C 
ATOM      9  N   UNL d   1     -49.199  27.738  34.680  0.00  0.00    -0.200 NA
ATOM     10  O   UNL d   1     -49.740  28.075  33.399  0.00  0.00    -0.265 OA
BRANCH   9  11
ATOM     11  C   UNL d   1     -48.789  28.452  34.689  0.00  0.00     0.171 C 
BRANCH  11  12
ATOM     12  C   UNL d   1     -48.015  28.471  34.995  0.00  0.00     0.320 C 
ATOM     13  O   UNL d   1     -47.639  27.768  35.216  0.00  0.00    -0.257 OA
BRANCH  12  14
ATOM     14  O   UNL d   1     -47.628  29.202  35.075  0.00  0.00    -0.270 OA
BRANCH  14  15
ATOM     15  C   UNL d   1     -47.746  29.651  35.766  0.00  0.00     0.126 C 
ATOM     16  C   UNL d   1     -47.538  30.441  35.775  0.00  0.00     0.029 C 
ENDBRANCH  14  15
ENDBRANCH  12  14
ENDBRANCH  11  12
ENDBRANCH   9  11
ENDBRANCH   7   8
ENDBRANCH   6   7
ENDBRANCH   4   6
BRANCH   2  17
ATOM     17  C   UNL d   1     -52.243  24.383  33.325  0.00  0.00     0.036 A 
ATOM     18  C   UNL d   1     -52.947  24.827  33.317  0.00  0.00     0.003 A 
ATOM     19  C   UNL d   1     -53.673  24.458  33.322  0.00  0.00     0.000 A 
ATOM     20  C   UNL d   1     -53.711  23.638  33.335  0.00  0.00     0.000 A 
ATOM     21  C   UNL d   1     -53.014  23.188  33.343  0.00  0.00     0.000 A 
ATOM     22  C   UNL d   1     -52.290  23.569  33.338  0.00  0.00     0.003 A 
ENDBRANCH   2  17
TORSDOF 8
ENDMDL
