MODEL 1
REMARK VINA RESULT:      14.3      0.000      0.000
REMARK  4 active torsions:
REMARK  status: ('A' for Active; 'I' for Inactive)
REMARK    1  A    between atoms: C_2  and  N_1 
REMARK       I    between atoms: C_3  and  N_1 
REMARK    2  A    between atoms: N_5  and  C_2 
REMARK    3  A    between atoms: C_4  and  C_3 
REMARK    4  A    between atoms: C_7  and  N_5 
ROOT
ATOM      1  C   UNL d   1      24.100  12.792  -2.833  0.00  0.00     0.224 C 
ATOM      2  S   UNL d   1      24.305  12.022  -2.612  0.00  0.00    -0.037 SA
ENDROOT
BRANCH   1   3
ATOM      3  N   UNL d   1      24.149  13.022  -3.623  0.00  0.00    -0.177 NA
ATOM      4  C   UNL d   1      24.483  12.518  -4.186  0.00  0.00     0.304 C 
ATOM      5  O   UNL d   1      24.768  11.780  -3.951  0.00  0.00    -0.263 OA
BRANCH   4   6
ATOM      6  C   UNL d   1      24.531  12.749  -4.977  0.00  0.00     0.158 A 
ATOM      7  O   UNL d   1      24.760  12.258  -5.606  0.00  0.00    -0.300 OA
ATOM      8  C   UNL d   1      24.729  12.721  -6.295  0.00  0.00     0.123 A 
ATOM      9  C   UNL d   1      24.485  13.481  -6.088  0.00  0.00     0.029 A 
ATOM     10  C   UNL d   1      24.363  13.497  -5.272  0.00  0.00     0.032 A 
ENDBRANCH   4   6
ENDBRANCH   1   3
BRANCH   1  11
ATOM     11  N   UNL d   1      23.846  13.330  -2.254  0.00  0.00    -0.215 NA
BRANCH  11  12
ATOM     12  C   UNL d   1      23.609  13.062  -1.510  0.00  0.00     0.112 A 
ATOM     13  C   UNL d   1      24.042  13.279  -0.830  0.00  0.00     0.156 A 
ATOM     14  N   UNL d   1      23.805  13.012  -0.087  0.00  0.00    -0.231 NA
ATOM     15 CL   UNL d   1      24.713  13.766  -0.906  0.00  0.00    -0.060 Cl
ATOM     16  C   UNL d   1      23.139  12.530  -0.016  0.00  0.00     0.100 A 
ATOM     17  C   UNL d   1      22.710  12.315  -0.690  0.00  0.00     0.022 A 
ATOM     18  C   UNL d   1      22.943  12.581  -1.440  0.00  0.00     0.023 A 
ENDBRANCH  11  12
ENDBRANCH   1  11
TORSDOF 4
ENDMDL
MODEL 2
REMARK VINA RESULT:      16.0      9.972     10.507
REMARK  4 active torsions:
REMARK  status: ('A' for Active; 'I' for Inactive)
REMARK    1  A    between atoms: C_2  and  N_1 
REMARK       I    between atoms: C_3  and  N_1 
REMARK    2  A    between atoms: N_5  and  C_2 
REMARK    3  A    between atoms: C_4  and  C_3 
REMARK    4  A    between atoms: C_7  and  N_5 
ROOT
ATOM      1  C   UNL d   1      13.485  12.211  -2.888  0.00  0.00     0.224 C 
ATOM      2  S   UNL d   1      12.783  11.782  -2.960  0.00  0.00    -0.037 SA
ENDROOT
BRANCH   1   3
ATOM      3  N   UNL d   1      13.540  12.971  -3.203  0.00  0.00    -0.177 NA
ATOM      4  C   UNL d   1      13.190  13.149  -3.929  0.00  0.00     0.304 C 
ATOM      5  O   UNL d   1      12.783  12.558  -4.339  0.00  0.00    -0.263 OA
BRANCH   4   6
ATOM      6  C   UNL d   1      13.245  13.910  -4.244  0.00  0.00     0.158 A 
ATOM      7  O   UNL d   1      13.550  14.572  -3.848  0.00  0.00    -0.300 OA
ATOM      8  C   UNL d   1      13.496  15.213  -4.375  0.00  0.00     0.123 A 
ATOM      9  C   UNL d   1      13.163  14.943  -5.080  0.00  0.00     0.029 A 
ATOM     10  C   UNL d   1      13.008  14.137  -4.998  0.00  0.00     0.032 A 
ENDBRANCH   4   6
ENDBRANCH   1   3
BRANCH   1  11
ATOM     11  N   UNL d   1      14.134  11.870  -2.497  0.00  0.00    -0.215 NA
BRANCH  11  12
ATOM     12  C   UNL d   1      14.163  11.853  -1.673  0.00  0.00     0.112 A 
ATOM     13  C   UNL d   1      14.899  11.886  -1.279  0.00  0.00     0.156 A 
ATOM     14  N   UNL d   1      14.928  11.869  -0.455  0.00  0.00    -0.231 NA
ATOM     15 CL   UNL d   1      15.602  11.938  -1.722  0.00  0.00    -0.060 Cl
ATOM     16  C   UNL d   1      14.229  11.818  -0.020  0.00  0.00     0.100 A 
ATOM     17  C   UNL d   1      13.500  11.785  -0.409  0.00  0.00     0.022 A 
ATOM     18  C   UNL d   1      13.464  11.802  -1.237  0.00  0.00     0.023 A 
ENDBRANCH  11  12
ENDBRANCH   1  11
TORSDOF 4
ENDMDL
MODEL 3
REMARK VINA RESULT:      16.7     10.003     11.044
REMARK  4 active torsions:
REMARK  status: ('A' for Active; 'I' for Inactive)
REMARK    1  A    between atoms: C_2  and  N_1 
REMARK       I    between atoms: C_3  and  N_1 
REMARK    2  A    between atoms: N_5  and  C_2 
REMARK    3  A    between atoms: C_4  and  C_3 
REMARK    4  A    between atoms: C_7  and  N_5 
ROOT
ATOM      1  C   UNL d   1      13.522  12.600  -2.658  0.00  0.00     0.224 C 
ATOM      2  S   UNL d   1      13.607  11.780  -2.711  0.00  0.00    -0.037 SA
ENDROOT
BRANCH   1   3
ATOM      3  N   UNL d   1      13.957  13.026  -2.102  0.00  0.00    -0.177 NA
ATOM      4  C   UNL d   1      14.258  12.651  -1.430  0.00  0.00     0.304 C 
ATOM      5  O   UNL d   1      14.119  11.845  -1.319  0.00  0.00    -0.263 OA
BRANCH   4   6
ATOM      6  C   UNL d   1      14.693  13.078  -0.873  0.00  0.00     0.158 A 
ATOM      7  O   UNL d   1      14.473  13.810  -0.551  0.00  0.00    -0.300 OA
ATOM      8  C   UNL d   1      15.073  14.028  -0.019  0.00  0.00     0.123 A 
ATOM      9  C   UNL d   1      15.649  13.438  -0.018  0.00  0.00     0.029 A 
ATOM     10  C   UNL d   1      15.413  12.850  -0.547  0.00  0.00     0.032 A 
ENDBRANCH   4   6
ENDBRANCH   1   3
BRANCH   1  11
ATOM     11  N   UNL d   1      12.995  12.990  -3.168  0.00  0.00    -0.215 NA
BRANCH  11  12
ATOM     12  C   UNL d   1      12.951  12.780  -3.964  0.00  0.00     0.112 A 
ATOM     13  C   UNL d   1      12.967  13.371  -4.554  0.00  0.00     0.156 A 
ATOM     14  N   UNL d   1      12.923  13.160  -5.350  0.00  0.00    -0.231 NA
ATOM     15 CL   UNL d   1      13.029  14.172  -4.335  0.00  0.00    -0.060 Cl
ATOM     16  C   UNL d   1      12.862  12.366  -5.563  0.00  0.00     0.100 A 
ATOM     17  C   UNL d   1      12.846  11.781  -4.979  0.00  0.00     0.022 A 
ATOM     18  C   UNL d   1      12.890  11.985  -4.177  0.00  0.00     0.023 A 
ENDBRANCH  11  12
ENDBRANCH   1  11
TORSDOF 4
ENDMDL
