MODEL 1
REMARK VINA RESULT:      -1.6      0.000      0.000
REMARK  2 active torsions:
REMARK  status: ('A' for Active; 'I' for Inactive)
REMARK    1  A    between atoms: C_9  and  C_3 
REMARK    2  A    between atoms: C_12  and  N_4 
ROOT
ATOM      1  C   UNL d   1     -41.909-122.327 -53.571  0.00  0.00     0.035 A 
ATOM      2  C   UNL d   1     -41.734-122.565 -52.801  0.00  0.00     0.065 A 
ATOM      3  C   UNL d   1     -42.262-121.589 -53.534  0.00  0.00     0.166 A 
ATOM      4  N   UNL d   1     -41.981-121.968 -52.292  0.00  0.00    -0.233 N 
ATOM      5  N   UNL d   1     -42.307-121.366 -52.745  0.00  0.00    -0.159 NA
ATOM      6  C   UNL d   1     -41.455-123.187 -53.076  0.00  0.00     0.057 A 
ATOM      7  C   UNL d   1     -41.614-122.995 -53.909  0.00  0.00    -0.020 A 
ATOM      8  C   UNL d   1     -41.544-123.256 -54.624  0.00  0.00     0.027 A 
ATOM      9  C   UNL d   1     -41.123-123.817 -52.718  0.00  0.00    -0.021 A 
ATOM     10  C   UNL d   1     -41.277-123.614 -53.432  0.00  0.00    -0.008 A 
ATOM     11  C   UNL d   1     -41.358-123.268 -52.340  0.00  0.00     0.011 C 
ATOM     12  C   UNL d   1     -41.784-122.854 -55.208  0.00  0.00     0.005 C 
ATOM     13  C   UNL d   1     -41.322-123.794 -55.097  0.00  0.00     0.005 C 
ENDROOT
BRANCH   4  14
ATOM     14  C   UNL d   1     -41.912-121.974 -51.451  0.00  0.00     0.083 A 
ATOM     15  C   UNL d   1     -42.535-122.311 -50.981  0.00  0.00     0.019 A 
ATOM     16  C   UNL d   1     -42.463-122.315 -50.145  0.00  0.00     0.002 A 
ATOM     17  C   UNL d   1     -41.782-121.990 -49.775  0.00  0.00     0.000 A 
ATOM     18  C   UNL d   1     -41.160-121.653 -50.250  0.00  0.00     0.002 A 
ATOM     19  C   UNL d   1     -41.236-121.651 -51.085  0.00  0.00     0.019 A 
ENDBRANCH   4  14
BRANCH   3  20
ATOM     20  C   UNL d   1     -42.531-121.140 -54.192  0.00  0.00     0.231 C 
ATOM     21  O   UNL d   1     -42.030-120.560 -54.553  0.00  0.00    -0.643 OA
ATOM     22  O   UNL d   1     -43.311-121.270 -54.494  0.00  0.00    -0.643 OA
ENDBRANCH   3  20
TORSDOF 2
ENDMDL
MODEL 2
REMARK VINA RESULT:       0.3      1.674      2.629
REMARK  2 active torsions:
REMARK  status: ('A' for Active; 'I' for Inactive)
REMARK    1  A    between atoms: C_9  and  C_3 
REMARK    2  A    between atoms: C_12  and  N_4 
ROOT
ATOM      1  C   UNL d   1     -41.642-122.477 -51.799  0.00  0.00     0.035 A 
ATOM      2  C   UNL d   1     -41.679-122.353 -50.985  0.00  0.00     0.065 A 
ATOM      3  C   UNL d   1     -41.814-123.265 -51.944  0.00  0.00     0.166 A 
ATOM      4  N   UNL d   1     -41.875-123.069 -50.631  0.00  0.00    -0.233 N 
ATOM      5  N   UNL d   1     -41.958-123.632 -51.224  0.00  0.00    -0.159 NA
ATOM      6  C   UNL d   1     -41.505-121.649 -51.103  0.00  0.00     0.057 A 
ATOM      7  C   UNL d   1     -41.450-121.714 -51.968  0.00  0.00    -0.020 A 
ATOM      8  C   UNL d   1     -41.305-121.320 -52.607  0.00  0.00     0.027 A 
ATOM      9  C   UNL d   1     -41.405-121.041 -50.597  0.00  0.00    -0.021 A 
ATOM     10  C   UNL d   1     -41.366-121.138 -51.348  0.00  0.00    -0.008 A 
ATOM     11  C   UNL d   1     -41.574-121.685 -50.361  0.00  0.00     0.011 C 
ATOM     12  C   UNL d   1     -41.327-121.648 -53.278  0.00  0.00     0.005 C 
ATOM     13  C   UNL d   1     -41.127-120.672 -52.940  0.00  0.00     0.005 C 
ENDROOT
BRANCH   4  14
ATOM     14  C   UNL d   1     -41.974-123.202 -49.804  0.00  0.00     0.083 A 
ATOM     15  C   UNL d   1     -42.752-123.162 -49.462  0.00  0.00     0.019 A 
ATOM     16  C   UNL d   1     -42.846-123.294 -48.639  0.00  0.00     0.002 A 
ATOM     17  C   UNL d   1     -42.180-123.466 -48.156  0.00  0.00     0.000 A 
ATOM     18  C   UNL d   1     -41.403-123.506 -48.503  0.00  0.00     0.002 A 
ATOM     19  C   UNL d   1     -41.313-123.372 -49.326  0.00  0.00     0.019 A 
ENDBRANCH   4  14
BRANCH   3  20
ATOM     20  C   UNL d   1     -41.838-123.632 -52.700  0.00  0.00     0.231 C 
ATOM     21  O   UNL d   1     -41.123-123.817 -53.113  0.00  0.00    -0.643 OA
ATOM     22  O   UNL d   1     -42.586-123.817 -53.049  0.00  0.00    -0.643 OA
ENDBRANCH   3  20
TORSDOF 2
ENDMDL
MODEL 3
REMARK VINA RESULT:       1.1      1.761      3.789
REMARK  2 active torsions:
REMARK  status: ('A' for Active; 'I' for Inactive)
REMARK    1  A    between atoms: C_9  and  C_3 
REMARK    2  A    between atoms: C_12  and  N_4 
ROOT
ATOM      1  C   UNL d   1     -41.563-122.454 -51.553  0.00  0.00     0.035 A 
ATOM      2  C   UNL d   1     -41.493-122.308 -52.362  0.00  0.00     0.065 A 
ATOM      3  C   UNL d   1     -41.781-123.237 -51.455  0.00  0.00     0.166 A 
ATOM      4  N   UNL d   1     -41.670-123.007 -52.758  0.00  0.00    -0.233 N 
ATOM      5  N   UNL d   1     -41.848-123.580 -52.197  0.00  0.00    -0.159 NA
ATOM      6  C   UNL d   1     -41.309-121.615 -52.202  0.00  0.00     0.057 A 
ATOM      7  C   UNL d   1     -41.365-121.704 -51.339  0.00  0.00    -0.020 A 
ATOM      8  C   UNL d   1     -41.287-121.331 -50.676  0.00  0.00     0.027 A 
ATOM      9  C   UNL d   1     -41.123-120.999 -52.674  0.00  0.00    -0.021 A 
ATOM     10  C   UNL d   1     -41.182-121.116 -51.926  0.00  0.00    -0.008 A 
ATOM     11  C   UNL d   1     -41.286-121.630 -52.948  0.00  0.00     0.011 C 
ATOM     12  C   UNL d   1     -41.406-121.675 -50.023  0.00  0.00     0.005 C 
ATOM     13  C   UNL d   1     -41.128-120.699 -50.305  0.00  0.00     0.005 C 
ENDROOT
BRANCH   4  14
ATOM     14  C   UNL d   1     -41.669-123.115 -53.595  0.00  0.00     0.083 A 
ATOM     15  C   UNL d   1     -41.164-123.705 -53.941  0.00  0.00     0.019 A 
ATOM     16  C   UNL d   1     -41.166-123.810 -54.774  0.00  0.00     0.002 A 
ATOM     17  C   UNL d   1     -41.661-123.338 -55.261  0.00  0.00     0.000 A 
ATOM     18  C   UNL d   1     -42.166-122.748 -54.910  0.00  0.00     0.002 A 
ATOM     19  C   UNL d   1     -42.161-122.646 -54.078  0.00  0.00     0.019 A 
ENDBRANCH   4  14
BRANCH   3  20
ATOM     20  C   UNL d   1     -41.914-123.621 -50.719  0.00  0.00     0.231 C 
ATOM     21  O   UNL d   1     -42.699-123.817 -50.468  0.00  0.00    -0.643 OA
ATOM     22  O   UNL d   1     -41.254-123.813 -50.224  0.00  0.00    -0.643 OA
ENDBRANCH   3  20
TORSDOF 2
ENDMDL
