MODEL 1
REMARK VINA RESULT:      32.5      0.000      0.000
REMARK  4 active torsions:
REMARK  status: ('A' for Active; 'I' for Inactive)
REMARK    1  A    between atoms: C_9  and  C_2 
REMARK    2  A    between atoms: C_7  and  C_9 
REMARK       I    between atoms: N_13  and  C_7 
REMARK    3  A    between atoms: C_10  and  C_19 
REMARK    4  A    between atoms: C_19  and  N_13 
ROOT
ATOM      1  C   UNL d   1      15.667  14.799  -0.525  0.00  0.00     0.100 A 
ATOM      2  C   UNL d   1      14.989  13.731  -0.940  0.00  0.00     0.032 A 
ATOM      3  O   UNL d   1      16.064  14.128  -0.273  0.00  0.00    -0.305 OA
ATOM      4  C   UNL d   1      14.995  14.557  -0.943  0.00  0.00     0.025 A 
ATOM      5  C   UNL d   1      15.644  13.461  -0.529  0.00  0.00     0.123 A 
ATOM      6  C   UNL d   1      15.831  15.604  -0.430  0.00  0.00     0.023 A 
ATOM      7  C   UNL d   1      14.489  15.117  -1.262  0.00  0.00     0.002 A 
ATOM      8  C   UNL d   1      15.317  16.169  -0.755  0.00  0.00     0.002 A 
ATOM      9  C   UNL d   1      14.646  15.921  -1.172  0.00  0.00     0.000 A 
ATOM     10  C   UNL d   1      16.496  15.847  -0.017  0.00  0.00     0.002 C 
ATOM     11  C   UNL d   1      15.475  16.967  -0.663  0.00  0.00     0.000 C 
ENDROOT
BRANCH   2  12
ATOM     12  C   UNL d   1      14.414  13.248  -1.294  0.00  0.00     0.065 C 
BRANCH  12  13
ATOM     13  C   UNL d   1      14.542  12.440  -1.383  0.00  0.00     0.279 C 
ATOM     14  N   UNL d   1      14.064  12.001  -1.885  0.00  0.00    -0.204 NA
ATOM     15  O   UNL d   1      15.151  12.072  -0.968  0.00  0.00    -0.265 OA
BRANCH  14  16
ATOM     16  C   UNL d   1      13.454  12.357  -2.305  0.00  0.00     0.127 C 
BRANCH  16  17
ATOM     17  C   UNL d   1      13.374  12.239  -3.113  0.00  0.00     0.119 A 
ATOM     18  O   UNL d   1      13.864  12.528  -3.696  0.00  0.00    -0.304 OA
ATOM     19  C   UNL d   1      13.574  12.273  -4.430  0.00  0.00     0.123 A 
ATOM     20  C   UNL d   1      12.897  11.821  -4.295  0.00  0.00     0.029 A 
ATOM     21  C   UNL d   1      12.769  11.798  -3.480  0.00  0.00     0.028 A 
ENDBRANCH  16  17
ENDBRANCH  14  16
ENDBRANCH  12  13
ENDBRANCH   2  12
TORSDOF 4
ENDMDL
MODEL 2
REMARK VINA RESULT:      33.5      2.173      3.717
REMARK  4 active torsions:
REMARK  status: ('A' for Active; 'I' for Inactive)
REMARK    1  A    between atoms: C_9  and  C_2 
REMARK    2  A    between atoms: C_7  and  C_9 
REMARK       I    between atoms: N_13  and  C_7 
REMARK    3  A    between atoms: C_10  and  C_19 
REMARK    4  A    between atoms: C_19  and  N_13 
ROOT
ATOM      1  C   UNL d   1      13.466  14.477  -4.669  0.00  0.00     0.100 A 
ATOM      2  C   UNL d   1      13.177  13.441  -3.884  0.00  0.00     0.032 A 
ATOM      3  O   UNL d   1      13.070  13.917  -5.117  0.00  0.00    -0.305 OA
ATOM      4  C   UNL d   1      13.535  14.185  -3.898  0.00  0.00     0.025 A 
ATOM      5  C   UNL d   1      12.888  13.270  -4.631  0.00  0.00     0.123 A 
ATOM      6  C   UNL d   1      13.774  15.219  -4.863  0.00  0.00     0.023 A 
ATOM      7  C   UNL d   1      13.911  14.634  -3.324  0.00  0.00     0.002 A 
ATOM      8  C   UNL d   1      14.154  15.671  -4.280  0.00  0.00     0.002 A 
ATOM      9  C   UNL d   1      14.221  15.374  -3.510  0.00  0.00     0.000 A 
ATOM     10  C   UNL d   1      13.706  15.511  -5.626  0.00  0.00     0.002 C 
ATOM     11  C   UNL d   1      14.461  16.407  -4.467  0.00  0.00     0.000 C 
ENDROOT
BRANCH   2  12
ATOM     12  C   UNL d   1      13.116  12.943  -3.222  0.00  0.00     0.065 C 
BRANCH  12  13
ATOM     13  C   UNL d   1      13.408  12.175  -3.247  0.00  0.00     0.279 C 
ATOM     14  N   UNL d   1      13.610  11.789  -2.552  0.00  0.00    -0.204 NA
ATOM     15  O   UNL d   1      13.497  11.792  -3.972  0.00  0.00    -0.265 OA
BRANCH  14  16
ATOM     16  C   UNL d   1      13.525  12.160  -1.824  0.00  0.00     0.127 C 
BRANCH  16  17
ATOM     17  C   UNL d   1      14.095  12.077  -1.240  0.00  0.00     0.119 A 
ATOM     18  O   UNL d   1      14.879  11.882  -1.351  0.00  0.00    -0.304 OA
ATOM     19  C   UNL d   1      15.249  11.859  -0.609  0.00  0.00     0.123 A 
ATOM     20  C   UNL d   1      14.685  12.043  -0.035  0.00  0.00     0.029 A 
ATOM     21  C   UNL d   1      13.968  12.178  -0.422  0.00  0.00     0.028 A 
ENDBRANCH  16  17
ENDBRANCH  14  16
ENDBRANCH  12  13
ENDBRANCH   2  12
TORSDOF 4
ENDMDL
