MODEL 1
REMARK VINA RESULT:      -4.5      0.000      0.000
REMARK  6 active torsions:
REMARK  status: ('A' for Active; 'I' for Inactive)
REMARK    1  A    between atoms: C_10  and  C_3 
REMARK    2  A    between atoms: S_9  and  C_4 
REMARK       I    between atoms: N_6  and  C_7 
REMARK    3  A    between atoms: C_8  and  N_6 
REMARK    4  A    between atoms: C_7  and  C_14 
REMARK    5  A    between atoms: C_14  and  S_9 
REMARK    6  A    between atoms: O_15  and  C_12 
ROOT
ATOM      1  S   UNL d   1     -41.414-122.630 -51.781  0.00  0.00    -0.036 SA
ENDROOT
BRANCH   1   2
ATOM      2  C   UNL d   1     -41.434-122.845 -52.602  0.00  0.00     0.236 A 
ATOM      3  O   UNL d   1     -41.820-122.365 -53.149  0.00  0.00    -0.263 OA
ATOM      4  C   UNL d   1     -41.751-122.702 -53.881  0.00  0.00     0.205 A 
ATOM      5  N   UNL d   1     -41.318-123.401 -53.795  0.00  0.00    -0.120 NA
ATOM      6  N   UNL d   1     -41.125-123.487 -53.015  0.00  0.00    -0.114 NA
BRANCH   4   7
ATOM      7  C   UNL d   1     -42.042-122.433 -54.600  0.00  0.00     0.046 A 
ATOM      8  C   UNL d   1     -42.699-122.784 -54.932  0.00  0.00     0.024 A 
ATOM      9  C   UNL d   1     -42.994-122.507 -55.668  0.00  0.00     0.099 A 
ATOM     10  N   UNL d   1     -42.614-121.881 -56.047  0.00  0.00    -0.242 NA
ATOM     11  C   UNL d   1     -41.931-121.519 -55.698  0.00  0.00     0.099 A 
ATOM     12  C   UNL d   1     -41.654-121.799 -54.981  0.00  0.00     0.024 A 
ENDBRANCH   4   7
ENDBRANCH   1   2
BRANCH   1  13
ATOM     13  C   UNL d   1     -41.201-123.208 -51.231  0.00  0.00     0.101 C 
BRANCH  13  14
ATOM     14  C   UNL d   1     -41.320-123.039 -50.435  0.00  0.00     0.286 C 
ATOM     15  N   UNL d   1     -41.629-123.627 -49.934  0.00  0.00    -0.206 NA
ATOM     16  O   UNL d   1     -41.145-122.303 -50.111  0.00  0.00    -0.265 OA
BRANCH  15  17
ATOM     17  C   UNL d   1     -41.754-123.474 -49.135  0.00  0.00     0.107 A 
ATOM     18  C   UNL d   1     -42.520-123.562 -48.784  0.00  0.00     0.112 A 
ATOM     19  C   UNL d   1     -42.627-123.409 -48.000  0.00  0.00     0.026 A 
ATOM     20  C   UNL d   1     -42.009-123.164 -47.513  0.00  0.00     0.002 A 
ATOM     21  C   UNL d   1     -41.250-123.068 -47.823  0.00  0.00     0.002 A 
ATOM     22  C   UNL d   1     -41.123-123.222 -48.630  0.00  0.00     0.021 A 
BRANCH  18  23
ATOM     23  O   UNL d   1     -43.151-123.814 -49.289  0.00  0.00    -0.327 OA
ATOM     24  C   UNL d   1     -43.938-123.763 -48.981  0.00  0.00     0.181 C 
ENDBRANCH  18  23
ENDBRANCH  15  17
ENDBRANCH  13  14
ENDBRANCH   1  13
TORSDOF 6
ENDMDL
MODEL 2
REMARK VINA RESULT:      -3.4      1.077      5.819
REMARK  6 active torsions:
REMARK  status: ('A' for Active; 'I' for Inactive)
REMARK    1  A    between atoms: C_10  and  C_3 
REMARK    2  A    between atoms: S_9  and  C_4 
REMARK       I    between atoms: N_6  and  C_7 
REMARK    3  A    between atoms: C_8  and  N_6 
REMARK    4  A    between atoms: C_7  and  C_14 
REMARK    5  A    between atoms: C_14  and  S_9 
REMARK    6  A    between atoms: O_15  and  C_12 
ROOT
ATOM      1  S   UNL d   1     -41.597-122.229 -51.201  0.00  0.00    -0.036 SA
ENDROOT
BRANCH   1   2
ATOM      2  C   UNL d   1     -41.490-122.732 -50.527  0.00  0.00     0.236 A 
ATOM      3  O   UNL d   1     -41.782-122.510 -49.790  0.00  0.00    -0.263 OA
ATOM      4  C   UNL d   1     -41.601-123.089 -49.255  0.00  0.00     0.205 A 
ATOM      5  N   UNL d   1     -41.190-123.682 -49.658  0.00  0.00    -0.120 NA
ATOM      6  N   UNL d   1     -41.123-123.464 -50.433  0.00  0.00    -0.114 NA
BRANCH   4   7
ATOM      7  C   UNL d   1     -41.774-123.121 -48.452  0.00  0.00     0.046 A 
ATOM      8  C   UNL d   1     -42.550-123.123 -48.202  0.00  0.00     0.024 A 
ATOM      9  C   UNL d   1     -42.723-123.155 -47.381  0.00  0.00     0.099 A 
ATOM     10  N   UNL d   1     -42.105-123.185 -46.837  0.00  0.00    -0.242 NA
ATOM     11  C   UNL d   1     -41.299-123.182 -47.102  0.00  0.00     0.099 A 
ATOM     12  C   UNL d   1     -41.144-123.150 -47.904  0.00  0.00     0.024 A 
ENDBRANCH   4   7
ENDBRANCH   1   2
BRANCH   1  13
ATOM     13  C   UNL d   1     -41.228-122.439 -51.909  0.00  0.00     0.101 C 
BRANCH  13  14
ATOM     14  C   UNL d   1     -41.517-122.108 -52.604  0.00  0.00     0.286 C 
ATOM     15  N   UNL d   1     -41.319-122.451 -53.335  0.00  0.00    -0.206 NA
ATOM     16  O   UNL d   1     -42.001-121.441 -52.604  0.00  0.00    -0.265 OA
BRANCH  15  17
ATOM     17  C   UNL d   1     -41.601-122.132 -54.039  0.00  0.00     0.107 A 
ATOM     18  C   UNL d   1     -41.660-122.599 -54.743  0.00  0.00     0.112 A 
ATOM     19  C   UNL d   1     -41.937-122.272 -55.425  0.00  0.00     0.026 A 
ATOM     20  C   UNL d   1     -42.172-121.483 -55.469  0.00  0.00     0.002 A 
ATOM     21  C   UNL d   1     -42.127-120.999 -54.801  0.00  0.00     0.002 A 
ATOM     22  C   UNL d   1     -41.843-121.322 -54.090  0.00  0.00     0.021 A 
BRANCH  18  23
ATOM     23  O   UNL d   1     -41.418-123.409 -54.692  0.00  0.00    -0.327 OA
ATOM     24  C   UNL d   1     -41.271-123.816 -55.420  0.00  0.00     0.181 C 
ENDBRANCH  18  23
ENDBRANCH  15  17
ENDBRANCH  13  14
ENDBRANCH   1  13
TORSDOF 6
ENDMDL
MODEL 3
REMARK VINA RESULT:      -2.7      0.816      1.336
REMARK  6 active torsions:
REMARK  status: ('A' for Active; 'I' for Inactive)
REMARK    1  A    between atoms: C_10  and  C_3 
REMARK    2  A    between atoms: S_9  and  C_4 
REMARK       I    between atoms: N_6  and  C_7 
REMARK    3  A    between atoms: C_8  and  N_6 
REMARK    4  A    between atoms: C_7  and  C_14 
REMARK    5  A    between atoms: C_14  and  S_9 
REMARK    6  A    between atoms: O_15  and  C_12 
ROOT
ATOM      1  S   UNL d   1     -41.635-123.368 -52.031  0.00  0.00    -0.036 SA
ENDROOT
BRANCH   1   2
ATOM      2  C   UNL d   1     -41.567-122.841 -52.691  0.00  0.00     0.236 A 
ATOM      3  O   UNL d   1     -41.981-122.988 -53.387  0.00  0.00    -0.263 OA
ATOM      4  C   UNL d   1     -41.812-122.400 -53.916  0.00  0.00     0.205 A 
ATOM      5  N   UNL d   1     -41.286-121.877 -53.551  0.00  0.00    -0.120 NA
ATOM      6  N   UNL d   1     -41.137-122.146 -52.804  0.00  0.00    -0.114 NA
BRANCH   4   7
ATOM      7  C   UNL d   1     -42.089-122.303 -54.684  0.00  0.00     0.046 A 
ATOM      8  C   UNL d   1     -42.768-122.686 -54.923  0.00  0.00     0.024 A 
ATOM      9  C   UNL d   1     -43.049-122.584 -55.709  0.00  0.00     0.099 A 
ATOM     10  N   UNL d   1     -42.634-122.099 -56.228  0.00  0.00    -0.242 NA
ATOM     11  C   UNL d   1     -41.928-121.703 -55.975  0.00  0.00     0.099 A 
ATOM     12  C   UNL d   1     -41.665-121.810 -55.207  0.00  0.00     0.024 A 
ENDBRANCH   4   7
ENDBRANCH   1   2
BRANCH   1  13
ATOM     13  C   UNL d   1     -41.498-123.069 -51.273  0.00  0.00     0.101 C 
BRANCH  13  14
ATOM     14  C   UNL d   1     -42.002-123.310 -50.670  0.00  0.00     0.286 C 
ATOM     15  N   UNL d   1     -41.832-123.096 -49.885  0.00  0.00    -0.206 NA
ATOM     16  O   UNL d   1     -42.676-123.761 -50.815  0.00  0.00    -0.265 OA
BRANCH  15  17
ATOM     17  C   UNL d   1     -42.326-123.330 -49.270  0.00  0.00     0.107 A 
ATOM     18  C   UNL d   1     -42.053-123.350 -48.468  0.00  0.00     0.112 A 
ATOM     19  C   UNL d   1     -42.549-123.581 -47.876  0.00  0.00     0.026 A 
ATOM     20  C   UNL d   1     -43.329-123.804 -48.020  0.00  0.00     0.002 A 
ATOM     21  C   UNL d   1     -43.627-123.796 -48.790  0.00  0.00     0.002 A 
ATOM     22  C   UNL d   1     -43.128-123.560 -49.412  0.00  0.00     0.021 A 
BRANCH  18  23
ATOM     23  O   UNL d   1     -41.250-123.119 -48.326  0.00  0.00    -0.327 OA
ATOM     24  C   UNL d   1     -41.123-122.452 -47.821  0.00  0.00     0.181 C 
ENDBRANCH  18  23
ENDBRANCH  15  17
ENDBRANCH  13  14
ENDBRANCH   1  13
TORSDOF 6
ENDMDL
