MODEL 1
REMARK VINA RESULT:      82.8      0.000      0.000
REMARK  6 active torsions:
REMARK  status: ('A' for Active; 'I' for Inactive)
REMARK    1  A    between atoms: N_7  and  C_1 
REMARK    2  A    between atoms: C_6  and  C_4 
REMARK    3  A    between atoms: C_19  and  N_9 
REMARK    4  A    between atoms: C_21  and  C_13 
REMARK    5  A    between atoms: O_20  and  C_21 
REMARK    6  A    between atoms: C_22  and  O_20 
ROOT
ATOM      1  C   UNL d   1     -49.881  27.306  34.392  0.00  0.00     0.198 A 
ATOM      2  C   UNL d   1     -49.061  27.262  34.134  0.00  0.00     0.191 A 
ATOM      3  O   UNL d   1     -49.968  28.041  34.772  0.00  0.00    -0.268 OA
ATOM      4  C   UNL d   1     -49.256  28.417  34.748  0.00  0.00     0.208 A 
ATOM      5  N   UNL d   1     -48.717  27.964  34.374  0.00  0.00    -0.206 NA
ATOM      6  C   UNL d   1     -48.728  26.625  33.730  0.00  0.00     0.124 C 
ATOM      7  N   UNL d   1     -48.363  25.997  33.321  0.00  0.00    -0.190 NA
ENDROOT
BRANCH   1   8
ATOM      8  N   UNL d   1     -50.388  26.688  34.240  0.00  0.00    -0.280 N 
ATOM      9  C   UNL d   1     -50.584  26.140  34.819  0.00  0.00     0.101 A 
ATOM     10  C   UNL d   1     -51.090  25.522  34.667  0.00  0.00     0.100 A 
ATOM     11  N   UNL d   1     -51.414  25.448  33.909  0.00  0.00    -0.301 N 
ATOM     12  C   UNL d   1     -51.226  25.995  33.309  0.00  0.00     0.100 A 
ATOM     13  C   UNL d   1     -50.711  26.614  33.482  0.00  0.00     0.101 A 
BRANCH  11  14
ATOM     14  C   UNL d   1     -51.929  24.829  33.735  0.00  0.00     0.064 A 
ATOM     15  C   UNL d   1     -51.647  24.078  33.494  0.00  0.00     0.018 A 
ATOM     16  C   UNL d   1     -52.161  23.460  33.321  0.00  0.00     0.002 A 
ATOM     17  C   UNL d   1     -52.978  23.586  33.387  0.00  0.00     0.000 A 
ATOM     18  C   UNL d   1     -53.271  24.319  33.623  0.00  0.00     0.002 A 
ATOM     19  C   UNL d   1     -52.746  24.956  33.802  0.00  0.00     0.018 A 
ENDBRANCH  11  14
ENDBRANCH   1   8
BRANCH   4  20
ATOM     20  C   UNL d   1     -48.691  28.996  34.865  0.00  0.00     0.141 A 
ATOM     21  O   UNL d   1     -48.223  29.641  34.592  0.00  0.00    -0.301 OA
ATOM     22  C   UNL d   1     -47.745  29.898  35.215  0.00  0.00     0.125 A 
ATOM     23  C   UNL d   1     -47.889  29.448  35.865  0.00  0.00     0.029 A 
ATOM     24  C   UNL d   1     -48.481  28.890  35.629  0.00  0.00     0.030 A 
BRANCH  22  25
ATOM     25  C   UNL d   1     -47.195  30.513  35.213  0.00  0.00     0.147 C 
BRANCH  25  26
ATOM     26  O   UNL d   1     -47.414  31.297  35.369  0.00  0.00    -0.303 OA
BRANCH  26  27
ATOM     27  C   UNL d   1     -47.378  31.882  34.803  0.00  0.00     0.100 A 
ATOM     28  C   UNL d   1     -48.042  32.183  34.427  0.00  0.00     0.025 A 
ATOM     29  C   UNL d   1     -47.986  32.771  33.859  0.00  0.00     0.002 A 
ATOM     30  C   UNL d   1     -48.649  33.088  33.468  0.00  0.00     0.000 C 
ATOM     31  C   UNL d   1     -47.247  33.065  33.663  0.00  0.00     0.000 A 
ATOM     32  C   UNL d   1     -46.552  32.763  34.043  0.00  0.00     0.002 A 
ATOM     33  C   UNL d   1     -46.618  32.179  34.606  0.00  0.00     0.025 A 
ENDBRANCH  26  27
ENDBRANCH  25  26
ENDBRANCH  22  25
ENDBRANCH   4  20
TORSDOF 6
ENDMDL
