MODEL 1
REMARK VINA RESULT:      -2.8      0.000      0.000
REMARK  3 active torsions:
REMARK  status: ('A' for Active; 'I' for Inactive)
REMARK    1  A    between atoms: N_7  and  C_1 
REMARK    2  A    between atoms: C_11  and  N_3 
REMARK       I    between atoms: C_9  and  N_7 
REMARK    3  A    between atoms: C_12  and  C_9 
ROOT
ATOM      1  C   UNL d   1      59.172  -0.497  29.634  0.00  0.00     0.165 A 
ATOM      2  C   UNL d   1      58.538  -0.489  30.085  0.00  0.00     0.067 A 
ATOM      3  N   UNL d   1      59.483   0.216  29.650  0.00  0.00    -0.238 N 
ATOM      4  C   UNL d   1      58.458   0.234  30.382  0.00  0.00     0.116 A 
ATOM      5  N   UNL d   1      59.042   0.665  30.112  0.00  0.00    -0.168 NA
ATOM      6  S   UNL d   1      57.513  -0.481  30.814  0.00  0.00     0.213 S 
ATOM      7  C   UNL d   1      57.825   0.234  30.831  0.00  0.00     0.120 A 
ATOM      8  C   UNL d   1      57.954  -0.928  30.353  0.00  0.00     0.103 A 
ATOM      9  O   UNL d   1      57.126   0.024  31.256  0.00  0.00    -0.217 OA
ATOM     10  O   UNL d   1      57.282  -1.113  30.767  0.00  0.00    -0.217 OA
ENDROOT
BRANCH   1  11
ATOM     11  N   UNL d   1      59.096  -1.177  29.461  0.00  0.00    -0.189 NA
ATOM     12  C   UNL d   1      59.601  -1.842  28.898  0.00  0.00     0.281 C 
ATOM     13  O   UNL d   1      60.239  -1.647  28.526  0.00  0.00    -0.265 OA
BRANCH  12  14
ATOM     14  C   UNL d   1      59.320  -2.612  28.836  0.00  0.00     0.058 A 
ATOM     15  C   UNL d   1      59.801  -3.254  29.097  0.00  0.00     0.005 A 
ATOM     16  C   UNL d   1      60.551  -3.114  29.413  0.00  0.00     0.000 C 
ATOM     17  C   UNL d   1      59.513  -4.035  29.033  0.00  0.00     0.000 A 
ATOM     18  C   UNL d   1      58.751  -4.172  28.711  0.00  0.00     0.000 A 
ATOM     19  C   UNL d   1      58.289  -3.532  28.458  0.00  0.00     0.000 A 
ATOM     20  C   UNL d   1      58.572  -2.750  28.520  0.00  0.00     0.005 A 
ENDBRANCH  12  14
ENDBRANCH   1  11
BRANCH   3  21
ATOM     21  C   UNL d   1      60.170   0.459  29.245  0.00  0.00     0.088 C 
ATOM     22  C   UNL d   1      60.947   0.493  29.545  0.00  0.00     0.025 C 
ATOM     23  C   UNL d   1      60.013   0.682  28.462  0.00  0.00     0.025 C 
ATOM     24  C   UNL d   1      60.905   0.678  28.941  0.00  0.00     0.025 C 
ENDBRANCH   3  21
TORSDOF 3
ENDMDL
MODEL 2
REMARK VINA RESULT:      -2.2      1.334      3.251
REMARK  3 active torsions:
REMARK  status: ('A' for Active; 'I' for Inactive)
REMARK    1  A    between atoms: N_7  and  C_1 
REMARK    2  A    between atoms: C_11  and  N_3 
REMARK       I    between atoms: C_9  and  N_7 
REMARK    3  A    between atoms: C_12  and  C_9 
ROOT
ATOM      1  C   UNL d   1      59.353  -0.898  29.580  0.00  0.00     0.165 A 
ATOM      2  C   UNL d   1      59.088  -1.605  29.395  0.00  0.00     0.067 A 
ATOM      3  N   UNL d   1      59.961  -0.743  29.119  0.00  0.00    -0.238 N 
ATOM      4  C   UNL d   1      59.536  -1.890  28.815  0.00  0.00     0.116 A 
ATOM      5  N   UNL d   1      60.073  -1.356  28.648  0.00  0.00    -0.168 NA
ATOM      6  S   UNL d   1      58.656  -2.749  29.098  0.00  0.00     0.213 S 
ATOM      7  C   UNL d   1      59.267  -2.595  28.635  0.00  0.00     0.120 A 
ATOM      8  C   UNL d   1      58.547  -2.136  29.566  0.00  0.00     0.103 A 
ATOM      9  O   UNL d   1      58.828  -3.316  28.599  0.00  0.00    -0.217 OA
ATOM     10  O   UNL d   1      58.137  -2.834  29.519  0.00  0.00    -0.217 OA
ENDROOT
BRANCH   1  11
ATOM     11  N   UNL d   1      58.867  -0.797  30.082  0.00  0.00    -0.189 NA
ATOM     12  C   UNL d   1      58.324  -0.019  30.420  0.00  0.00     0.281 C 
ATOM     13  O   UNL d   1      58.389   0.677  30.113  0.00  0.00    -0.265 OA
BRANCH  12  14
ATOM     14  C   UNL d   1      57.798  -0.136  31.041  0.00  0.00     0.058 A 
ATOM     15  C   UNL d   1      57.952   0.219  31.791  0.00  0.00     0.005 A 
ATOM     16  C   UNL d   1      58.626   0.682  31.905  0.00  0.00     0.000 C 
ATOM     17  C   UNL d   1      57.416   0.099  32.419  0.00  0.00     0.000 A 
ATOM     18  C   UNL d   1      56.733  -0.372  32.299  0.00  0.00     0.000 A 
ATOM     19  C   UNL d   1      56.594  -0.715  31.557  0.00  0.00     0.000 A 
ATOM     20  C   UNL d   1      57.126  -0.598  30.926  0.00  0.00     0.005 A 
ENDBRANCH  12  14
ENDBRANCH   1  11
BRANCH   3  21
ATOM     21  C   UNL d   1      60.416  -0.045  29.127  0.00  0.00     0.088 C 
ATOM     22  C   UNL d   1      60.318   0.625  28.639  0.00  0.00     0.025 C 
ATOM     23  C   UNL d   1      61.018  -0.065  29.696  0.00  0.00     0.025 C 
ATOM     24  C   UNL d   1      60.798   0.682  29.050  0.00  0.00     0.025 C 
ENDBRANCH   3  21
TORSDOF 3
ENDMDL
MODEL 3
REMARK VINA RESULT:      -1.4      2.184      3.831
REMARK  3 active torsions:
REMARK  status: ('A' for Active; 'I' for Inactive)
REMARK    1  A    between atoms: N_7  and  C_1 
REMARK    2  A    between atoms: C_11  and  N_3 
REMARK       I    between atoms: C_9  and  N_7 
REMARK    3  A    between atoms: C_12  and  C_9 
ROOT
ATOM      1  C   UNL d   1      58.816   0.277  30.658  0.00  0.00     0.165 A 
ATOM      2  C   UNL d   1      59.409   0.389  31.148  0.00  0.00     0.067 A 
ATOM      3  N   UNL d   1      59.100   0.283  29.933  0.00  0.00    -0.238 N 
ATOM      4  C   UNL d   1      60.066   0.465  30.723  0.00  0.00     0.116 A 
ATOM      5  N   UNL d   1      59.871   0.399  29.975  0.00  0.00    -0.168 NA
ATOM      6  S   UNL d   1      60.367   0.570  31.943  0.00  0.00     0.213 S 
ATOM      7  C   UNL d   1      60.654   0.576  31.217  0.00  0.00     0.120 A 
ATOM      8  C   UNL d   1      59.598   0.454  31.899  0.00  0.00     0.103 A 
ATOM      9  O   UNL d   1      61.133   0.681  31.905  0.00  0.00    -0.217 OA
ATOM     10  O   UNL d   1      60.072   0.557  32.549  0.00  0.00    -0.217 OA
ENDROOT
BRANCH   1  11
ATOM     11  N   UNL d   1      58.337   0.232  31.175  0.00  0.00    -0.189 NA
ATOM     12  C   UNL d   1      57.392  -0.103  31.261  0.00  0.00     0.281 C 
ATOM     13  O   UNL d   1      57.018  -0.402  30.666  0.00  0.00    -0.265 OA
BRANCH  12  14
ATOM     14  C   UNL d   1      57.013  -0.055  31.989  0.00  0.00     0.058 A 
ATOM     15  C   UNL d   1      56.568  -0.714  32.273  0.00  0.00     0.005 A 
ATOM     16  C   UNL d   1      56.512  -1.406  31.825  0.00  0.00     0.000 C 
ATOM     17  C   UNL d   1      56.185  -0.662  33.012  0.00  0.00     0.000 A 
ATOM     18  C   UNL d   1      56.245   0.042  33.464  0.00  0.00     0.000 A 
ATOM     19  C   UNL d   1      56.684   0.682  33.173  0.00  0.00     0.000 A 
ATOM     20  C   UNL d   1      57.069   0.635  32.435  0.00  0.00     0.005 A 
ENDBRANCH  12  14
ENDBRANCH   1  11
BRANCH   3  21
ATOM     21  C   UNL d   1      58.659   0.183  29.234  0.00  0.00     0.088 C 
ATOM     22  C   UNL d   1      58.018   0.648  28.972  0.00  0.00     0.025 C 
ATOM     23  C   UNL d   1      58.924  -0.459  28.782  0.00  0.00     0.025 C 
ATOM     24  C   UNL d   1      58.163   0.175  28.575  0.00  0.00     0.025 C 
ENDBRANCH   3  21
TORSDOF 3
ENDMDL
