MODEL 1
REMARK VINA RESULT:      32.7      0.000      0.000
REMARK  9 active torsions:
REMARK  status: ('A' for Active; 'I' for Inactive)
REMARK    1  A    between atoms: C_2  and  C_1 
REMARK    2  A    between atoms: C_3  and  C_1 
REMARK    3  A    between atoms: C_12  and  C_1 
REMARK    4  A    between atoms: C_13  and  N_4 
REMARK    5  A    between atoms: C_14  and  N_5 
REMARK    6  A    between atoms: C_17  and  C_12 
REMARK    7  A    between atoms: N_16  and  C_15 
REMARK    8  A    between atoms: C_32  and  N_16 
REMARK    9  A    between atoms: C_33  and  N_16 
ROOT
ATOM      1  C   UNL d   1     -41.810-121.804 -52.862  0.00  0.00     0.075 C 
ENDROOT
BRANCH   1   2
ATOM      2  C   UNL d   1     -41.565-122.573 -53.032  0.00  0.00     0.191 A 
ATOM      3  N   UNL d   1     -41.529-122.913 -53.772  0.00  0.00    -0.192 N 
ATOM      4  N   UNL d   1     -41.256-123.682 -53.687  0.00  0.00    -0.039 NA
ATOM      5  N   UNL d   1     -41.124-123.813 -52.892  0.00  0.00    -0.022 NA
ATOM      6  N   UNL d   1     -41.311-123.139 -52.488  0.00  0.00    -0.108 NA
BRANCH   3   7
ATOM      7  C   UNL d   1     -41.721-122.585 -54.503  0.00  0.00     0.086 A 
ATOM      8  C   UNL d   1     -42.439-122.739 -54.862  0.00  0.00     0.019 A 
ATOM      9  C   UNL d   1     -42.624-122.407 -55.593  0.00  0.00     0.002 A 
ATOM     10  C   UNL d   1     -42.092-121.922 -55.965  0.00  0.00     0.000 A 
ATOM     11  C   UNL d   1     -41.363-121.756 -55.617  0.00  0.00     0.002 A 
ATOM     12  C   UNL d   1     -42.280-121.585 -56.708  0.00  0.00     0.000 C 
ATOM     13  C   UNL d   1     -41.177-122.087 -54.886  0.00  0.00     0.019 A 
ENDBRANCH   3   7
ENDBRANCH   1   2
BRANCH   1  14
ATOM     14  C   UNL d   1     -42.610-121.649 -52.787  0.00  0.00     0.191 A 
ATOM     15  N   UNL d   1     -42.974-121.761 -52.068  0.00  0.00    -0.192 N 
ATOM     16  N   UNL d   1     -43.762-121.566 -52.153  0.00  0.00    -0.039 NA
ATOM     17  N   UNL d   1     -43.893-121.334 -52.914  0.00  0.00    -0.022 NA
ATOM     18  N   UNL d   1     -43.175-121.385 -53.313  0.00  0.00    -0.108 NA
BRANCH  15  19
ATOM     19  C   UNL d   1     -42.613-122.022 -51.388  0.00  0.00     0.086 A 
ATOM     20  C   UNL d   1     -42.249-121.488 -50.881  0.00  0.00     0.019 A 
ATOM     21  C   UNL d   1     -41.883-121.740 -50.194  0.00  0.00     0.002 A 
ATOM     22  C   UNL d   1     -41.886-122.550 -50.015  0.00  0.00     0.000 A 
ATOM     23  C   UNL d   1     -42.247-123.087 -50.516  0.00  0.00     0.002 A 
ATOM     24  C   UNL d   1     -41.513-122.817 -49.311  0.00  0.00     0.000 C 
ATOM     25  C   UNL d   1     -42.613-122.823 -51.205  0.00  0.00     0.019 A 
ENDBRANCH  15  19
ENDBRANCH   1  14
BRANCH   1  26
ATOM     26  C   UNL d   1     -41.276-120.983 -52.723  0.00  0.00     0.006 C 
BRANCH  26  27
ATOM     27  C   UNL d   1     -41.255-120.158 -52.856  0.00  0.00     0.000 A 
ATOM     28  C   UNL d   1     -41.307-119.691 -53.600  0.00  0.00     0.002 A 
ATOM     29  C   UNL d   1     -41.270-118.809 -53.575  0.00  0.00     0.018 A 
ATOM     30  C   UNL d   1     -41.179-118.386 -52.801  0.00  0.00     0.064 A 
ATOM     31  C   UNL d   1     -41.127-118.861 -52.049  0.00  0.00     0.018 A 
ATOM     32  C   UNL d   1     -41.164-119.735 -52.073  0.00  0.00     0.002 A 
BRANCH  30  33
ATOM     33  N   UNL d   1     -41.142-117.499 -52.779  0.00  0.00    -0.304 N 
BRANCH  33  34
ATOM     34  C   UNL d   1     -41.123-117.081 -52.002  0.00  0.00     0.080 C 
ATOM     35  C   UNL d   1     -41.185-116.197 -51.969  0.00  0.00     0.021 C 
ENDBRANCH  33  34
BRANCH  33  36
ATOM     36  C   UNL d   1     -41.124-117.039 -53.535  0.00  0.00     0.080 C 
ATOM     37  C   UNL d   1     -41.153-116.154 -53.518  0.00  0.00     0.021 C 
ENDBRANCH  33  36
ENDBRANCH  30  33
ENDBRANCH  26  27
ENDBRANCH   1  26
TORSDOF 9
ENDMDL
