MODEL 1
REMARK VINA RESULT:      -9.3      0.000      0.000
REMARK  4 active torsions:
REMARK  status: ('A' for Active; 'I' for Inactive)
REMARK       I    between atoms: C_2  and  N_1 
REMARK    1  A    between atoms: C_3  and  N_1 
REMARK    2  A    between atoms: C_5  and  C_2 
REMARK    3  A    between atoms: C_4  and  C_3 
REMARK    4  A    between atoms: N_6  and  C_3 
ROOT
ATOM      1  C   UNL d   1      53.691  33.157  54.446  0.00  0.00     0.170 C 
ENDROOT
BRANCH   1   2
ATOM      2  N   UNL d   1      53.431  32.367  54.392  0.00  0.00    -0.191 NA
ATOM      3  C   UNL d   1      53.684  31.890  53.716  0.00  0.00     0.281 C 
ATOM      4  O   UNL d   1      54.174  32.199  53.131  0.00  0.00    -0.265 OA
BRANCH   3   5
ATOM      5  C   UNL d   1      53.436  31.102  53.644  0.00  0.00     0.069 A 
ATOM      6  C   UNL d   1      52.952  30.903  53.013  0.00  0.00     0.062 A 
ATOM      7 CL   UNL d   1      52.684  31.334  52.465  0.00  0.00    -0.082 Cl
ATOM      8  C   UNL d   1      52.680  30.095  52.913  0.00  0.00     0.012 A 
ATOM      9  C   UNL d   1      52.907  29.524  53.454  0.00  0.00     0.001 A 
ATOM     10  C   UNL d   1      53.404  29.733  54.099  0.00  0.00     0.000 A 
ATOM     11  C   UNL d   1      53.666  30.527  54.190  0.00  0.00     0.006 A 
ENDBRANCH   3   5
ENDBRANCH   1   2
BRANCH   1  12
ATOM     12  C   UNL d   1      54.425  33.312  54.813  0.00  0.00     0.249 C 
ATOM     13 CL   UNL d   1      55.114  33.456  55.195  0.00  0.00    -0.075 Cl
ATOM     14 CL   UNL d   1      55.146  33.510  54.319  0.00  0.00    -0.075 Cl
ATOM     15 CL   UNL d   1      54.418  33.270  55.584  0.00  0.00    -0.075 Cl
ENDBRANCH   1  12
BRANCH   1  16
ATOM     16  N   UNL d   1      53.240  33.770  54.149  0.00  0.00    -0.286 N 
ATOM     17  C   UNL d   1      52.522  33.932  54.467  0.00  0.00     0.108 A 
ATOM     18  C   UNL d   1      52.068  34.550  54.167  0.00  0.00     0.142 A 
ATOM     19  O   UNL d   1      52.314  35.008  53.561  0.00  0.00    -0.300 OA
ATOM     20  C   UNL d   1      53.064  34.844  53.225  0.00  0.00     0.142 A 
ATOM     21  C   UNL d   1      53.519  34.225  53.525  0.00  0.00     0.108 A 
ENDBRANCH   1  16
TORSDOF 4
ENDMDL
MODEL 2
REMARK VINA RESULT:      -9.1      1.571      2.318
REMARK  4 active torsions:
REMARK  status: ('A' for Active; 'I' for Inactive)
REMARK       I    between atoms: C_2  and  N_1 
REMARK    1  A    between atoms: C_3  and  N_1 
REMARK    2  A    between atoms: C_5  and  C_2 
REMARK    3  A    between atoms: C_4  and  C_3 
REMARK    4  A    between atoms: N_6  and  C_3 
ROOT
ATOM      1  C   UNL d   1      52.052  33.669  53.445  0.00  0.00     0.170 C 
ENDROOT
BRANCH   1   2
ATOM      2  N   UNL d   1      52.200  32.860  53.579  0.00  0.00    -0.191 NA
ATOM      3  C   UNL d   1      52.744  32.443  53.051  0.00  0.00     0.281 C 
ATOM      4  O   UNL d   1      53.115  32.827  52.425  0.00  0.00    -0.265 OA
BRANCH   3   5
ATOM      5  C   UNL d   1      52.905  31.638  53.168  0.00  0.00     0.069 A 
ATOM      6  C   UNL d   1      53.662  31.421  53.394  0.00  0.00     0.062 A 
ATOM      7 CL   UNL d   1      54.262  31.848  53.520  0.00  0.00    -0.082 Cl
ATOM      8  C   UNL d   1      53.856  30.595  53.522  0.00  0.00     0.012 A 
ATOM      9  C   UNL d   1      53.279  30.024  53.416  0.00  0.00     0.001 A 
ATOM     10  C   UNL d   1      52.504  30.251  53.184  0.00  0.00     0.000 A 
ATOM     11  C   UNL d   1      52.322  31.063  53.061  0.00  0.00     0.006 A 
ENDBRANCH   3   5
ENDBRANCH   1   2
BRANCH   1  12
ATOM     12  C   UNL d   1      51.437  33.882  52.921  0.00  0.00     0.249 C 
ATOM     13 CL   UNL d   1      50.826  34.078  52.443  0.00  0.00    -0.075 Cl
ATOM     14 CL   UNL d   1      51.627  34.199  52.104  0.00  0.00    -0.075 Cl
ATOM     15 CL   UNL d   1      50.724  33.784  53.200  0.00  0.00    -0.075 Cl
ENDBRANCH   1  12
BRANCH   1  16
ATOM     16  N   UNL d   1      52.496  34.246  53.817  0.00  0.00    -0.286 N 
ATOM     17  C   UNL d   1      52.872  34.805  53.382  0.00  0.00     0.108 A 
ATOM     18  C   UNL d   1      53.319  35.387  53.757  0.00  0.00     0.142 A 
ATOM     19  O   UNL d   1      53.399  35.421  54.550  0.00  0.00    -0.300 OA
ATOM     20  C   UNL d   1      53.008  34.839  55.009  0.00  0.00     0.142 A 
ATOM     21  C   UNL d   1      52.561  34.257  54.635  0.00  0.00     0.108 A 
ENDBRANCH   1  16
TORSDOF 4
ENDMDL
MODEL 3
REMARK VINA RESULT:      -9.0      1.733      3.071
REMARK  4 active torsions:
REMARK  status: ('A' for Active; 'I' for Inactive)
REMARK       I    between atoms: C_2  and  N_1 
REMARK    1  A    between atoms: C_3  and  N_1 
REMARK    2  A    between atoms: C_5  and  C_2 
REMARK    3  A    between atoms: C_4  and  C_3 
REMARK    4  A    between atoms: N_6  and  C_3 
ROOT
ATOM      1  C   UNL d   1      53.508  32.409  54.045  0.00  0.00     0.170 C 
ENDROOT
BRANCH   1   2
ATOM      2  N   UNL d   1      52.757  32.755  53.942  0.00  0.00    -0.191 NA
ATOM      3  C   UNL d   1      52.557  33.096  53.173  0.00  0.00     0.281 C 
ATOM      4  O   UNL d   1      53.090  33.085  52.546  0.00  0.00    -0.265 OA
BRANCH   3   5
ATOM      5  C   UNL d   1      51.815  33.445  53.051  0.00  0.00     0.069 A 
ATOM      6  C   UNL d   1      51.781  34.155  52.643  0.00  0.00     0.062 A 
ATOM      7 CL   UNL d   1      52.335  34.561  52.348  0.00  0.00    -0.082 Cl
ATOM      8  C   UNL d   1      51.026  34.539  52.502  0.00  0.00     0.012 A 
ATOM      9  C   UNL d   1      50.339  34.190  52.778  0.00  0.00     0.001 A 
ATOM     10  C   UNL d   1      50.379  33.462  53.196  0.00  0.00     0.000 A 
ATOM     11  C   UNL d   1      51.123  33.092  53.330  0.00  0.00     0.006 A 
ENDBRANCH   3   5
ENDBRANCH   1   2
BRANCH   1  12
ATOM     12  C   UNL d   1      53.623  31.619  53.798  0.00  0.00     0.249 C 
ATOM     13 CL   UNL d   1      53.715  30.852  53.589  0.00  0.00    -0.075 Cl
ATOM     14 CL   UNL d   1      54.064  31.441  53.039  0.00  0.00    -0.075 Cl
ATOM     15 CL   UNL d   1      53.323  31.085  54.269  0.00  0.00    -0.075 Cl
ENDBRANCH   1  12
BRANCH   1  16
ATOM     16  N   UNL d   1      54.123  32.829  54.381  0.00  0.00    -0.286 N 
ATOM     17  C   UNL d   1      54.094  33.034  55.155  0.00  0.00     0.108 A 
ATOM     18  C   UNL d   1      54.714  33.458  55.494  0.00  0.00     0.142 A 
ATOM     19  O   UNL d   1      55.359  33.680  55.078  0.00  0.00    -0.300 OA
ATOM     20  C   UNL d   1      55.395  33.468  54.268  0.00  0.00     0.142 A 
ATOM     21  C   UNL d   1      54.774  33.044  53.929  0.00  0.00     0.108 A 
ENDBRANCH   1  16
TORSDOF 4
ENDMDL
MODEL 4
REMARK VINA RESULT:      -8.8      1.651      3.475
REMARK  4 active torsions:
REMARK  status: ('A' for Active; 'I' for Inactive)
REMARK       I    between atoms: C_2  and  N_1 
REMARK    1  A    between atoms: C_3  and  N_1 
REMARK    2  A    between atoms: C_5  and  C_2 
REMARK    3  A    between atoms: C_4  and  C_3 
REMARK    4  A    between atoms: N_6  and  C_3 
ROOT
ATOM      1  C   UNL d   1      53.476  32.143  53.367  0.00  0.00     0.170 C 
ENDROOT
BRANCH   1   2
ATOM      2  N   UNL d   1      52.935  32.595  52.924  0.00  0.00    -0.191 NA
ATOM      3  C   UNL d   1      52.348  33.072  53.343  0.00  0.00     0.281 C 
ATOM      4  O   UNL d   1      52.314  33.087  54.165  0.00  0.00    -0.265 OA
BRANCH   3   5
ATOM      5  C   UNL d   1      51.800  33.529  52.920  0.00  0.00     0.069 A 
ATOM      6  C   UNL d   1      51.017  33.522  53.163  0.00  0.00     0.062 A 
ATOM      7 CL   UNL d   1      50.699  33.155  53.730  0.00  0.00    -0.082 Cl
ATOM      8  C   UNL d   1      50.429  33.986  52.744  0.00  0.00     0.012 A 
ATOM      9  C   UNL d   1      50.656  34.435  52.098  0.00  0.00     0.001 A 
ATOM     10  C   UNL d   1      51.460  34.439  51.853  0.00  0.00     0.000 A 
ATOM     11  C   UNL d   1      52.030  33.982  52.270  0.00  0.00     0.006 A 
ENDBRANCH   3   5
ENDBRANCH   1   2
BRANCH   1  12
ATOM     12  C   UNL d   1      54.145  32.523  53.691  0.00  0.00     0.249 C 
ATOM     13 CL   UNL d   1      54.801  32.888  53.971  0.00  0.00    -0.075 Cl
ATOM     14 CL   UNL d   1      54.177  32.719  54.565  0.00  0.00    -0.075 Cl
ATOM     15 CL   UNL d   1      54.706  32.681  53.184  0.00  0.00    -0.075 Cl
ENDBRANCH   1  12
BRANCH   1  16
ATOM     16  N   UNL d   1      53.359  31.343  53.485  0.00  0.00    -0.286 N 
ATOM     17  C   UNL d   1      53.398  31.036  54.224  0.00  0.00     0.108 A 
ATOM     18  C   UNL d   1      53.281  30.229  54.343  0.00  0.00     0.142 A 
ATOM     19  O   UNL d   1      53.126  29.726  53.743  0.00  0.00    -0.300 OA
ATOM     20  C   UNL d   1      53.084  30.041  52.968  0.00  0.00     0.142 A 
ATOM     21  C   UNL d   1      53.202  30.848  52.849  0.00  0.00     0.108 A 
ENDBRANCH   1  16
TORSDOF 4
ENDMDL
MODEL 5
REMARK VINA RESULT:      -8.4      1.707      1.940
REMARK  4 active torsions:
REMARK  status: ('A' for Active; 'I' for Inactive)
REMARK       I    between atoms: C_2  and  N_1 
REMARK    1  A    between atoms: C_3  and  N_1 
REMARK    2  A    between atoms: C_5  and  C_2 
REMARK    3  A    between atoms: C_4  and  C_3 
REMARK    4  A    between atoms: N_6  and  C_3 
ROOT
ATOM      1  C   UNL d   1      52.117  33.632  53.468  0.00  0.00     0.170 C 
ENDROOT
BRANCH   1   2
ATOM      2  N   UNL d   1      52.257  32.825  53.619  0.00  0.00    -0.191 NA
ATOM      3  C   UNL d   1      52.773  32.384  53.083  0.00  0.00     0.281 C 
ATOM      4  O   UNL d   1      53.126  32.744  52.433  0.00  0.00    -0.265 OA
BRANCH   3   5
ATOM      5  C   UNL d   1      52.925  31.580  53.217  0.00  0.00     0.069 A 
ATOM      6  C   UNL d   1      53.688  31.355  53.415  0.00  0.00     0.062 A 
ATOM      7 CL   UNL d   1      54.300  31.775  53.501  0.00  0.00    -0.082 Cl
ATOM      8  C   UNL d   1      53.874  30.530  53.559  0.00  0.00     0.012 A 
ATOM      9  C   UNL d   1      53.283  29.967  53.496  0.00  0.00     0.001 A 
ATOM     10  C   UNL d   1      52.502  30.202  53.292  0.00  0.00     0.000 A 
ATOM     11  C   UNL d   1      52.328  31.013  53.153  0.00  0.00     0.006 A 
ENDBRANCH   3   5
ENDBRANCH   1   2
BRANCH   1  12
ATOM     12  C   UNL d   1      52.631  34.198  53.806  0.00  0.00     0.249 C 
ATOM     13 CL   UNL d   1      53.112  34.730  54.160  0.00  0.00    -0.075 Cl
ATOM     14 CL   UNL d   1      53.148  34.710  53.283  0.00  0.00    -0.075 Cl
ATOM     15 CL   UNL d   1      52.614  34.232  54.577  0.00  0.00    -0.075 Cl
ENDBRANCH   1  12
BRANCH   1  16
ATOM     16  N   UNL d   1      51.491  33.871  53.000  0.00  0.00    -0.286 N 
ATOM     17  C   UNL d   1      50.743  33.849  53.289  0.00  0.00     0.108 A 
ATOM     18  C   UNL d   1      50.112  34.090  52.817  0.00  0.00     0.142 A 
ATOM     19  O   UNL d   1      50.211  34.350  52.068  0.00  0.00    -0.300 OA
ATOM     20  C   UNL d   1      50.990  34.375  51.762  0.00  0.00     0.142 A 
ATOM     21  C   UNL d   1      51.622  34.134  52.234  0.00  0.00     0.108 A 
ENDBRANCH   1  16
TORSDOF 4
ENDMDL
MODEL 6
REMARK VINA RESULT:      -7.8      1.567      3.182
REMARK  4 active torsions:
REMARK  status: ('A' for Active; 'I' for Inactive)
REMARK       I    between atoms: C_2  and  N_1 
REMARK    1  A    between atoms: C_3  and  N_1 
REMARK    2  A    between atoms: C_5  and  C_2 
REMARK    3  A    between atoms: C_4  and  C_3 
REMARK    4  A    between atoms: N_6  and  C_3 
ROOT
ATOM      1  C   UNL d   1      52.600  32.612  53.038  0.00  0.00     0.170 C 
ENDROOT
BRANCH   1   2
ATOM      2  N   UNL d   1      53.342  32.926  53.247  0.00  0.00    -0.191 NA
ATOM      3  C   UNL d   1      53.577  32.923  54.079  0.00  0.00     0.281 C 
ATOM      4  O   UNL d   1      53.084  32.619  54.664  0.00  0.00    -0.265 OA
BRANCH   3   5
ATOM      5  C   UNL d   1      54.312  33.232  54.307  0.00  0.00     0.069 A 
ATOM      6  C   UNL d   1      54.374  33.586  55.044  0.00  0.00     0.062 A 
ATOM      7 CL   UNL d   1      53.853  33.682  55.571  0.00  0.00    -0.082 Cl
ATOM      8  C   UNL d   1      55.123  33.913  55.306  0.00  0.00     0.012 A 
ATOM      9  C   UNL d   1      55.776  33.870  54.815  0.00  0.00     0.001 A 
ATOM     10  C   UNL d   1      55.707  33.506  54.060  0.00  0.00     0.000 A 
ATOM     11  C   UNL d   1      54.970  33.187  53.811  0.00  0.00     0.006 A 
ENDBRANCH   3   5
ENDBRANCH   1   2
BRANCH   1  12
ATOM     12  C   UNL d   1      52.527  31.786  52.938  0.00  0.00     0.249 C 
ATOM     13 CL   UNL d   1      52.478  30.997  52.816  0.00  0.00    -0.075 Cl
ATOM     14 CL   UNL d   1      52.040  31.300  53.513  0.00  0.00    -0.075 Cl
ATOM     15 CL   UNL d   1      52.906  31.498  52.330  0.00  0.00    -0.075 Cl
ENDBRANCH   1  12
BRANCH   1  16
ATOM     16  N   UNL d   1      51.951  33.098  52.931  0.00  0.00    -0.286 N 
ATOM     17  C   UNL d   1      51.294  32.995  53.378  0.00  0.00     0.108 A 
ATOM     18  C   UNL d   1      50.641  33.486  53.270  0.00  0.00     0.142 A 
ATOM     19  O   UNL d   1      50.629  34.072  52.728  0.00  0.00    -0.300 OA
ATOM     20  C   UNL d   1      51.313  34.184  52.258  0.00  0.00     0.142 A 
ATOM     21  C   UNL d   1      51.967  33.694  52.365  0.00  0.00     0.108 A 
ENDBRANCH   1  16
TORSDOF 4
ENDMDL
