MODEL 1
REMARK VINA RESULT:      -6.5      0.000      0.000
REMARK  5 active torsions:
REMARK  status: ('A' for Active; 'I' for Inactive)
REMARK    1  A    between atoms: N_7  and  C_1 
REMARK    2  A    between atoms: C_15  and  N_2 
REMARK    3  A    between atoms: C_5  and  C_10 
REMARK       I    between atoms: C_10  and  N_7 
REMARK    4  A    between atoms: C_13  and  C_11 
REMARK    5  A    between atoms: C_24  and  C_15 
ROOT
ATOM      1  N   UNL d   1     -45.275  13.005  22.718  0.00  0.00    -0.203 NA
ATOM      2  C   UNL d   1     -45.044  12.956  21.913  0.00  0.00     0.299 C 
ATOM      3  O   UNL d   1     -45.613  12.924  21.359  0.00  0.00    -0.263 OA
ENDROOT
BRANCH   1   4
ATOM      4  C   UNL d   1     -46.097  13.018  22.921  0.00  0.00     0.121 A 
ATOM      5  C   UNL d   1     -46.572  12.359  23.133  0.00  0.00     0.102 A 
ATOM      6  N   UNL d   1     -47.331  12.637  23.283  0.00  0.00    -0.227 N 
ATOM      7  C   UNL d   1     -46.315  11.570  23.180  0.00  0.00     0.022 C 
ATOM      8  N   UNL d   1     -47.337  13.468  23.167  0.00  0.00    -0.164 NA
ATOM      9  C   UNL d   1     -46.563  13.699  22.941  0.00  0.00     0.120 A 
ATOM     10  C   UNL d   1     -46.293  14.474  22.764  0.00  0.00     0.024 C 
BRANCH   6  11
ATOM     11  C   UNL d   1     -47.938  12.091  23.511  0.00  0.00     0.101 C 
BRANCH  11  12
ATOM     12  C   UNL d   1     -48.720  12.206  23.244  0.00  0.00     0.019 A 
ATOM     13  C   UNL d   1     -49.258  12.646  23.698  0.00  0.00     0.002 A 
ATOM     14  C   UNL d   1     -50.042  12.766  23.436  0.00  0.00     0.000 A 
ATOM     15  C   UNL d   1     -50.287  12.433  22.698  0.00  0.00     0.000 A 
ATOM     16  C   UNL d   1     -49.761  12.002  22.253  0.00  0.00     0.000 A 
ATOM     17  C   UNL d   1     -51.065  12.535  22.409  0.00  0.00     0.000 C 
ATOM     18  C   UNL d   1     -48.971  11.880  22.515  0.00  0.00     0.002 A 
ENDBRANCH  11  12
ENDBRANCH   6  11
ENDBRANCH   1   4
BRANCH   2  19
ATOM     19  C   UNL d   1     -43.511  12.935  21.577  0.00  0.00     0.168 A 
ATOM     20  N   UNL d   1     -42.977  12.364  21.720  0.00  0.00    -0.121 NA
ATOM     21  O   UNL d   1     -42.276  12.602  21.452  0.00  0.00    -0.211 OA
ATOM     22  C   UNL d   1     -42.359  13.329  21.135  0.00  0.00     0.127 A 
ATOM     23  C   UNL d   1     -43.125  13.539  21.211  0.00  0.00     0.053 A 
BRANCH  22  24
ATOM     24  C   UNL d   1     -41.769  13.737  20.814  0.00  0.00     0.027 A 
ATOM     25  C   UNL d   1     -41.632  13.690  20.027  0.00  0.00     0.028 A 
ATOM     26  C   UNL d   1     -41.046  14.095  19.709  0.00  0.00     0.119 A 
ATOM     27  O   UNL d   1     -40.786  14.155  18.962  0.00  0.00    -0.300 OA
ATOM     28  C   UNL d   1     -40.575  14.559  20.150  0.00  0.00     0.119 A 
ATOM     29  C   UNL d   1     -40.167  14.646  18.947  0.00  0.00     0.304 A 
ATOM     30  O   UNL d   1     -40.037  14.897  19.685  0.00  0.00    -0.300 OA
ATOM     31  C   UNL d   1     -40.707  14.610  20.938  0.00  0.00     0.026 A 
ATOM     32  C   UNL d   1     -41.293  14.206  21.263  0.00  0.00     0.004 A 
ENDBRANCH  22  24
ENDBRANCH   2  19
TORSDOF 5
ENDMDL
MODEL 2
REMARK VINA RESULT:      -6.0      1.757      7.811
REMARK  5 active torsions:
REMARK  status: ('A' for Active; 'I' for Inactive)
REMARK    1  A    between atoms: N_7  and  C_1 
REMARK    2  A    between atoms: C_15  and  N_2 
REMARK    3  A    between atoms: C_5  and  C_10 
REMARK       I    between atoms: C_10  and  N_7 
REMARK    4  A    between atoms: C_13  and  C_11 
REMARK    5  A    between atoms: C_24  and  C_15 
ROOT
ATOM      1  N   UNL d   1     -41.757  14.038  21.442  0.00  0.00    -0.203 NA
ATOM      2  C   UNL d   1     -42.261  13.533  21.000  0.00  0.00     0.299 C 
ATOM      3  O   UNL d   1     -42.081  13.395  20.239  0.00  0.00    -0.263 OA
ENDROOT
BRANCH   1   4
ATOM      4  C   UNL d   1     -41.079  14.385  21.074  0.00  0.00     0.121 A 
ATOM      5  C   UNL d   1     -41.051  15.114  20.657  0.00  0.00     0.102 A 
ATOM      6  N   UNL d   1     -40.278  15.223  20.398  0.00  0.00    -0.227 N 
ATOM      7  C   UNL d   1     -41.693  15.627  20.533  0.00  0.00     0.022 C 
ATOM      8  N   UNL d   1     -39.818  14.568  20.649  0.00  0.00    -0.164 NA
ATOM      9  C   UNL d   1     -40.325  14.049  21.070  0.00  0.00     0.120 A 
ATOM     10  C   UNL d   1     -40.121  13.318  21.429  0.00  0.00     0.024 C 
BRANCH   6  11
ATOM     11  C   UNL d   1     -40.082  15.921  19.956  0.00  0.00     0.101 C 
BRANCH  11  12
ATOM     12  C   UNL d   1     -39.547  15.867  19.317  0.00  0.00     0.019 A 
ATOM     13  C   UNL d   1     -38.730  15.922  19.449  0.00  0.00     0.002 A 
ATOM     14  C   UNL d   1     -38.189  15.869  18.815  0.00  0.00     0.000 A 
ATOM     15  C   UNL d   1     -38.483  15.759  18.029  0.00  0.00     0.000 A 
ATOM     16  C   UNL d   1     -39.283  15.705  17.899  0.00  0.00     0.000 A 
ATOM     17  C   UNL d   1     -37.967  15.702  17.374  0.00  0.00     0.000 C 
ATOM     18  C   UNL d   1     -39.829  15.758  18.537  0.00  0.00     0.002 A 
ENDBRANCH  11  12
ENDBRANCH   6  11
ENDBRANCH   1   4
BRANCH   2  19
ATOM     19  C   UNL d   1     -43.508  12.910  21.719  0.00  0.00     0.168 A 
ATOM     20  N   UNL d   1     -43.589  12.187  22.042  0.00  0.00    -0.121 NA
ATOM     21  O   UNL d   1     -44.315  12.125  22.339  0.00  0.00    -0.211 OA
ATOM     22  C   UNL d   1     -44.704  12.808  22.206  0.00  0.00     0.127 A 
ATOM     23  C   UNL d   1     -44.205  13.298  21.822  0.00  0.00     0.053 A 
BRANCH  22  24
ATOM     24  C   UNL d   1     -45.446  12.941  22.430  0.00  0.00     0.027 A 
ATOM     25  C   UNL d   1     -45.858  12.369  22.807  0.00  0.00     0.028 A 
ATOM     26  C   UNL d   1     -46.595  12.502  23.028  0.00  0.00     0.119 A 
ATOM     27  O   UNL d   1     -47.126  12.047  23.404  0.00  0.00    -0.300 OA
ATOM     28  C   UNL d   1     -46.951  13.197  22.887  0.00  0.00     0.119 A 
ATOM     29  C   UNL d   1     -47.796  12.459  23.491  0.00  0.00     0.304 A 
ATOM     30  O   UNL d   1     -47.686  13.173  23.169  0.00  0.00    -0.300 OA
ATOM     31  C   UNL d   1     -46.544  13.774  22.509  0.00  0.00     0.026 A 
ATOM     32  C   UNL d   1     -45.805  13.647  22.285  0.00  0.00     0.004 A 
ENDBRANCH  22  24
ENDBRANCH   2  19
TORSDOF 5
ENDMDL
