MODEL 1
REMARK VINA RESULT:       2.9      0.000      0.000
REMARK  2 active torsions:
REMARK  status: ('A' for Active; 'I' for Inactive)
REMARK    1  A    between atoms: N_2  and  C_1 
REMARK    2  A    between atoms: C_5  and  N_2 
ROOT
ATOM      1  C   UNL d   1     -55.127-102.805 -37.939  0.00  0.00     0.084 A 
ATOM      2  C   UNL d   1     -55.949-102.856 -37.935  0.00  0.00     0.019 A 
ATOM      3  C   UNL d   1     -54.713-102.777 -38.644  0.00  0.00     0.019 A 
ATOM      4  C   UNL d   1     -55.119-102.799 -39.362  0.00  0.00     0.001 A 
ATOM      5  C   UNL d   1     -56.361-102.879 -38.651  0.00  0.00     0.001 A 
ATOM      6  C   UNL d   1     -55.951-102.850 -39.368  0.00  0.00     0.000 A 
ENDROOT
BRANCH   1   7
ATOM      7  N   UNL d   1     -54.713-102.783 -37.225  0.00  0.00    -0.216 NA
BRANCH   7   8
ATOM      8  C   UNL d   1     -55.046-102.431 -36.564  0.00  0.00     0.241 C 
ATOM      9  S   UNL d   1     -54.722-101.750 -36.240  0.00  0.00    -0.036 SA
ATOM     10  N   UNL d   1     -55.717-102.767 -36.217  0.00  0.00    -0.114 N 
ENDBRANCH   7   8
ENDBRANCH   1   7
TORSDOF 2
ENDMDL
