MODEL 1
REMARK VINA RESULT:      -8.6      0.000      0.000
REMARK  5 active torsions:
REMARK  status: ('A' for Active; 'I' for Inactive)
REMARK    1  A    between atoms: N_2  and  S_1 
REMARK    2  A    between atoms: C_4  and  S_1 
REMARK    3  A    between atoms: S_8  and  C_3 
REMARK    4  A    between atoms: C_18  and  S_8 
REMARK    5  A    between atoms: C_17  and  C_18 
ROOT
ATOM      1  N   UNL d   1     -49.239  12.225  22.616  0.00  0.00    -0.208 N 
ATOM      2  C   UNL d   1     -48.496  12.100  22.967  0.00  0.00     0.189 A 
ATOM      3  N   UNL d   1     -48.602  11.617  23.631  0.00  0.00    -0.219 NA
ATOM      4  C   UNL d   1     -49.806  11.816  23.067  0.00  0.00     0.114 A 
ATOM      5  C   UNL d   1     -49.411  11.444  23.689  0.00  0.00     0.121 A 
ENDROOT
BRANCH   1   6
ATOM      6  S   UNL d   1     -49.384  12.678  21.937  0.00  0.00     0.273 S 
ATOM      7  O   UNL d   1     -49.397  12.941  21.153  0.00  0.00    -0.200 OA
ATOM      8  O   UNL d   1     -48.968  12.113  21.515  0.00  0.00    -0.200 OA
BRANCH   6   9
ATOM      9  C   UNL d   1     -49.807  13.258  22.347  0.00  0.00     0.104 A 
ATOM     10  C   UNL d   1     -49.466  13.997  22.460  0.00  0.00     0.013 A 
ATOM     11  C   UNL d   1     -49.891  14.575  22.870  0.00  0.00     0.001 A 
ATOM     12  C   UNL d   1     -49.550  15.318  22.985  0.00  0.00     0.000 A 
ATOM     13  C   UNL d   1     -50.645  14.413  23.160  0.00  0.00     0.000 A 
ATOM     14  C   UNL d   1     -49.966  15.902  23.393  0.00  0.00     0.000 A 
ATOM     15  C   UNL d   1     -50.725  15.741  23.686  0.00  0.00     0.000 A 
ATOM     16  C   UNL d   1     -51.061  15.001  23.570  0.00  0.00     0.000 A 
ATOM     17  C   UNL d   1     -50.985  13.670  23.045  0.00  0.00     0.001 A 
ATOM     18  C   UNL d   1     -50.557  13.085  22.631  0.00  0.00     0.013 A 
ENDBRANCH   6   9
ENDBRANCH   1   6
BRANCH   2  19
ATOM     19  S   UNL d   1     -47.772  12.408  22.697  0.00  0.00    -0.049 SA
BRANCH  19  20
ATOM     20  C   UNL d   1     -47.073  12.218  23.093  0.00  0.00     0.040 C 
BRANCH  20  21
ATOM     21  C   UNL d   1     -46.362  12.553  22.849  0.00  0.00     0.026 A 
ATOM     22  C   UNL d   1     -45.651  12.108  22.899  0.00  0.00     0.099 A 
ATOM     23  N   UNL d   1     -44.934  12.427  22.660  0.00  0.00    -0.242 NA
ATOM     24  C   UNL d   1     -44.923  13.198  22.368  0.00  0.00     0.099 A 
ATOM     25  C   UNL d   1     -45.616  13.639  22.317  0.00  0.00     0.021 A 
ATOM     26  C   UNL d   1     -46.335  13.314  22.558  0.00  0.00     0.004 A 
ENDBRANCH  20  21
ENDBRANCH  19  20
ENDBRANCH   2  19
TORSDOF 5
ENDMDL
MODEL 2
REMARK VINA RESULT:      -6.8      1.605      2.513
REMARK  5 active torsions:
REMARK  status: ('A' for Active; 'I' for Inactive)
REMARK    1  A    between atoms: N_2  and  S_1 
REMARK    2  A    between atoms: C_4  and  S_1 
REMARK    3  A    between atoms: S_8  and  C_3 
REMARK    4  A    between atoms: C_18  and  S_8 
REMARK    5  A    between atoms: C_17  and  C_18 
ROOT
ATOM      1  N   UNL d   1     -47.574  13.476  22.250  0.00  0.00    -0.208 N 
ATOM      2  C   UNL d   1     -46.790  13.595  22.500  0.00  0.00     0.189 A 
ATOM      3  N   UNL d   1     -46.788  14.194  23.071  0.00  0.00    -0.219 NA
ATOM      4  C   UNL d   1     -48.058  14.007  22.671  0.00  0.00     0.114 A 
ATOM      5  C   UNL d   1     -47.572  14.445  23.173  0.00  0.00     0.121 A 
ENDROOT
BRANCH   1   6
ATOM      6  S   UNL d   1     -47.824  12.926  21.683  0.00  0.00     0.273 S 
ATOM      7  O   UNL d   1     -47.901  12.500  20.978  0.00  0.00    -0.200 OA
ATOM      8  O   UNL d   1     -47.286  13.266  21.169  0.00  0.00    -0.200 OA
BRANCH   6   9
ATOM      9  C   UNL d   1     -48.373  12.571  22.189  0.00  0.00     0.104 A 
ATOM     10  C   UNL d   1     -49.166  12.782  22.132  0.00  0.00     0.013 A 
ATOM     11  C   UNL d   1     -49.712  12.425  22.640  0.00  0.00     0.001 A 
ATOM     12  C   UNL d   1     -50.508  12.635  22.585  0.00  0.00     0.000 A 
ATOM     13  C   UNL d   1     -49.466  11.866  23.193  0.00  0.00     0.000 A 
ATOM     14  C   UNL d   1     -51.061  12.285  23.086  0.00  0.00     0.000 A 
ATOM     15  C   UNL d   1     -50.816  11.722  23.644  0.00  0.00     0.000 A 
ATOM     16  C   UNL d   1     -50.023  11.515  23.696  0.00  0.00     0.000 A 
ATOM     17  C   UNL d   1     -48.670  11.656  23.248  0.00  0.00     0.001 A 
ATOM     18  C   UNL d   1     -48.116  12.016  22.736  0.00  0.00     0.013 A 
ENDBRANCH   6   9
ENDBRANCH   1   6
BRANCH   2  19
ATOM     19  S   UNL d   1     -46.124  13.182  22.223  0.00  0.00    -0.049 SA
BRANCH  19  20
ATOM     20  C   UNL d   1     -45.386  13.315  22.569  0.00  0.00     0.040 C 
BRANCH  20  21
ATOM     21  C   UNL d   1     -44.721  12.933  22.272  0.00  0.00     0.026 A 
ATOM     22  C   UNL d   1     -44.462  12.212  22.618  0.00  0.00     0.099 A 
ATOM     23  N   UNL d   1     -43.800  11.819  22.333  0.00  0.00    -0.242 NA
ATOM     24  C   UNL d   1     -43.391  12.146  21.697  0.00  0.00     0.099 A 
ATOM     25  C   UNL d   1     -43.640  12.851  21.354  0.00  0.00     0.021 A 
ATOM     26  C   UNL d   1     -44.305  13.243  21.643  0.00  0.00     0.004 A 
ENDBRANCH  20  21
ENDBRANCH  19  20
ENDBRANCH   2  19
TORSDOF 5
ENDMDL
MODEL 3
REMARK VINA RESULT:      -6.5      1.595      2.161
REMARK  5 active torsions:
REMARK  status: ('A' for Active; 'I' for Inactive)
REMARK    1  A    between atoms: N_2  and  S_1 
REMARK    2  A    between atoms: C_4  and  S_1 
REMARK    3  A    between atoms: S_8  and  C_3 
REMARK    4  A    between atoms: C_18  and  S_8 
REMARK    5  A    between atoms: C_17  and  C_18 
ROOT
ATOM      1  N   UNL d   1     -47.365  12.972  23.187  0.00  0.00    -0.208 N 
ATOM      2  C   UNL d   1     -46.710  12.468  23.102  0.00  0.00     0.189 A 
ATOM      3  N   UNL d   1     -46.910  11.729  23.417  0.00  0.00    -0.219 NA
ATOM      4  C   UNL d   1     -47.973  12.540  23.557  0.00  0.00     0.114 A 
ATOM      5  C   UNL d   1     -47.689  11.778  23.696  0.00  0.00     0.121 A 
ENDROOT
BRANCH   1   6
ATOM      6  S   UNL d   1     -47.403  13.764  22.945  0.00  0.00     0.273 S 
ATOM      7  O   UNL d   1     -47.225  14.565  22.837  0.00  0.00    -0.200 OA
ATOM      8  O   UNL d   1     -46.707  13.885  23.358  0.00  0.00    -0.200 OA
BRANCH   6   9
ATOM      9  C   UNL d   1     -48.106  13.660  22.522  0.00  0.00     0.104 A 
ATOM     10  C   UNL d   1     -48.805  13.967  22.827  0.00  0.00     0.013 A 
ATOM     11  C   UNL d   1     -49.506  13.861  22.402  0.00  0.00     0.001 A 
ATOM     12  C   UNL d   1     -50.210  14.168  22.705  0.00  0.00     0.000 A 
ATOM     13  C   UNL d   1     -49.504  13.454  21.686  0.00  0.00     0.000 A 
ATOM     14  C   UNL d   1     -50.915  14.068  22.290  0.00  0.00     0.000 A 
ATOM     15  C   UNL d   1     -50.915  13.659  21.568  0.00  0.00     0.000 A 
ATOM     16  C   UNL d   1     -50.214  13.355  21.269  0.00  0.00     0.000 A 
ATOM     17  C   UNL d   1     -48.801  13.147  21.383  0.00  0.00     0.001 A 
ATOM     18  C   UNL d   1     -48.091  13.253  21.810  0.00  0.00     0.013 A 
ENDBRANCH   6   9
ENDBRANCH   1   6
BRANCH   2  19
ATOM     19  S   UNL d   1     -45.981  12.672  22.760  0.00  0.00    -0.049 SA
BRANCH  19  20
ATOM     20  C   UNL d   1     -45.394  12.098  22.673  0.00  0.00     0.040 C 
BRANCH  20  21
ATOM     21  C   UNL d   1     -44.687  12.290  22.299  0.00  0.00     0.026 A 
ATOM     22  C   UNL d   1     -43.980  11.885  22.505  0.00  0.00     0.099 A 
ATOM     23  N   UNL d   1     -43.267  12.064  22.141  0.00  0.00    -0.242 NA
ATOM     24  C   UNL d   1     -43.256  12.654  21.565  0.00  0.00     0.099 A 
ATOM     25  C   UNL d   1     -43.944  13.054  21.359  0.00  0.00     0.021 A 
ATOM     26  C   UNL d   1     -44.659  12.871  21.727  0.00  0.00     0.004 A 
ENDBRANCH  20  21
ENDBRANCH  19  20
ENDBRANCH   2  19
TORSDOF 5
ENDMDL
MODEL 4
REMARK VINA RESULT:      -5.7      1.700      4.823
REMARK  5 active torsions:
REMARK  status: ('A' for Active; 'I' for Inactive)
REMARK    1  A    between atoms: N_2  and  S_1 
REMARK    2  A    between atoms: C_4  and  S_1 
REMARK    3  A    between atoms: S_8  and  C_3 
REMARK    4  A    between atoms: C_18  and  S_8 
REMARK    5  A    between atoms: C_17  and  C_18 
ROOT
ATOM      1  N   UNL d   1     -46.860  13.059  22.265  0.00  0.00    -0.208 N 
ATOM      2  C   UNL d   1     -47.654  13.210  22.071  0.00  0.00     0.189 A 
ATOM      3  N   UNL d   1     -47.809  12.868  21.333  0.00  0.00    -0.219 NA
ATOM      4  C   UNL d   1     -46.524  12.622  21.642  0.00  0.00     0.114 A 
ATOM      5  C   UNL d   1     -47.110  12.507  21.072  0.00  0.00     0.121 A 
ENDROOT
BRANCH   1   6
ATOM      6  S   UNL d   1     -46.476  13.303  22.957  0.00  0.00     0.273 S 
ATOM      7  O   UNL d   1     -46.184  13.771  23.574  0.00  0.00    -0.200 OA
ATOM      8  O   UNL d   1     -46.733  14.061  22.790  0.00  0.00    -0.200 OA
BRANCH   6   9
ATOM      9  C   UNL d   1     -46.207  12.543  23.142  0.00  0.00     0.104 A 
ATOM     10  C   UNL d   1     -45.432  12.337  22.959  0.00  0.00     0.013 A 
ATOM     11  C   UNL d   1     -45.166  11.577  23.145  0.00  0.00     0.001 A 
ATOM     12  C   UNL d   1     -44.389  11.368  22.963  0.00  0.00     0.000 A 
ATOM     13  C   UNL d   1     -45.669  11.035  23.508  0.00  0.00     0.000 A 
ATOM     14  C   UNL d   1     -44.113  10.612  23.144  0.00  0.00     0.000 A 
ATOM     15  C   UNL d   1     -44.618  10.064  23.509  0.00  0.00     0.000 A 
ATOM     16  C   UNL d   1     -45.391  10.276  23.689  0.00  0.00     0.000 A 
ATOM     17  C   UNL d   1     -46.446  11.244  23.690  0.00  0.00     0.001 A 
ATOM     18  C   UNL d   1     -46.717  12.012  23.503  0.00  0.00     0.013 A 
ENDBRANCH   6   9
ENDBRANCH   1   6
BRANCH   2  19
ATOM     19  S   UNL d   1     -48.197  13.631  22.538  0.00  0.00    -0.049 SA
BRANCH  19  20
ATOM     20  C   UNL d   1     -48.934  13.835  22.226  0.00  0.00     0.040 C 
BRANCH  20  21
ATOM     21  C   UNL d   1     -49.429  14.341  22.645  0.00  0.00     0.026 A 
ATOM     22  C   UNL d   1     -49.904  14.041  23.270  0.00  0.00     0.099 A 
ATOM     23  N   UNL d   1     -50.402  14.533  23.698  0.00  0.00    -0.242 NA
ATOM     24  C   UNL d   1     -50.430  15.333  23.501  0.00  0.00     0.099 A 
ATOM     25  C   UNL d   1     -49.968  15.633  22.890  0.00  0.00     0.021 A 
ATOM     26  C   UNL d   1     -49.468  15.135  22.463  0.00  0.00     0.004 A 
ENDBRANCH  20  21
ENDBRANCH  19  20
ENDBRANCH   2  19
TORSDOF 5
ENDMDL
