MODEL 1
REMARK VINA RESULT:      10.0      0.000      0.000
REMARK  2 active torsions:
REMARK  status: ('A' for Active; 'I' for Inactive)
REMARK    1  A    between atoms: C_5  and  N_2 
REMARK    2  A    between atoms: C_4  and  C_5 
ROOT
ATOM      1  C   UNL d   1     -53.509  24.299  33.370  0.00  0.00     0.206 A 
ATOM      2  N   UNL d   1     -52.718  24.546  33.340  0.00  0.00    -0.279 N 
ATOM      3  N   UNL d   1     -53.515  23.464  33.366  0.00  0.00    -0.215 NA
ATOM      4  C   UNL d   1     -52.733  23.210  33.333  0.00  0.00     0.120 A 
ATOM      5  C   UNL d   1     -52.240  23.873  33.317  0.00  0.00     0.103 A 
ATOM      6  S   UNL d   1     -54.173  24.791  33.399  0.00  0.00    -0.038 SA
ENDROOT
BRANCH   2   7
ATOM      7  C   UNL d   1     -52.452  25.333  33.333  0.00  0.00     0.089 C 
BRANCH   7   8
ATOM      8  C   UNL d   1     -51.649  25.494  33.328  0.00  0.00     0.047 A 
ATOM      9  S   UNL d   1     -51.046  24.936  33.311  0.00  0.00    -0.085 SA
ATOM     10  C   UNL d   1     -50.322  25.335  33.311  0.00  0.00     0.035 A 
ATOM     11  C   UNL d   1     -50.487  26.147  33.327  0.00  0.00     0.007 A 
ATOM     12  C   UNL d   1     -51.304  26.243  33.337  0.00  0.00     0.009 A 
ENDBRANCH   7   8
ENDBRANCH   2   7
TORSDOF 2
ENDMDL
