MODEL 1
REMARK VINA RESULT:      -8.8      0.000      0.000
REMARK  5 active torsions:
REMARK  status: ('A' for Active; 'I' for Inactive)
REMARK    1  A    between atoms: C_9  and  N_1 
REMARK    2  A    between atoms: C_10  and  C_2 
REMARK    3  A    between atoms: C_3  and  C_11 
REMARK    4  A    between atoms: O_14  and  C_9 
REMARK    5  A    between atoms: C_11  and  O_14 
ROOT
ATOM      1  C   UNL d   1      53.369  33.741  53.458  0.00  0.00     0.305 C 
ATOM      2  O   UNL d   1      53.878  33.909  52.826  0.00  0.00    -0.259 OA
ENDROOT
BRANCH   1   3
ATOM      3  C   UNL d   1      53.011  34.356  53.869  0.00  0.00     0.108 A 
ATOM      4  C   UNL d   1      52.283  34.705  53.693  0.00  0.00     0.116 A 
ATOM      5  N   UNL d   1      52.146  35.291  54.242  0.00  0.00    -0.126 NA
ATOM      6  O   UNL d   1      52.778  35.314  54.761  0.00  0.00    -0.211 OA
ATOM      7  C   UNL d   1      53.315  34.733  54.528  0.00  0.00     0.132 A 
ATOM      8  C   UNL d   1      54.036  34.560  54.895  0.00  0.00     0.029 C 
BRANCH   4   9
ATOM      9  C   UNL d   1      51.785  34.495  53.069  0.00  0.00     0.031 A 
ATOM     10  C   UNL d   1      51.045  34.179  53.230  0.00  0.00     0.059 A 
ATOM     11 CL   UNL d   1      50.802  34.074  53.995  0.00  0.00    -0.082 Cl
ATOM     12  C   UNL d   1      50.554  33.972  52.612  0.00  0.00     0.011 A 
ATOM     13  C   UNL d   1      50.797  34.077  51.826  0.00  0.00     0.001 A 
ATOM     14  C   UNL d   1      51.537  34.392  51.665  0.00  0.00     0.000 A 
ATOM     15  C   UNL d   1      52.035  34.603  52.289  0.00  0.00     0.002 A 
ENDBRANCH   4   9
ENDBRANCH   1   3
BRANCH   1  16
ATOM     16  O   UNL d   1      53.222  32.956  53.673  0.00  0.00    -0.252 OA
BRANCH  16  17
ATOM     17  C   UNL d   1      53.711  32.351  53.387  0.00  0.00     0.216 C 
BRANCH  17  18
ATOM     18  N   UNL d   1      53.508  31.560  53.518  0.00  0.00    -0.218 N 
ATOM     19  C   UNL d   1      53.659  31.132  54.200  0.00  0.00     0.269 A 
ATOM     20  C   UNL d   1      53.364  30.366  54.096  0.00  0.00     0.061 A 
ATOM     21  O   UNL d   1      54.042  31.413  54.880  0.00  0.00    -0.267 OA
ATOM     22  C   UNL d   1      53.354  29.701  54.583  0.00  0.00     0.005 A 
ATOM     23  C   UNL d   1      53.029  30.327  53.342  0.00  0.00     0.061 A 
ATOM     24  C   UNL d   1      53.014  29.004  54.321  0.00  0.00     0.000 A 
ATOM     25  C   UNL d   1      52.679  28.965  53.567  0.00  0.00     0.000 A 
ATOM     26  C   UNL d   1      52.683  29.624  53.073  0.00  0.00     0.005 A 
ATOM     27  C   UNL d   1      53.116  31.070  52.977  0.00  0.00     0.269 A 
ATOM     28  O   UNL d   1      52.862  31.277  52.224  0.00  0.00    -0.267 OA
ENDBRANCH  17  18
ENDBRANCH  16  17
ENDBRANCH   1  16
TORSDOF 5
ENDMDL
MODEL 2
REMARK VINA RESULT:      -8.1      1.524      4.381
REMARK  5 active torsions:
REMARK  status: ('A' for Active; 'I' for Inactive)
REMARK    1  A    between atoms: C_9  and  N_1 
REMARK    2  A    between atoms: C_10  and  C_2 
REMARK    3  A    between atoms: C_3  and  C_11 
REMARK    4  A    between atoms: O_14  and  C_9 
REMARK    5  A    between atoms: C_11  and  O_14 
ROOT
ATOM      1  C   UNL d   1      53.198  32.728  52.965  0.00  0.00     0.305 C 
ATOM      2  O   UNL d   1      53.754  33.047  52.439  0.00  0.00    -0.259 OA
ENDROOT
BRANCH   1   3
ATOM      3  C   UNL d   1      53.381  32.048  53.389  0.00  0.00     0.108 A 
ATOM      4  C   UNL d   1      53.896  31.996  54.033  0.00  0.00     0.116 A 
ATOM      5  N   UNL d   1      53.911  31.220  54.280  0.00  0.00    -0.126 NA
ATOM      6  O   UNL d   1      53.412  30.784  53.800  0.00  0.00    -0.211 OA
ATOM      7  C   UNL d   1      53.084  31.300  53.247  0.00  0.00     0.132 A 
ATOM      8  C   UNL d   1      52.546  31.098  52.650  0.00  0.00     0.029 C 
BRANCH   4   9
ATOM      9  C   UNL d   1      54.319  32.622  54.364  0.00  0.00     0.031 A 
ATOM     10  C   UNL d   1      54.211  32.810  55.156  0.00  0.00     0.059 A 
ATOM     11 CL   UNL d   1      53.693  32.386  55.610  0.00  0.00    -0.082 Cl
ATOM     12  C   UNL d   1      54.631  33.429  55.482  0.00  0.00     0.011 A 
ATOM     13  C   UNL d   1      55.163  33.867  55.021  0.00  0.00     0.001 A 
ATOM     14  C   UNL d   1      55.271  33.679  54.231  0.00  0.00     0.000 A 
ATOM     15  C   UNL d   1      54.848  33.053  53.898  0.00  0.00     0.002 A 
ENDBRANCH   4   9
ENDBRANCH   1   3
BRANCH   1  16
ATOM     16  O   UNL d   1      52.463  33.094  53.061  0.00  0.00    -0.252 OA
BRANCH  16  17
ATOM     17  C   UNL d   1      52.291  33.790  52.646  0.00  0.00     0.216 C 
BRANCH  17  18
ATOM     18  N   UNL d   1      51.519  34.088  52.644  0.00  0.00    -0.218 N 
ATOM     19  C   UNL d   1      51.129  34.415  53.286  0.00  0.00     0.269 A 
ATOM     20  C   UNL d   1      50.371  34.641  53.041  0.00  0.00     0.061 A 
ATOM     21  O   UNL d   1      51.435  34.504  54.052  0.00  0.00    -0.267 OA
ATOM     22  C   UNL d   1      49.740  34.994  53.436  0.00  0.00     0.005 A 
ATOM     23  C   UNL d   1      50.300  34.451  52.240  0.00  0.00     0.061 A 
ATOM     24  C   UNL d   1      49.043  35.155  53.037  0.00  0.00     0.000 A 
ATOM     25  C   UNL d   1      48.972  34.965  52.236  0.00  0.00     0.000 A 
ATOM     26  C   UNL d   1      49.597  34.613  51.833  0.00  0.00     0.005 A 
ATOM     27  C   UNL d   1      51.013  34.106  51.987  0.00  0.00     0.269 A 
ATOM     28  O   UNL d   1      51.184  33.834  51.231  0.00  0.00    -0.267 OA
ENDBRANCH  17  18
ENDBRANCH  16  17
ENDBRANCH   1  16
TORSDOF 5
ENDMDL
MODEL 3
REMARK VINA RESULT:      -7.2      1.050      2.259
REMARK  5 active torsions:
REMARK  status: ('A' for Active; 'I' for Inactive)
REMARK    1  A    between atoms: C_9  and  N_1 
REMARK    2  A    between atoms: C_10  and  C_2 
REMARK    3  A    between atoms: C_3  and  C_11 
REMARK    4  A    between atoms: O_14  and  C_9 
REMARK    5  A    between atoms: C_11  and  O_14 
ROOT
ATOM      1  C   UNL d   1      53.073  33.359  52.977  0.00  0.00     0.305 C 
ATOM      2  O   UNL d   1      53.577  33.416  52.321  0.00  0.00    -0.259 OA
ENDROOT
BRANCH   1   3
ATOM      3  C   UNL d   1      52.796  34.043  53.339  0.00  0.00     0.108 A 
ATOM      4  C   UNL d   1      53.140  34.430  53.984  0.00  0.00     0.116 A 
ATOM      5  N   UNL d   1      52.683  35.080  54.159  0.00  0.00    -0.126 NA
ATOM      6  O   UNL d   1      52.056  35.107  53.634  0.00  0.00    -0.211 OA
ATOM      7  C   UNL d   1      52.128  34.462  53.126  0.00  0.00     0.132 A 
ATOM      8  C   UNL d   1      51.614  34.270  52.505  0.00  0.00     0.029 C 
BRANCH   4   9
ATOM      9  C   UNL d   1      53.827  34.195  54.377  0.00  0.00     0.031 A 
ATOM     10  C   UNL d   1      53.781  33.944  55.157  0.00  0.00     0.059 A 
ATOM     11 CL   UNL d   1      53.068  33.925  55.540  0.00  0.00    -0.082 Cl
ATOM     12  C   UNL d   1      54.461  33.712  55.544  0.00  0.00     0.011 A 
ATOM     13  C   UNL d   1      55.194  33.729  55.157  0.00  0.00     0.001 A 
ATOM     14  C   UNL d   1      55.240  33.980  54.378  0.00  0.00     0.000 A 
ATOM     15  C   UNL d   1      54.553  34.215  53.984  0.00  0.00     0.002 A 
ENDBRANCH   4   9
ENDBRANCH   1   3
BRANCH   1  16
ATOM     16  O   UNL d   1      52.852  32.616  53.264  0.00  0.00    -0.252 OA
BRANCH  16  17
ATOM     17  C   UNL d   1      52.969  31.941  52.798  0.00  0.00     0.216 C 
BRANCH  17  18
ATOM     18  N   UNL d   1      52.993  31.195  53.152  0.00  0.00    -0.218 N 
ATOM     19  C   UNL d   1      53.670  30.772  53.336  0.00  0.00     0.269 A 
ATOM     20  C   UNL d   1      53.443  30.056  53.682  0.00  0.00     0.061 A 
ATOM     21  O   UNL d   1      54.451  31.016  53.201  0.00  0.00    -0.267 OA
ATOM     22  C   UNL d   1      53.873  29.417  53.975  0.00  0.00     0.005 A 
ATOM     23  C   UNL d   1      52.617  30.042  53.709  0.00  0.00     0.061 A 
ATOM     24  C   UNL d   1      53.484  28.769  54.292  0.00  0.00     0.000 A 
ATOM     25  C   UNL d   1      52.659  28.756  54.319  0.00  0.00     0.000 A 
ATOM     26  C   UNL d   1      52.221  29.389  54.029  0.00  0.00     0.005 A 
ATOM     27  C   UNL d   1      52.331  30.750  53.380  0.00  0.00     0.269 A 
ATOM     28  O   UNL d   1      51.543  30.967  53.296  0.00  0.00    -0.267 OA
ENDBRANCH  17  18
ENDBRANCH  16  17
ENDBRANCH   1  16
TORSDOF 5
ENDMDL
MODEL 4
REMARK VINA RESULT:      -6.8      1.510      4.124
REMARK  5 active torsions:
REMARK  status: ('A' for Active; 'I' for Inactive)
REMARK    1  A    between atoms: C_9  and  N_1 
REMARK    2  A    between atoms: C_10  and  C_2 
REMARK    3  A    between atoms: C_3  and  C_11 
REMARK    4  A    between atoms: O_14  and  C_9 
REMARK    5  A    between atoms: C_11  and  O_14 
ROOT
ATOM      1  C   UNL d   1      53.328  33.364  53.496  0.00  0.00     0.305 C 
ATOM      2  O   UNL d   1      53.839  33.484  52.855  0.00  0.00    -0.259 OA
ENDROOT
BRANCH   1   3
ATOM      3  C   UNL d   1      53.604  32.991  54.175  0.00  0.00     0.108 A 
ATOM      4  C   UNL d   1      53.591  32.179  54.328  0.00  0.00     0.116 A 
ATOM      5  N   UNL d   1      53.920  32.057  55.063  0.00  0.00    -0.126 NA
ATOM      6  O   UNL d   1      54.139  32.782  55.374  0.00  0.00    -0.211 OA
ATOM      7  C   UNL d   1      53.942  33.361  54.821  0.00  0.00     0.132 A 
ATOM      8  C   UNL d   1      54.065  34.175  54.903  0.00  0.00     0.029 C 
BRANCH   4   9
ATOM      9  C   UNL d   1      53.296  31.597  53.823  0.00  0.00     0.031 A 
ATOM     10  C   UNL d   1      53.818  31.115  53.412  0.00  0.00     0.059 A 
ATOM     11 CL   UNL d   1      54.617  31.207  53.501  0.00  0.00    -0.082 Cl
ATOM     12  C   UNL d   1      53.524  30.540  52.913  0.00  0.00     0.011 A 
ATOM     13  C   UNL d   1      52.706  30.441  52.818  0.00  0.00     0.001 A 
ATOM     14  C   UNL d   1      52.185  30.923  53.229  0.00  0.00     0.000 A 
ATOM     15  C   UNL d   1      52.480  31.505  53.734  0.00  0.00     0.002 A 
ENDBRANCH   4   9
ENDBRANCH   1   3
BRANCH   1  16
ATOM     16  O   UNL d   1      52.542  33.618  53.452  0.00  0.00    -0.252 OA
BRANCH  16  17
ATOM     17  C   UNL d   1      52.337  34.239  52.944  0.00  0.00     0.216 C 
BRANCH  17  18
ATOM     18  N   UNL d   1      51.544  34.365  52.745  0.00  0.00    -0.218 N 
ATOM     19  C   UNL d   1      50.977  34.706  53.228  0.00  0.00     0.269 A 
ATOM     20  C   UNL d   1      50.261  34.725  52.812  0.00  0.00     0.061 A 
ATOM     21  O   UNL d   1      51.094  34.985  54.000  0.00  0.00    -0.267 OA
ATOM     22  C   UNL d   1      49.509  35.000  53.010  0.00  0.00     0.005 A 
ATOM     23  C   UNL d   1      50.395  34.393  52.068  0.00  0.00     0.061 A 
ATOM     24  C   UNL d   1      48.896  34.943  52.470  0.00  0.00     0.000 A 
ATOM     25  C   UNL d   1      49.030  34.610  51.726  0.00  0.00     0.000 A 
ATOM     26  C   UNL d   1      49.777  34.333  51.520  0.00  0.00     0.005 A 
ATOM     27  C   UNL d   1      51.194  34.166  52.021  0.00  0.00     0.269 A 
ATOM     28  O   UNL d   1      51.564  33.813  51.378  0.00  0.00    -0.267 OA
ENDBRANCH  17  18
ENDBRANCH  16  17
ENDBRANCH   1  16
TORSDOF 5
ENDMDL
