MODEL 1
REMARK VINA RESULT:      12.7      0.000      0.000
REMARK  1 active torsions:
REMARK  status: ('A' for Active; 'I' for Inactive)
REMARK    1  A    between atoms: C_2  and  C_1 
ROOT
ATOM      1  C   UNL d   1      43.816 -15.489  36.795  0.00  0.00     0.089 A 
ATOM      2  C   UNL d   1      44.276 -16.130  36.566  0.00  0.00     0.302 A 
ATOM      3  C   UNL d   1      44.176 -14.779  37.035  0.00  0.00     0.009 A 
ATOM      4  O   UNL d   1      45.100 -16.068  36.576  0.00  0.00    -0.273 OA
ATOM      5  C   UNL d   1      45.003 -14.726  37.041  0.00  0.00     0.023 A 
ATOM      6  C   UNL d   1      45.462 -15.367  36.813  0.00  0.00     0.103 A 
ATOM      7  O   UNL d   1      43.899 -16.828  36.330  0.00  0.00    -0.259 OA
ATOM      8  C   UNL d   1      45.361 -14.017  37.282  0.00  0.00     0.002 A 
ATOM      9  C   UNL d   1      46.285 -15.306  36.823  0.00  0.00     0.025 A 
ATOM     10  C   UNL d   1      46.187 -13.965  37.288  0.00  0.00     0.000 A 
ATOM     11  C   UNL d   1      46.646 -14.606  37.059  0.00  0.00     0.002 A 
ENDROOT
BRANCH   1  12
ATOM     12  C   UNL d   1      42.986 -15.555  36.784  0.00  0.00     0.140 A 
ATOM     13  S   UNL d   1      42.467 -16.044  36.376  0.00  0.00    -0.024 SA
ATOM     14  C   UNL d   1      41.709 -15.843  36.599  0.00  0.00     0.236 A 
ATOM     15  N   UNL d   1      40.997 -16.190  36.330  0.00  0.00    -0.118 N 
ATOM     16  N   UNL d   1      41.739 -15.241  37.137  0.00  0.00    -0.119 NA
ATOM     17  N   UNL d   1      42.529 -15.051  37.261  0.00  0.00    -0.139 NA
ENDBRANCH   1  12
TORSDOF 1
ENDMDL
MODEL 2
REMARK VINA RESULT:      15.4      7.549      7.952
REMARK  1 active torsions:
REMARK  status: ('A' for Active; 'I' for Inactive)
REMARK    1  A    between atoms: C_2  and  C_1 
ROOT
ATOM      1  C   UNL d   1      46.144 -18.161  43.600  0.00  0.00     0.089 A 
ATOM      2  C   UNL d   1      46.144 -18.861  44.028  0.00  0.00     0.302 A 
ATOM      3  C   UNL d   1      46.268 -18.171  42.778  0.00  0.00     0.009 A 
ATOM      4  O   UNL d   1      46.269 -19.580  43.639  0.00  0.00    -0.273 OA
ATOM      5  C   UNL d   1      46.392 -18.896  42.397  0.00  0.00     0.023 A 
ATOM      6  C   UNL d   1      46.393 -19.596  42.825  0.00  0.00     0.103 A 
ATOM      7  O   UNL d   1      46.019 -18.831  44.846  0.00  0.00    -0.259 OA
ATOM      8  C   UNL d   1      46.516 -18.905  41.576  0.00  0.00     0.002 A 
ATOM      9  C   UNL d   1      46.517 -20.314  42.437  0.00  0.00     0.025 A 
ATOM     10  C   UNL d   1      46.640 -19.629  41.196  0.00  0.00     0.000 A 
ATOM     11  C   UNL d   1      46.641 -20.330  41.624  0.00  0.00     0.002 A 
ENDROOT
BRANCH   1  12
ATOM     12  C   UNL d   1      46.018 -17.439  43.996  0.00  0.00     0.140 A 
ATOM     13  S   UNL d   1      45.529 -16.795  43.848  0.00  0.00    -0.024 SA
ATOM     14  C   UNL d   1      45.653 -16.248  44.440  0.00  0.00     0.236 A 
ATOM     15  N   UNL d   1      45.279 -15.504  44.522  0.00  0.00    -0.118 N 
ATOM     16  N   UNL d   1      46.206 -16.532  44.955  0.00  0.00    -0.119 NA
ATOM     17  N   UNL d   1      46.443 -17.273  44.691  0.00  0.00    -0.139 NA
ENDBRANCH   1  12
TORSDOF 1
ENDMDL
