MODEL 1
REMARK VINA RESULT:      -9.4      0.000      0.000
REMARK  3 active torsions:
REMARK  status: ('A' for Active; 'I' for Inactive)
REMARK    1  A    between atoms: C_3  and  S_1 
REMARK    2  A    between atoms: N_4  and  S_1 
REMARK       I    between atoms: C_2  and  N_5 
REMARK       I    between atoms: N_6  and  C_2 
REMARK    3  A    between atoms: C_13  and  N_6 
ROOT
ATOM      1  C   UNL d   1      48.753  35.015  51.935  0.00  0.00     0.339 C 
ATOM      2  N   UNL d   1      50.958  34.163  52.694  0.00  0.00    -0.226 N 
ATOM      3  N   UNL d   1      49.484  34.734  52.192  0.00  0.00    -0.254 N 
ATOM      4  N   UNL d   1      48.235  35.382  52.468  0.00  0.00    -0.257 N 
ATOM      5  C   UNL d   1      50.454  34.525  53.238  0.00  0.00     0.111 A 
ATOM      6  C   UNL d   1      50.726  34.085  51.896  0.00  0.00     0.111 A 
ATOM      7  O   UNL d   1      48.529  34.934  51.135  0.00  0.00    -0.245 OA
ATOM      8  C   UNL d   1      49.709  34.814  52.984  0.00  0.00     0.104 A 
ATOM      9  C   UNL d   1      49.993  34.369  51.646  0.00  0.00     0.104 A 
ATOM     10  C   UNL d   1      48.460  35.460  53.257  0.00  0.00     0.104 C 
ENDROOT
BRANCH   2  11
ATOM     11  S   UNL d   1      51.684  33.882  52.942  0.00  0.00     0.271 S 
ATOM     12  O   UNL d   1      51.379  33.760  53.699  0.00  0.00    -0.200 OA
ATOM     13  O   UNL d   1      51.989  34.003  52.185  0.00  0.00    -0.200 OA
BRANCH  11  14
ATOM     14  C   UNL d   1      52.417  33.598  53.192  0.00  0.00     0.104 A 
ATOM     15  C   UNL d   1      52.582  32.796  53.157  0.00  0.00     0.012 A 
ATOM     16  C   UNL d   1      53.304  32.516  53.403  0.00  0.00     0.001 A 
ATOM     17  C   UNL d   1      52.009  32.275  52.871  0.00  0.00     0.001 C 
ATOM     18  C   UNL d   1      53.873  33.038  53.688  0.00  0.00     0.000 A 
ATOM     19  C   UNL d   1      53.708  33.840  53.723  0.00  0.00     0.001 A 
ATOM     20  C   UNL d   1      54.606  32.754  53.938  0.00  0.00     0.000 C 
ATOM     21  C   UNL d   1      52.982  34.122  53.476  0.00  0.00     0.012 A 
ATOM     22  C   UNL d   1      52.811  34.930  53.508  0.00  0.00     0.001 C 
ENDBRANCH  11  14
ENDBRANCH   2  11
BRANCH   4  23
ATOM     23  C   UNL d   1      47.499  35.664  52.206  0.00  0.00     0.068 A 
ATOM     24  C   UNL d   1      47.018  35.211  51.708  0.00  0.00     0.018 A 
ATOM     25  C   UNL d   1      46.296  35.499  51.456  0.00  0.00     0.002 A 
ATOM     26  C   UNL d   1      46.043  36.251  51.700  0.00  0.00     0.000 A 
ATOM     27  C   UNL d   1      46.522  36.709  52.199  0.00  0.00     0.002 A 
ATOM     28  C   UNL d   1      45.313  36.535  51.442  0.00  0.00     0.000 C 
ATOM     29  C   UNL d   1      47.249  36.407  52.447  0.00  0.00     0.018 A 
ENDBRANCH   4  23
TORSDOF 3
ENDMDL
MODEL 2
REMARK VINA RESULT:      -6.9      0.996      5.853
REMARK  3 active torsions:
REMARK  status: ('A' for Active; 'I' for Inactive)
REMARK    1  A    between atoms: C_3  and  S_1 
REMARK    2  A    between atoms: N_4  and  S_1 
REMARK       I    between atoms: C_2  and  N_5 
REMARK       I    between atoms: N_6  and  C_2 
REMARK    3  A    between atoms: C_13  and  N_6 
ROOT
ATOM      1  C   UNL d   1      51.063  34.051  52.408  0.00  0.00     0.339 C 
ATOM      2  N   UNL d   1      48.806  35.052  52.138  0.00  0.00    -0.226 N 
ATOM      3  N   UNL d   1      50.312  34.384  52.323  0.00  0.00    -0.254 N 
ATOM      4  N   UNL d   1      51.379  33.920  53.163  0.00  0.00    -0.257 N 
ATOM      5  C   UNL d   1      49.107  34.928  52.896  0.00  0.00     0.111 A 
ATOM      6  C   UNL d   1      49.259  34.841  51.468  0.00  0.00     0.111 A 
ATOM      7  O   UNL d   1      51.508  33.843  51.734  0.00  0.00    -0.245 OA
ATOM      8  C   UNL d   1      49.869  34.591  52.990  0.00  0.00     0.104 A 
ATOM      9  C   UNL d   1      50.008  34.509  51.561  0.00  0.00     0.104 A 
ATOM     10  C   UNL d   1      50.936  34.127  53.825  0.00  0.00     0.104 C 
ENDROOT
BRANCH   2  11
ATOM     11  S   UNL d   1      48.064  35.381  52.046  0.00  0.00     0.271 S 
ATOM     12  O   UNL d   1      47.727  34.720  52.405  0.00  0.00    -0.200 OA
ATOM     13  O   UNL d   1      48.402  36.043  51.687  0.00  0.00    -0.200 OA
BRANCH  11  14
ATOM     14  C   UNL d   1      47.315  35.714  51.954  0.00  0.00     0.104 A 
ATOM     15  C   UNL d   1      46.841  35.492  51.324  0.00  0.00     0.012 A 
ATOM     16  C   UNL d   1      46.102  35.820  51.233  0.00  0.00     0.001 A 
ATOM     17  C   UNL d   1      47.118  34.934  50.782  0.00  0.00     0.001 C 
ATOM     18  C   UNL d   1      45.829  36.376  51.774  0.00  0.00     0.000 A 
ATOM     19  C   UNL d   1      46.303  36.598  52.405  0.00  0.00     0.001 A 
ATOM     20  C   UNL d   1      45.079  36.708  51.682  0.00  0.00     0.000 C 
ATOM     21  C   UNL d   1      47.045  36.269  52.496  0.00  0.00     0.012 A 
ATOM     22  C   UNL d   1      47.528  36.489  53.131  0.00  0.00     0.001 C 
ENDBRANCH  11  14
ENDBRANCH   2  11
BRANCH   4  23
ATOM     23  C   UNL d   1      52.135  33.585  53.244  0.00  0.00     0.068 A 
ATOM     24  C   UNL d   1      52.252  32.768  53.181  0.00  0.00     0.018 A 
ATOM     25  C   UNL d   1      52.999  32.449  53.262  0.00  0.00     0.002 A 
ATOM     26  C   UNL d   1      53.647  32.948  53.409  0.00  0.00     0.000 A 
ATOM     27  C   UNL d   1      53.534  33.767  53.473  0.00  0.00     0.002 A 
ATOM     28  C   UNL d   1      54.399  32.619  53.490  0.00  0.00     0.000 C 
ATOM     29  C   UNL d   1      52.775  34.077  53.389  0.00  0.00     0.018 A 
ENDBRANCH   4  23
TORSDOF 3
ENDMDL
