MODEL 1
REMARK VINA RESULT:      13.2      0.000      0.000
REMARK  2 active torsions:
REMARK  status: ('A' for Active; 'I' for Inactive)
REMARK    1  A    between atoms: C_3  and  C_1 
REMARK       I    between atoms: N_6  and  C_3 
REMARK    2  A    between atoms: C_11  and  N_6 
ROOT
ATOM      1  C   UNL d   1      46.284 -17.957  43.729  0.00  0.00     0.121 A 
ATOM      2  C   UNL d   1      46.308 -18.609  44.109  0.00  0.00     0.305 A 
ATOM      3  C   UNL d   1      46.354 -17.948  42.909  0.00  0.00     0.012 A 
ATOM      4  O   UNL d   1      46.412 -19.387  43.694  0.00  0.00    -0.273 OA
ATOM      5  C   UNL d   1      46.452 -18.637  42.470  0.00  0.00     0.023 A 
ATOM      6  C   UNL d   1      46.481 -19.366  42.868  0.00  0.00     0.103 A 
ATOM      7  O   UNL d   1      46.239 -18.648  44.955  0.00  0.00    -0.259 OA
ATOM      8  C   UNL d   1      46.519 -18.616  41.663  0.00  0.00     0.002 A 
ATOM      9  C   UNL d   1      46.577 -20.059  42.451  0.00  0.00     0.025 A 
ATOM     10  C   UNL d   1      46.617 -19.309  41.227  0.00  0.00     0.000 A 
ATOM     11  C   UNL d   1      46.647 -20.038  41.625  0.00  0.00     0.002 A 
ENDROOT
BRANCH   1  12
ATOM     12  C   UNL d   1      46.186 -17.250  44.154  0.00  0.00     0.284 C 
ATOM     13  N   UNL d   1      45.866 -16.672  43.821  0.00  0.00    -0.208 NA
ATOM     14  O   UNL d   1      46.442 -17.196  44.934  0.00  0.00    -0.265 OA
BRANCH  13  15
ATOM     15  C   UNL d   1      45.726 -15.902  44.192  0.00  0.00     0.087 A 
ATOM     16  C   UNL d   1      46.240 -15.265  44.185  0.00  0.00     0.049 A 
ATOM     17  C   UNL d   1      46.052 -14.556  44.556  0.00  0.00     0.142 A 
ATOM     18  F   UNL d   1      46.568 -13.923  44.547  0.00  0.00    -0.204 F 
ATOM     19  C   UNL d   1      45.317 -14.488  44.950  0.00  0.00     0.030 A 
ATOM     20  C   UNL d   1      44.802 -15.132  44.955  0.00  0.00     0.004 A 
ATOM     21  C   UNL d   1      44.988 -15.834  44.587  0.00  0.00     0.019 A 
ENDBRANCH  13  15
ENDBRANCH   1  12
TORSDOF 2
ENDMDL
