MODEL 1
REMARK VINA RESULT:      84.6      0.000      0.000
REMARK  6 active torsions:
REMARK  status: ('A' for Active; 'I' for Inactive)
REMARK    1  A    between atoms: C_3  and  N_1 
REMARK       I    between atoms: C_4  and  N_1 
REMARK    2  A    between atoms: C_6  and  N_1 
REMARK    3  A    between atoms: N_2  and  C_3 
REMARK    4  A    between atoms: C_7  and  C_4 
REMARK    5  A    between atoms: O_14  and  C_16 
REMARK    6  A    between atoms: C_24  and  O_14 
ROOT
ATOM      1  N   UNL d   1     -50.344  26.567  34.571  0.00  0.00    -0.258 N 
ATOM      2  C   UNL d   1     -50.292  26.148  33.857  0.00  0.00     0.266 C 
ATOM      3  O   UNL d   1     -49.765  26.322  33.319  0.00  0.00    -0.267 OA
ENDROOT
BRANCH   1   4
ATOM      4  C   UNL d   1     -50.915  26.367  35.135  0.00  0.00     0.171 C 
BRANCH   4   5
ATOM      5  N   UNL d   1     -50.934  26.506  35.949  0.00  0.00    -0.257 N 
ATOM      6  C   UNL d   1     -51.595  26.673  36.410  0.00  0.00     0.266 A 
ATOM      7  O   UNL d   1     -52.378  26.732  36.134  0.00  0.00    -0.267 OA
ATOM      8  C   UNL d   1     -51.350  26.772  37.201  0.00  0.00     0.063 A 
ATOM      9  C   UNL d   1     -50.530  26.665  37.227  0.00  0.00     0.024 A 
ATOM     10  C   UNL d   1     -50.265  26.501  36.461  0.00  0.00     0.085 A 
ENDBRANCH   4   5
ENDBRANCH   1   4
BRANCH   1  11
ATOM     11  C   UNL d   1     -49.821  27.193  34.723  0.00  0.00     0.068 A 
ATOM     12  C   UNL d   1     -49.821  27.863  34.232  0.00  0.00     0.018 A 
ATOM     13  C   UNL d   1     -49.298  28.472  34.396  0.00  0.00     0.002 A 
ATOM     14  C   UNL d   1     -48.785  28.429  35.026  0.00  0.00     0.000 A 
ATOM     15  C   UNL d   1     -48.785  27.768  35.509  0.00  0.00     0.002 A 
ATOM     16  C   UNL d   1     -48.262  29.048  35.182  0.00  0.00     0.000 C 
ATOM     17  C   UNL d   1     -49.298  27.148  35.365  0.00  0.00     0.018 A 
ENDBRANCH   1  11
BRANCH   2  18
ATOM     18  C   UNL d   1     -50.817  25.530  33.719  0.00  0.00     0.057 A 
ATOM     19  C   UNL d   1     -50.585  24.752  33.853  0.00  0.00     0.007 A 
ATOM     20  C   UNL d   1     -51.101  24.132  33.718  0.00  0.00     0.025 A 
ATOM     21  C   UNL d   1     -51.866  24.286  33.444  0.00  0.00     0.100 A 
ATOM     22  C   UNL d   1     -52.103  25.079  33.307  0.00  0.00     0.025 A 
ATOM     23  C   UNL d   1     -51.579  25.688  33.445  0.00  0.00     0.007 A 
BRANCH  21  24
ATOM     24  O   UNL d   1     -52.376  23.676  33.310  0.00  0.00    -0.307 OA
BRANCH  24  25
ATOM     25  C   UNL d   1     -53.106  23.647  33.698  0.00  0.00     0.100 C 
ATOM     26  C   UNL d   1     -53.742  24.076  33.399  0.00  0.00     0.027 C 
ATOM     27  C   UNL d   1     -53.199  23.191  34.379  0.00  0.00     0.027 C 
ENDBRANCH  24  25
ENDBRANCH  21  24
ENDBRANCH   2  18
TORSDOF 6
ENDMDL
