MODEL 1
REMARK VINA RESULT:      -2.9      0.000      0.000
REMARK  1 active torsions:
REMARK  status: ('A' for Active; 'I' for Inactive)
REMARK    1  A    between atoms: C_6  and  C_1 
ROOT
ATOM      1  C   UNL d   1      32.411  21.776 -21.135  0.00  0.00     0.168 A 
ATOM      2  N   UNL d   1      31.790  22.106 -20.669  0.00  0.00    -0.142 NA
ATOM      3  C   UNL d   1      32.662  22.342 -21.670  0.00  0.00     0.045 A 
ATOM      4  N   UNL d   1      31.668  22.892 -20.936  0.00  0.00    -0.148 NA
ATOM      5  C   UNL d   1      32.205  23.042 -21.554  0.00  0.00     0.105 A 
ATOM      6  C   UNL d   1      33.190  22.494 -22.280  0.00  0.00     0.003 A 
ATOM      7  C   UNL d   1      32.461  23.618 -22.099  0.00  0.00     0.021 A 
ATOM      8  C   UNL d   1      33.090  23.259 -22.559  0.00  0.00     0.002 A 
ENDROOT
BRANCH   1   9
ATOM      9  C   UNL d   1      32.708  21.024 -21.063  0.00  0.00     0.231 C 
ATOM     10  O   UNL d   1      33.240  20.833 -20.462  0.00  0.00    -0.643 OA
ATOM     11  O   UNL d   1      32.509  20.400 -21.573  0.00  0.00    -0.643 OA
ENDBRANCH   1   9
TORSDOF 1
ENDMDL
MODEL 2
REMARK VINA RESULT:      -2.9      1.436      1.843
REMARK  1 active torsions:
REMARK  status: ('A' for Active; 'I' for Inactive)
REMARK    1  A    between atoms: C_6  and  C_1 
ROOT
ATOM      1  C   UNL d   1      32.328  22.337 -20.907  0.00  0.00     0.168 A 
ATOM      2  N   UNL d   1      31.900  22.970 -21.265  0.00  0.00    -0.142 NA
ATOM      3  C   UNL d   1      32.667  22.611 -20.215  0.00  0.00     0.045 A 
ATOM      4  N   UNL d   1      31.988  23.642 -20.769  0.00  0.00    -0.148 NA
ATOM      5  C   UNL d   1      32.462  23.424 -20.119  0.00  0.00     0.105 A 
ATOM      6  C   UNL d   1      33.134  22.400 -19.574  0.00  0.00     0.003 A 
ATOM      7  C   UNL d   1      32.808  23.702 -19.415  0.00  0.00     0.021 A 
ATOM      8  C   UNL d   1      33.236  23.042 -19.072  0.00  0.00     0.002 A 
ENDROOT
BRANCH   1   9
ATOM      9  C   UNL d   1      32.390  21.583 -21.202  0.00  0.00     0.231 C 
ATOM     10  O   UNL d   1      31.846  20.998 -20.996  0.00  0.00    -0.643 OA
ATOM     11  O   UNL d   1      32.991  21.341 -21.723  0.00  0.00    -0.643 OA
ENDBRANCH   1   9
TORSDOF 1
ENDMDL
MODEL 3
REMARK VINA RESULT:      -2.7      1.731      2.429
REMARK  1 active torsions:
REMARK  status: ('A' for Active; 'I' for Inactive)
REMARK    1  A    between atoms: C_6  and  C_1 
ROOT
ATOM      1  C   UNL d   1      32.427  22.895 -21.486  0.00  0.00     0.168 A 
ATOM      2  N   UNL d   1      32.887  23.101 -22.163  0.00  0.00    -0.142 NA
ATOM      3  C   UNL d   1      32.497  22.090 -21.360  0.00  0.00     0.045 A 
ATOM      4  N   UNL d   1      33.241  22.396 -22.448  0.00  0.00    -0.148 NA
ATOM      5  C   UNL d   1      33.002  21.769 -21.955  0.00  0.00     0.105 A 
ATOM      6  C   UNL d   1      32.265  21.469 -20.876  0.00  0.00     0.003 A 
ATOM      7  C   UNL d   1      33.074  20.949 -21.826  0.00  0.00     0.021 A 
ATOM      8  C   UNL d   1      32.599  20.766 -21.135  0.00  0.00     0.002 A 
ENDROOT
BRANCH   1   9
ATOM      9  C   UNL d   1      31.990  23.411 -21.037  0.00  0.00     0.231 C 
ATOM     10  O   UNL d   1      31.255  23.684 -21.296  0.00  0.00    -0.643 OA
ATOM     11  O   UNL d   1      32.237  23.701 -20.299  0.00  0.00    -0.643 OA
ENDBRANCH   1   9
TORSDOF 1
ENDMDL
MODEL 4
REMARK VINA RESULT:      -2.5      6.862      7.300
REMARK  1 active torsions:
REMARK  status: ('A' for Active; 'I' for Inactive)
REMARK    1  A    between atoms: C_6  and  C_1 
ROOT
ATOM      1  C   UNL d   1      29.138  15.928 -23.369  0.00  0.00     0.168 A 
ATOM      2  N   UNL d   1      29.441  15.453 -22.741  0.00  0.00    -0.142 NA
ATOM      3  C   UNL d   1      29.769  16.231 -23.793  0.00  0.00     0.045 A 
ATOM      4  N   UNL d   1      30.279  15.474 -22.794  0.00  0.00    -0.148 NA
ATOM      5  C   UNL d   1      30.485  15.954 -23.443  0.00  0.00     0.105 A 
ATOM      6  C   UNL d   1      29.977  16.703 -24.432  0.00  0.00     0.003 A 
ATOM      7  C   UNL d   1      31.127  16.262 -23.875  0.00  0.00     0.021 A 
ATOM      8  C   UNL d   1      30.793  16.739 -24.505  0.00  0.00     0.002 A 
ENDROOT
BRANCH   1   9
ATOM      9  C   UNL d   1      28.352  16.061 -23.524  0.00  0.00     0.231 C 
ATOM     10  O   UNL d   1      27.899  15.506 -23.933  0.00  0.00    -0.643 OA
ATOM     11  O   UNL d   1      27.948  16.748 -23.292  0.00  0.00    -0.643 OA
ENDBRANCH   1   9
TORSDOF 1
ENDMDL
MODEL 5
REMARK VINA RESULT:      -2.4      6.275      6.965
REMARK  1 active torsions:
REMARK  status: ('A' for Active; 'I' for Inactive)
REMARK    1  A    between atoms: C_6  and  C_1 
ROOT
ATOM      1  C   UNL d   1      30.019  17.022 -24.382  0.00  0.00     0.168 A 
ATOM      2  N   UNL d   1      29.533  17.629 -24.710  0.00  0.00    -0.142 NA
ATOM      3  C   UNL d   1      29.547  16.525 -23.936  0.00  0.00     0.045 A 
ATOM      4  N   UNL d   1      28.748  17.488 -24.450  0.00  0.00    -0.148 NA
ATOM      5  C   UNL d   1      28.752  16.806 -23.972  0.00  0.00     0.105 A 
ATOM      6  C   UNL d   1      29.547  15.853 -23.464  0.00  0.00     0.003 A 
ATOM      7  C   UNL d   1      28.272  16.299 -23.517  0.00  0.00     0.021 A 
ATOM      8  C   UNL d   1      28.788  15.694 -23.196  0.00  0.00     0.002 A 
ENDROOT
BRANCH   1   9
ATOM      9  C   UNL d   1      30.820  16.946 -24.492  0.00  0.00     0.231 C 
ATOM     10  O   UNL d   1      31.356  17.330 -23.996  0.00  0.00    -0.643 OA
ATOM     11  O   UNL d   1      31.160  16.489 -25.097  0.00  0.00    -0.643 OA
ENDBRANCH   1   9
TORSDOF 1
ENDMDL
MODEL 6
REMARK VINA RESULT:      -2.2      5.014      5.655
REMARK  1 active torsions:
REMARK  status: ('A' for Active; 'I' for Inactive)
REMARK    1  A    between atoms: C_6  and  C_1 
ROOT
ATOM      1  C   UNL d   1      31.494  16.886 -23.983  0.00  0.00     0.168 A 
ATOM      2  N   UNL d   1      31.107  17.284 -24.619  0.00  0.00    -0.142 NA
ATOM      3  C   UNL d   1      32.080  17.375 -23.689  0.00  0.00     0.045 A 
ATOM      4  N   UNL d   1      31.476  18.033 -24.705  0.00  0.00    -0.148 NA
ATOM      5  C   UNL d   1      32.077  18.093 -24.132  0.00  0.00     0.105 A 
ATOM      6  C   UNL d   1      32.673  17.439 -23.126  0.00  0.00     0.003 A 
ATOM      7  C   UNL d   1      32.674  18.591 -23.832  0.00  0.00     0.021 A 
ATOM      8  C   UNL d   1      33.050  18.165 -23.190  0.00  0.00     0.002 A 
ENDROOT
BRANCH   1   9
ATOM      9  C   UNL d   1      31.312  16.143 -23.711  0.00  0.00     0.231 C 
ATOM     10  O   UNL d   1      30.709  16.027 -23.160  0.00  0.00    -0.643 OA
ATOM     11  O   UNL d   1      31.707  15.455 -23.956  0.00  0.00    -0.643 OA
ENDBRANCH   1   9
TORSDOF 1
ENDMDL
MODEL 7
REMARK VINA RESULT:      -2.1      5.268      6.135
REMARK  1 active torsions:
REMARK  status: ('A' for Active; 'I' for Inactive)
REMARK    1  A    between atoms: C_6  and  C_1 
ROOT
ATOM      1  C   UNL d   1      31.829  17.411 -23.976  0.00  0.00     0.168 A 
ATOM      2  N   UNL d   1      31.480  17.939 -24.535  0.00  0.00    -0.142 NA
ATOM      3  C   UNL d   1      31.305  16.799 -23.835  0.00  0.00     0.045 A 
ATOM      4  N   UNL d   1      30.725  17.629 -24.732  0.00  0.00    -0.148 NA
ATOM      5  C   UNL d   1      30.613  16.925 -24.301  0.00  0.00     0.105 A 
ATOM      6  C   UNL d   1      31.191  16.105 -23.412  0.00  0.00     0.003 A 
ATOM      7  C   UNL d   1      30.080  16.302 -24.157  0.00  0.00     0.021 A 
ATOM      8  C   UNL d   1      30.457  15.782 -23.588  0.00  0.00     0.002 A 
ENDROOT
BRANCH   1   9
ATOM      9  C   UNL d   1      32.561  17.499 -23.637  0.00  0.00     0.231 C 
ATOM     10  O   UNL d   1      33.235  17.178 -23.988  0.00  0.00    -0.643 OA
ATOM     11  O   UNL d   1      32.693  17.908 -22.926  0.00  0.00    -0.643 OA
ENDBRANCH   1   9
TORSDOF 1
ENDMDL
MODEL 8
REMARK VINA RESULT:      -1.8      3.960      4.632
REMARK  1 active torsions:
REMARK  status: ('A' for Active; 'I' for Inactive)
REMARK    1  A    between atoms: C_6  and  C_1 
ROOT
ATOM      1  C   UNL d   1      32.847  18.994 -23.454  0.00  0.00     0.168 A 
ATOM      2  N   UNL d   1      33.237  19.486 -24.018  0.00  0.00    -0.142 NA
ATOM      3  C   UNL d   1      32.421  18.424 -23.857  0.00  0.00     0.045 A 
ATOM      4  N   UNL d   1      33.035  19.198 -24.781  0.00  0.00    -0.148 NA
ATOM      5  C   UNL d   1      32.531  18.542 -24.685  0.00  0.00     0.105 A 
ATOM      6  C   UNL d   1      31.923  17.777 -23.768  0.00  0.00     0.003 A 
ATOM      7  C   UNL d   1      32.097  17.961 -25.096  0.00  0.00     0.021 A 
ATOM      8  C   UNL d   1      31.712  17.477 -24.502  0.00  0.00     0.002 A 
ENDROOT
BRANCH   1   9
ATOM      9  C   UNL d   1      32.889  19.076 -22.647  0.00  0.00     0.231 C 
ATOM     10  O   UNL d   1      32.614  19.758 -22.273  0.00  0.00    -0.643 OA
ATOM     11  O   UNL d   1      33.203  18.495 -22.143  0.00  0.00    -0.643 OA
ENDBRANCH   1   9
TORSDOF 1
ENDMDL
MODEL 9
REMARK VINA RESULT:      -1.0      3.291      3.978
REMARK  1 active torsions:
REMARK  status: ('A' for Active; 'I' for Inactive)
REMARK    1  A    between atoms: C_6  and  C_1 
ROOT
ATOM      1  C   UNL d   1      32.885  19.072 -23.772  0.00  0.00     0.168 A 
ATOM      2  N   UNL d   1      32.812  18.277 -23.499  0.00  0.00    -0.142 NA
ATOM      3  C   UNL d   1      33.019  19.557 -23.127  0.00  0.00     0.045 A 
ATOM      4  N   UNL d   1      32.906  18.290 -22.665  0.00  0.00    -0.148 NA
ATOM      5  C   UNL d   1      33.034  19.079 -22.431  0.00  0.00     0.105 A 
ATOM      6  C   UNL d   1      33.145  20.333 -22.892  0.00  0.00     0.003 A 
ATOM      7  C   UNL d   1      33.171  19.573 -21.774  0.00  0.00     0.021 A 
ATOM      8  C   UNL d   1      33.241  20.372 -22.078  0.00  0.00     0.002 A 
ENDROOT
BRANCH   1   9
ATOM      9  C   UNL d   1      32.830  19.313 -24.545  0.00  0.00     0.231 C 
ATOM     10  O   UNL d   1      32.393  18.881 -25.096  0.00  0.00    -0.643 OA
ATOM     11  O   UNL d   1      33.199  19.996 -24.841  0.00  0.00    -0.643 OA
ENDBRANCH   1   9
TORSDOF 1
ENDMDL
