MODEL 1
REMARK VINA RESULT:       3.9      0.000      0.000
REMARK  5 active torsions:
REMARK  status: ('A' for Active; 'I' for Inactive)
REMARK       I    between atoms: C_3  and  N_1 
REMARK    1  A    between atoms: C_8  and  C_3 
REMARK    2  A    between atoms: S_4  and  N_9 
REMARK    3  A    between atoms: C_16  and  C_5 
REMARK    4  A    between atoms: C_10  and  C_6 
REMARK    5  A    between atoms: N_9  and  C_21 
ROOT
ATOM      1  N   UNL d   1     -41.523-121.592 -52.218  0.00  0.00    -0.193 N 
ATOM      2  N   UNL d   1     -41.524-121.673 -51.395  0.00  0.00    -0.163 NA
ATOM      3  C   UNL d   1     -41.419-120.885 -52.632  0.00  0.00     0.303 C 
ATOM      4  C   UNL d   1     -41.646-122.344 -52.544  0.00  0.00     0.088 A 
ATOM      5  C   UNL d   1     -41.646-122.467 -51.213  0.00  0.00     0.103 A 
ATOM      6  C   UNL d   1     -41.721-122.878 -51.925  0.00  0.00     0.040 A 
ATOM      7  O   UNL d   1     -41.433-120.896 -53.460  0.00  0.00    -0.263 OA
ENDROOT
BRANCH   5   8
ATOM      8  C   UNL d   1     -41.686-122.792 -50.459  0.00  0.00     0.019 A 
ATOM      9  C   UNL d   1     -42.133-122.414 -49.869  0.00  0.00     0.003 A 
ATOM     10  C   UNL d   1     -42.172-122.738 -49.119  0.00  0.00     0.020 A 
ATOM     11  C   UNL d   1     -41.769-123.438 -48.944  0.00  0.00     0.093 A 
ATOM     12  C   UNL d   1     -41.324-123.812 -49.534  0.00  0.00     0.020 A 
ATOM     13  C   UNL d   1     -41.284-123.485 -50.294  0.00  0.00     0.003 A 
BRANCH  11  14
ATOM     14  N   UNL d   1     -41.804-123.770 -48.191  0.00  0.00    -0.162 NA
BRANCH  14  15
ATOM     15  S   UNL d   1     -42.279-123.445 -47.609  0.00  0.00     0.266 S 
ATOM     16  O   UNL d   1     -42.458-122.983 -46.947  0.00  0.00    -0.203 OA
ATOM     17  O   UNL d   1     -41.562-123.093 -47.392  0.00  0.00    -0.203 OA
ATOM     18  C   UNL d   1     -43.003-123.783 -47.804  0.00  0.00     0.165 C 
ENDBRANCH  14  15
ENDBRANCH  11  14
ENDBRANCH   5   8
BRANCH   4  19
ATOM     19  C   UNL d   1     -41.685-122.516 -53.343  0.00  0.00     0.018 A 
ATOM     20  C   UNL d   1     -41.150-123.086 -53.672  0.00  0.00     0.002 A 
ATOM     21  C   UNL d   1     -41.242-123.209 -54.472  0.00  0.00     0.000 A 
ATOM     22  C   UNL d   1     -41.807-122.814 -54.929  0.00  0.00     0.000 A 
ATOM     23  C   UNL d   1     -42.303-122.284 -54.619  0.00  0.00     0.000 A 
ATOM     24  C   UNL d   1     -42.255-122.118 -53.808  0.00  0.00     0.002 A 
ENDBRANCH   4  19
BRANCH   3  25
ATOM     25  C   UNL d   1     -41.304-120.189 -52.229  0.00  0.00     0.158 A 
ATOM     26  O   UNL d   1     -41.233-120.108 -51.394  0.00  0.00    -0.300 OA
ATOM     27  C   UNL d   1     -41.123-119.306 -51.233  0.00  0.00     0.123 A 
ATOM     28  C   UNL d   1     -41.124-118.898 -51.945  0.00  0.00     0.029 A 
ATOM     29  C   UNL d   1     -41.236-119.455 -52.549  0.00  0.00     0.032 A 
ENDBRANCH   3  25
TORSDOF 5
ENDMDL
MODEL 2
REMARK VINA RESULT:       4.2      2.191      5.089
REMARK  5 active torsions:
REMARK  status: ('A' for Active; 'I' for Inactive)
REMARK       I    between atoms: C_3  and  N_1 
REMARK    1  A    between atoms: C_8  and  C_3 
REMARK    2  A    between atoms: S_4  and  N_9 
REMARK    3  A    between atoms: C_16  and  C_5 
REMARK    4  A    between atoms: C_10  and  C_6 
REMARK    5  A    between atoms: N_9  and  C_21 
ROOT
ATOM      1  N   UNL d   1     -42.729-122.694 -50.127  0.00  0.00    -0.193 N 
ATOM      2  N   UNL d   1     -42.757-122.631 -50.952  0.00  0.00    -0.163 NA
ATOM      3  C   UNL d   1     -43.367-122.589 -49.615  0.00  0.00     0.303 C 
ATOM      4  C   UNL d   1     -41.948-122.881 -49.917  0.00  0.00     0.088 A 
ATOM      5  C   UNL d   1     -42.002-122.777 -51.249  0.00  0.00     0.103 A 
ATOM      6  C   UNL d   1     -41.506-122.931 -50.607  0.00  0.00     0.040 A 
ATOM      7  O   UNL d   1     -43.247-122.672 -48.800  0.00  0.00    -0.263 OA
ENDROOT
BRANCH   5   8
ATOM      8  C   UNL d   1     -41.782-122.770 -52.041  0.00  0.00     0.019 A 
ATOM      9  C   UNL d   1     -41.638-123.487 -52.436  0.00  0.00     0.003 A 
ATOM     10  C   UNL d   1     -41.420-123.478 -53.224  0.00  0.00     0.020 A 
ATOM     11  C   UNL d   1     -41.342-122.763 -53.631  0.00  0.00     0.093 A 
ATOM     12  C   UNL d   1     -41.487-122.051 -53.233  0.00  0.00     0.020 A 
ATOM     13  C   UNL d   1     -41.708-122.058 -52.435  0.00  0.00     0.003 A 
BRANCH  11  14
ATOM     14  N   UNL d   1     -41.123-122.748 -54.424  0.00  0.00    -0.162 NA
BRANCH  14  15
ATOM     15  S   UNL d   1     -41.672-122.593 -55.010  0.00  0.00     0.266 S 
ATOM     16  O   UNL d   1     -42.033-122.161 -55.615  0.00  0.00    -0.203 OA
ATOM     17  O   UNL d   1     -41.224-121.900 -55.076  0.00  0.00    -0.203 OA
ATOM     18  C   UNL d   1     -42.133-123.273 -54.964  0.00  0.00     0.165 C 
ENDBRANCH  14  15
ENDBRANCH  11  14
ENDBRANCH   5   8
BRANCH   4  19
ATOM     19  C   UNL d   1     -41.676-122.994 -49.154  0.00  0.00     0.018 A 
ATOM     20  C   UNL d   1     -41.680-123.775 -48.823  0.00  0.00     0.002 A 
ATOM     21  C   UNL d   1     -41.396-123.817 -48.060  0.00  0.00     0.000 A 
ATOM     22  C   UNL d   1     -41.126-123.157 -47.641  0.00  0.00     0.000 A 
ATOM     23  C   UNL d   1     -41.123-122.433 -47.953  0.00  0.00     0.000 A 
ATOM     24  C   UNL d   1     -41.401-122.329 -48.727  0.00  0.00     0.002 A 
ENDBRANCH   4  19
BRANCH   3  25
ATOM     25  C   UNL d   1     -44.101-122.407 -49.909  0.00  0.00     0.158 A 
ATOM     26  O   UNL d   1     -44.342-121.656 -50.203  0.00  0.00    -0.300 OA
ATOM     27  C   UNL d   1     -45.129-121.726 -50.442  0.00  0.00     0.123 A 
ATOM     28  C   UNL d   1     -45.373-122.497 -50.303  0.00  0.00     0.029 A 
ATOM     29  C   UNL d   1     -44.729-122.904 -49.975  0.00  0.00     0.032 A 
ENDBRANCH   3  25
TORSDOF 5
ENDMDL
