MODEL 1
REMARK VINA RESULT:      -3.0      0.000      0.000
REMARK  4 active torsions:
REMARK  status: ('A' for Active; 'I' for Inactive)
REMARK    1  A    between atoms: N_6  and  C_1 
REMARK       I    between atoms: C_9  and  N_6 
REMARK    2  A    between atoms: C_12  and  C_9 
REMARK    3  A    between atoms: O_11  and  C_12 
REMARK    4  A    between atoms: C_15  and  O_11 
ROOT
ATOM      1  C   UNL d   1      29.998  16.418 -24.460  0.00  0.00     0.124 A 
ATOM      2  C   UNL d   1      29.407  16.481 -23.879  0.00  0.00     0.093 A 
ATOM      3  S   UNL d   1      29.903  17.050 -24.986  0.00  0.00    -0.067 SA
ATOM      4  C   UNL d   1      28.955  17.152 -24.055  0.00  0.00     0.018 A 
ATOM      5  C   UNL d   1      29.262  17.492 -24.728  0.00  0.00     0.032 A 
ATOM      6  C   UNL d   1      29.298  15.959 -23.241  0.00  0.00     0.103 C 
ATOM      7  N   UNL d   1      29.187  15.453 -22.616  0.00  0.00    -0.191 NA
ATOM      8  C   UNL d   1      28.306  17.421 -23.616  0.00  0.00     0.001 C 
ATOM      9  C   UNL d   1      28.973  18.179 -25.097  0.00  0.00     0.007 C 
ENDROOT
BRANCH   1  10
ATOM     10  N   UNL d   1      30.570  15.835 -24.503  0.00  0.00    -0.199 NA
ATOM     11  C   UNL d   1      31.363  16.042 -24.457  0.00  0.00     0.305 C 
ATOM     12  O   UNL d   1      31.942  15.453 -24.501  0.00  0.00    -0.263 OA
BRANCH  11  13
ATOM     13  C   UNL d   1      31.589  16.815 -24.370  0.00  0.00     0.185 C 
BRANCH  13  14
ATOM     14  O   UNL d   1      32.373  17.023 -24.315  0.00  0.00    -0.300 OA
BRANCH  14  15
ATOM     15  C   UNL d   1      32.601  17.748 -23.987  0.00  0.00     0.100 A 
ATOM     16  C   UNL d   1      32.775  18.377 -24.495  0.00  0.00     0.025 A 
ATOM     17  C   UNL d   1      32.999  19.090 -24.169  0.00  0.00     0.002 A 
ATOM     18  C   UNL d   1      33.051  19.178 -23.350  0.00  0.00     0.000 A 
ATOM     19  C   UNL d   1      32.877  18.550 -22.855  0.00  0.00     0.002 A 
ATOM     20  C   UNL d   1      32.651  17.832 -23.182  0.00  0.00     0.025 A 
ENDBRANCH  14  15
ENDBRANCH  13  14
ENDBRANCH  11  13
ENDBRANCH   1  10
TORSDOF 4
ENDMDL
MODEL 2
REMARK VINA RESULT:      -1.8      1.693      3.988
REMARK  4 active torsions:
REMARK  status: ('A' for Active; 'I' for Inactive)
REMARK    1  A    between atoms: N_6  and  C_1 
REMARK       I    between atoms: C_9  and  N_6 
REMARK    2  A    between atoms: C_12  and  C_9 
REMARK    3  A    between atoms: O_11  and  C_12 
REMARK    4  A    between atoms: C_15  and  O_11 
ROOT
ATOM      1  C   UNL d   1      31.823  17.493 -24.366  0.00  0.00     0.124 A 
ATOM      2  C   UNL d   1      32.352  17.573 -23.730  0.00  0.00     0.093 A 
ATOM      3  S   UNL d   1      31.835  16.700 -24.606  0.00  0.00    -0.067 SA
ATOM      4  C   UNL d   1      32.683  16.828 -23.585  0.00  0.00     0.018 A 
ATOM      5  C   UNL d   1      32.365  16.304 -24.120  0.00  0.00     0.032 A 
ATOM      6  C   UNL d   1      32.511  18.279 -23.320  0.00  0.00     0.103 C 
ATOM      7  N   UNL d   1      32.671  18.966 -22.916  0.00  0.00    -0.191 NA
ATOM      8  C   UNL d   1      33.240  16.659 -22.997  0.00  0.00     0.001 C 
ATOM      9  C   UNL d   1      32.547  15.495 -24.169  0.00  0.00     0.007 C 
ENDROOT
BRANCH   1  10
ATOM     10  N   UNL d   1      31.372  18.090 -24.696  0.00  0.00    -0.199 NA
ATOM     11  C   UNL d   1      30.560  17.996 -24.760  0.00  0.00     0.305 C 
ATOM     12  O   UNL d   1      30.104  18.600 -25.094  0.00  0.00    -0.263 OA
BRANCH  11  13
ATOM     13  C   UNL d   1      30.195  17.319 -24.503  0.00  0.00     0.185 C 
BRANCH  13  14
ATOM     14  O   UNL d   1      29.427  17.148 -24.706  0.00  0.00    -0.300 OA
BRANCH  14  15
ATOM     15  C   UNL d   1      28.942  16.703 -24.205  0.00  0.00     0.100 A 
ATOM     16  C   UNL d   1      28.382  17.097 -23.741  0.00  0.00     0.025 A 
ATOM     17  C   UNL d   1      27.904  16.656 -23.249  0.00  0.00     0.002 A 
ATOM     18  C   UNL d   1      27.982  15.835 -23.217  0.00  0.00     0.000 A 
ATOM     19  C   UNL d   1      28.539  15.453 -23.679  0.00  0.00     0.002 A 
ATOM     20  C   UNL d   1      29.020  15.896 -24.175  0.00  0.00     0.025 A 
ENDBRANCH  14  15
ENDBRANCH  13  14
ENDBRANCH  11  13
ENDBRANCH   1  10
TORSDOF 4
ENDMDL
MODEL 3
REMARK VINA RESULT:      -1.0      1.589      2.230
REMARK  4 active torsions:
REMARK  status: ('A' for Active; 'I' for Inactive)
REMARK    1  A    between atoms: N_6  and  C_1 
REMARK       I    between atoms: C_9  and  N_6 
REMARK    2  A    between atoms: C_12  and  C_9 
REMARK    3  A    between atoms: O_11  and  C_12 
REMARK    4  A    between atoms: C_15  and  O_11 
ROOT
ATOM      1  C   UNL d   1      29.389  17.485 -24.751  0.00  0.00     0.124 A 
ATOM      2  C   UNL d   1      28.792  17.457 -24.174  0.00  0.00     0.093 A 
ATOM      3  S   UNL d   1      29.445  16.733 -25.092  0.00  0.00    -0.067 SA
ATOM      4  C   UNL d   1      28.487  16.688 -24.167  0.00  0.00     0.018 A 
ATOM      5  C   UNL d   1      28.889  16.254 -24.727  0.00  0.00     0.032 A 
ATOM      6  C   UNL d   1      28.552  18.094 -23.695  0.00  0.00     0.103 C 
ATOM      7  N   UNL d   1      28.313  18.712 -23.225  0.00  0.00    -0.191 NA
ATOM      8  C   UNL d   1      27.880  16.418 -23.673  0.00  0.00     0.001 C 
ATOM      9  C   UNL d   1      28.757  15.453 -24.902  0.00  0.00     0.007 C 
ENDROOT
BRANCH   1  10
ATOM     10  N   UNL d   1      29.840  18.139 -24.945  0.00  0.00    -0.199 NA
ATOM     11  C   UNL d   1      30.659  18.095 -24.900  0.00  0.00     0.305 C 
ATOM     12  O   UNL d   1      31.115  18.756 -25.097  0.00  0.00    -0.263 OA
BRANCH  11  13
ATOM     13  C   UNL d   1      31.028  17.413 -24.665  0.00  0.00     0.185 C 
BRANCH  13  14
ATOM     14  O   UNL d   1      31.839  17.360 -24.634  0.00  0.00    -0.300 OA
BRANCH  14  15
ATOM     15  C   UNL d   1      32.211  16.751 -24.217  0.00  0.00     0.100 A 
ATOM     16  C   UNL d   1      32.343  16.846 -23.406  0.00  0.00     0.025 A 
ATOM     17  C   UNL d   1      32.710  16.244 -22.997  0.00  0.00     0.002 A 
ATOM     18  C   UNL d   1      32.944  15.556 -23.387  0.00  0.00     0.000 A 
ATOM     19  C   UNL d   1      32.810  15.469 -24.190  0.00  0.00     0.002 A 
ATOM     20  C   UNL d   1      32.440  16.074 -24.603  0.00  0.00     0.025 A 
ENDBRANCH  14  15
ENDBRANCH  13  14
ENDBRANCH  11  13
ENDBRANCH   1  10
TORSDOF 4
ENDMDL
MODEL 4
REMARK VINA RESULT:      -0.2      1.558      2.313
REMARK  4 active torsions:
REMARK  status: ('A' for Active; 'I' for Inactive)
REMARK    1  A    between atoms: N_6  and  C_1 
REMARK       I    between atoms: C_9  and  N_6 
REMARK    2  A    between atoms: C_12  and  C_9 
REMARK    3  A    between atoms: O_11  and  C_12 
REMARK    4  A    between atoms: C_15  and  O_11 
ROOT
ATOM      1  C   UNL d   1      31.498  17.384 -24.595  0.00  0.00     0.124 A 
ATOM      2  C   UNL d   1      31.468  16.654 -24.198  0.00  0.00     0.093 A 
ATOM      3  S   UNL d   1      30.763  17.753 -24.499  0.00  0.00    -0.067 SA
ATOM      4  C   UNL d   1      30.714  16.583 -23.863  0.00  0.00     0.018 A 
ATOM      5  C   UNL d   1      30.292  17.254 -24.049  0.00  0.00     0.032 A 
ATOM      6  C   UNL d   1      32.089  16.102 -24.154  0.00  0.00     0.103 C 
ATOM      7  N   UNL d   1      32.691  15.559 -24.106  0.00  0.00    -0.191 NA
ATOM      8  C   UNL d   1      30.448  15.938 -23.418  0.00  0.00     0.001 C 
ATOM      9  C   UNL d   1      29.508  17.409 -23.822  0.00  0.00     0.007 C 
ENDROOT
BRANCH   1  10
ATOM     10  N   UNL d   1      32.139  17.682 -25.005  0.00  0.00    -0.199 NA
ATOM     11  C   UNL d   1      32.593  18.278 -24.670  0.00  0.00     0.305 C 
ATOM     12  O   UNL d   1      33.241  18.580 -25.085  0.00  0.00    -0.263 OA
BRANCH  11  13
ATOM     13  C   UNL d   1      32.416  18.577 -23.938  0.00  0.00     0.185 C 
BRANCH  13  14
ATOM     14  O   UNL d   1      32.658  19.319 -23.713  0.00  0.00    -0.300 OA
BRANCH  14  15
ATOM     15  C   UNL d   1      32.842  19.489 -22.925  0.00  0.00     0.100 A 
ATOM     16  C   UNL d   1      32.801  20.274 -22.667  0.00  0.00     0.025 A 
ATOM     17  C   UNL d   1      32.983  20.439 -21.890  0.00  0.00     0.002 A 
ATOM     18  C   UNL d   1      33.202  19.833 -21.374  0.00  0.00     0.000 A 
ATOM     19  C   UNL d   1      33.241  19.059 -21.637  0.00  0.00     0.002 A 
ATOM     20  C   UNL d   1      33.058  18.892 -22.420  0.00  0.00     0.025 A 
ENDBRANCH  14  15
ENDBRANCH  13  14
ENDBRANCH  11  13
ENDBRANCH   1  10
TORSDOF 4
ENDMDL
