MODEL 1
REMARK VINA RESULT:       2.0      0.000      0.000
REMARK  5 active torsions:
REMARK  status: ('A' for Active; 'I' for Inactive)
REMARK    1  A    between atoms: C_2  and  S_1 
REMARK    2  A    between atoms: N_3  and  S_1 
REMARK    3  A    between atoms: C_21  and  N_8 
REMARK    4  A    between atoms: O_26  and  C_16 
REMARK    5  A    between atoms: C_19  and  C_21 
ROOT
ATOM      1  N   UNL d   1     -41.587-122.294 -51.594  0.00  0.00    -0.226 N 
ATOM      2  N   UNL d   1     -41.279-122.606 -50.003  0.00  0.00    -0.300 N 
ATOM      3  C   UNL d   1     -41.514-123.079 -51.326  0.00  0.00     0.111 A 
ATOM      4  C   UNL d   1     -41.504-121.674 -51.058  0.00  0.00     0.111 A 
ATOM      5  C   UNL d   1     -41.361-123.225 -50.529  0.00  0.00     0.100 A 
ATOM      6  C   UNL d   1     -41.352-121.820 -50.271  0.00  0.00     0.100 A 
ENDROOT
BRANCH   1   7
ATOM      7  S   UNL d   1     -41.740-122.149 -52.387  0.00  0.00     0.271 S 
ATOM      8  O   UNL d   1     -42.299-122.755 -52.399  0.00  0.00    -0.200 OA
ATOM      9  O   UNL d   1     -41.177-121.539 -52.376  0.00  0.00    -0.200 OA
BRANCH   7  10
ATOM     10  C   UNL d   1     -41.890-122.001 -53.179  0.00  0.00     0.104 A 
ATOM     11  C   UNL d   1     -41.685-122.556 -53.755  0.00  0.00     0.014 A 
ATOM     12  C   UNL d   1     -41.838-122.404 -54.553  0.00  0.00     0.023 A 
ATOM     13  C   UNL d   1     -41.326-123.265 -53.530  0.00  0.00     0.001 A 
ATOM     14  C   UNL d   1     -41.637-122.950 -55.120  0.00  0.00     0.002 A 
ATOM     15  C   UNL d   1     -42.198-121.694 -54.778  0.00  0.00     0.094 A 
ATOM     16  C   UNL d   1     -41.278-123.662 -54.905  0.00  0.00     0.000 A 
ATOM     17  C   UNL d   1     -41.123-123.817 -54.106  0.00  0.00     0.000 A 
ATOM     18  C   UNL d   1     -42.403-121.140 -54.205  0.00  0.00     0.025 A 
ATOM     19  C   UNL d   1     -42.252-121.286 -53.406  0.00  0.00     0.015 A 
BRANCH  15  20
ATOM     20  O   UNL d   1     -42.349-121.544 -55.566  0.00  0.00    -0.328 OA
ATOM     21  C   UNL d   1     -43.106-121.351 -55.807  0.00  0.00     0.181 C 
ENDBRANCH  15  20
ENDBRANCH   7  10
ENDBRANCH   1   7
BRANCH   2  22
ATOM     22  C   UNL d   1     -41.126-122.751 -49.205  0.00  0.00     0.080 C 
BRANCH  22  23
ATOM     23  C   UNL d   1     -41.734-122.955 -48.687  0.00  0.00     0.020 A 
ATOM     24  C   UNL d   1     -42.453-123.210 -48.974  0.00  0.00     0.028 A 
ATOM     25  C   UNL d   1     -43.059-123.414 -48.457  0.00  0.00     0.119 A 
ATOM     26  O   UNL d   1     -43.828-123.684 -48.582  0.00  0.00    -0.300 OA
ATOM     27  C   UNL d   1     -42.936-123.358 -47.635  0.00  0.00     0.119 A 
ATOM     28  C   UNL d   1     -44.180-123.795 -47.845  0.00  0.00     0.304 A 
ATOM     29  O   UNL d   1     -43.630-123.594 -47.266  0.00  0.00    -0.300 OA
ATOM     30  C   UNL d   1     -42.209-123.100 -47.351  0.00  0.00     0.026 A 
ATOM     31  C   UNL d   1     -41.610-122.899 -47.865  0.00  0.00     0.004 A 
ENDBRANCH  22  23
ENDBRANCH   2  22
TORSDOF 5
ENDMDL
