MODEL 1
REMARK VINA RESULT:      -2.3      0.000      0.000
REMARK  0 active torsions:
REMARK  status: ('A' for Active; 'I' for Inactive)
ROOT
ATOM      1  C   UNL d   1      24.477  12.244  -2.334  0.00  0.00     0.311 A 
ATOM      2  N   UNL d   1      24.768  12.944  -1.994  0.00  0.00    -0.202 NA
ATOM      3  S   UNL d   1      23.869  11.957  -1.860  0.00  0.00    -0.024 SA
ATOM      4  C   UNL d   1      24.329  13.085  -1.301  0.00  0.00     0.091 A 
ATOM      5  C   UNL d   1      23.776  12.478  -1.219  0.00  0.00     0.052 A 
ATOM      6  O   UNL d   1      24.756  11.895  -3.035  0.00  0.00    -0.258 OA
ATOM      7  C   UNL d   1      24.367  13.689  -0.740  0.00  0.00     0.020 A 
ATOM      8  C   UNL d   1      23.259  12.474  -0.576  0.00  0.00     0.008 A 
ATOM      9  C   UNL d   1      23.296  13.078  -0.014  0.00  0.00     0.001 A 
ATOM     10  C   UNL d   1      23.850  13.685  -0.096  0.00  0.00     0.002 A 
ENDROOT
TORSDOF 0
ENDMDL
MODEL 2
REMARK VINA RESULT:       0.5      1.900      2.424
REMARK  0 active torsions:
REMARK  status: ('A' for Active; 'I' for Inactive)
ROOT
ATOM      1  C   UNL d   1      22.571  13.236  -0.385  0.00  0.00     0.311 A 
ATOM      2  N   UNL d   1      22.559  12.962  -1.169  0.00  0.00    -0.202 NA
ATOM      3  S   UNL d   1      23.284  13.012  -0.041  0.00  0.00    -0.024 SA
ATOM      4  C   UNL d   1      23.278  12.564  -1.305  0.00  0.00     0.091 A 
ATOM      5  C   UNL d   1      23.723  12.595  -0.610  0.00  0.00     0.052 A 
ATOM      6  O   UNL d   1      21.963  13.665  -0.014  0.00  0.00    -0.258 OA
ATOM      7  C   UNL d   1      23.577  12.180  -1.971  0.00  0.00     0.020 A 
ATOM      8  C   UNL d   1      24.469  12.242  -0.582  0.00  0.00     0.008 A 
ATOM      9  C   UNL d   1      24.768  11.858  -1.248  0.00  0.00     0.001 A 
ATOM     10  C   UNL d   1      24.323  11.827  -1.943  0.00  0.00     0.002 A 
ENDROOT
TORSDOF 0
ENDMDL
