MODEL 1
REMARK VINA RESULT:      -3.1      0.000      0.000
REMARK  6 active torsions:
REMARK  status: ('A' for Active; 'I' for Inactive)
REMARK    1  A    between atoms: N_2  and  S_1 
REMARK    2  A    between atoms: C_4  and  S_1 
REMARK    3  A    between atoms: C_3  and  N_2 
REMARK    4  A    between atoms: N_7  and  C_3 
REMARK    5  A    between atoms: C_14  and  N_7 
REMARK    6  A    between atoms: C_15  and  C_13 
ROOT
ATOM      1  S   UNL d   1      33.048  20.007 -22.372  0.00  0.00     0.287 S 
ATOM      2  O   UNL d   1      32.876  19.600 -21.665  0.00  0.00    -0.198 OA
ATOM      3  O   UNL d   1      33.219  20.410 -23.072  0.00  0.00    -0.198 OA
ENDROOT
BRANCH   1   4
ATOM      4  N   UNL d   1      33.124  19.283 -22.770  0.00  0.00    -0.128 NA
BRANCH   4   5
ATOM      5  C   UNL d   1      32.870  18.777 -23.367  0.00  0.00     0.232 C 
ATOM      6  S   UNL d   1      33.241  18.786 -24.103  0.00  0.00    -0.036 SA
BRANCH   5   7
ATOM      7  N   UNL d   1      32.243  18.260 -23.226  0.00  0.00    -0.217 NA
BRANCH   7   8
ATOM      8  C   UNL d   1      32.263  17.500 -23.547  0.00  0.00     0.084 A 
ATOM      9  C   UNL d   1      31.728  17.296 -24.140  0.00  0.00     0.019 A 
ATOM     10  C   UNL d   1      31.745  16.539 -24.463  0.00  0.00     0.002 A 
ATOM     11  C   UNL d   1      32.292  15.988 -24.195  0.00  0.00     0.000 A 
ATOM     12  C   UNL d   1      32.826  16.193 -23.602  0.00  0.00     0.002 A 
ATOM     13  C   UNL d   1      32.813  16.947 -23.278  0.00  0.00     0.019 A 
ENDBRANCH   7   8
ENDBRANCH   5   7
ENDBRANCH   4   5
ENDBRANCH   1   4
BRANCH   1  14
ATOM     14  C   UNL d   1      32.973  20.734 -21.971  0.00  0.00     0.105 A 
ATOM     15  C   UNL d   1      32.629  20.751 -21.222  0.00  0.00     0.013 A 
ATOM     16  C   UNL d   1      32.550  21.474 -20.815  0.00  0.00     0.001 A 
ATOM     17  C   UNL d   1      32.818  22.181 -21.167  0.00  0.00     0.000 A 
ATOM     18  C   UNL d   1      33.163  22.157 -21.921  0.00  0.00     0.001 A 
ATOM     19  C   UNL d   1      33.241  21.441 -22.324  0.00  0.00     0.013 A 
BRANCH  17  20
ATOM     20  C   UNL d   1      32.742  22.899 -20.768  0.00  0.00     0.000 C 
ATOM     21  C   UNL d   1      32.108  23.386 -20.538  0.00  0.00     0.000 C 
ENDBRANCH  17  20
ENDBRANCH   1  14
TORSDOF 6
ENDMDL
MODEL 2
REMARK VINA RESULT:      -2.8      0.458      1.100
REMARK  6 active torsions:
REMARK  status: ('A' for Active; 'I' for Inactive)
REMARK    1  A    between atoms: N_2  and  S_1 
REMARK    2  A    between atoms: C_4  and  S_1 
REMARK    3  A    between atoms: C_3  and  N_2 
REMARK    4  A    between atoms: N_7  and  C_3 
REMARK    5  A    between atoms: C_14  and  N_7 
REMARK    6  A    between atoms: C_15  and  C_13 
ROOT
ATOM      1  S   UNL d   1      33.219  19.917 -22.447  0.00  0.00     0.287 S 
ATOM      2  O   UNL d   1      33.241  20.435 -23.100  0.00  0.00    -0.198 OA
ATOM      3  O   UNL d   1      33.197  19.405 -21.800  0.00  0.00    -0.198 OA
ENDROOT
BRANCH   1   4
ATOM      4  N   UNL d   1      33.241  19.267 -22.961  0.00  0.00    -0.128 NA
BRANCH   4   5
ATOM      5  C   UNL d   1      32.892  18.837 -23.570  0.00  0.00     0.232 C 
ATOM      6  S   UNL d   1      33.241  18.820 -24.318  0.00  0.00    -0.036 SA
BRANCH   5   7
ATOM      7  N   UNL d   1      32.192  18.425 -23.431  0.00  0.00    -0.217 NA
BRANCH   7   8
ATOM      8  C   UNL d   1      32.080  17.685 -23.780  0.00  0.00     0.084 A 
ATOM      9  C   UNL d   1      32.531  17.044 -23.526  0.00  0.00     0.019 A 
ATOM     10  C   UNL d   1      32.421  16.305 -23.871  0.00  0.00     0.002 A 
ATOM     11  C   UNL d   1      31.864  16.207 -24.467  0.00  0.00     0.000 A 
ATOM     12  C   UNL d   1      31.414  16.847 -24.719  0.00  0.00     0.002 A 
ATOM     13  C   UNL d   1      31.520  17.587 -24.378  0.00  0.00     0.019 A 
ENDBRANCH   7   8
ENDBRANCH   5   7
ENDBRANCH   4   5
ENDBRANCH   1   4
BRANCH   1  14
ATOM     14  C   UNL d   1      33.197  20.571 -21.930  0.00  0.00     0.105 A 
ATOM     15  C   UNL d   1      33.164  21.333 -22.241  0.00  0.00     0.013 A 
ATOM     16  C   UNL d   1      33.141  21.992 -21.731  0.00  0.00     0.001 A 
ATOM     17  C   UNL d   1      33.152  21.878 -20.905  0.00  0.00     0.000 A 
ATOM     18  C   UNL d   1      33.185  21.109 -20.598  0.00  0.00     0.001 A 
ATOM     19  C   UNL d   1      33.207  20.457 -21.104  0.00  0.00     0.013 A 
BRANCH  17  20
ATOM     20  C   UNL d   1      33.130  22.528 -20.396  0.00  0.00     0.000 C 
ATOM     21  C   UNL d   1      32.604  22.811 -19.817  0.00  0.00     0.000 C 
ENDBRANCH  17  20
ENDBRANCH   1  14
TORSDOF 6
ENDMDL
MODEL 3
REMARK VINA RESULT:      -1.6      2.088      3.114
REMARK  6 active torsions:
REMARK  status: ('A' for Active; 'I' for Inactive)
REMARK    1  A    between atoms: N_2  and  S_1 
REMARK    2  A    between atoms: C_4  and  S_1 
REMARK    3  A    between atoms: C_3  and  N_2 
REMARK    4  A    between atoms: N_7  and  C_3 
REMARK    5  A    between atoms: C_14  and  N_7 
REMARK    6  A    between atoms: C_15  and  C_13 
ROOT
ATOM      1  S   UNL d   1      32.724  21.821 -20.234  0.00  0.00     0.287 S 
ATOM      2  O   UNL d   1      33.236  21.237 -19.928  0.00  0.00    -0.198 OA
ATOM      3  O   UNL d   1      32.218  22.398 -20.536  0.00  0.00    -0.198 OA
ENDROOT
BRANCH   1   4
ATOM      4  N   UNL d   1      32.618  21.367 -20.920  0.00  0.00    -0.128 NA
BRANCH   4   5
ATOM      5  C   UNL d   1      32.935  21.039 -21.605  0.00  0.00     0.232 C 
ATOM      6  S   UNL d   1      32.946  21.475 -22.306  0.00  0.00    -0.036 SA
BRANCH   5   7
ATOM      7  N   UNL d   1      33.241  20.274 -21.589  0.00  0.00    -0.217 NA
BRANCH   7   8
ATOM      8  C   UNL d   1      33.194  19.803 -22.265  0.00  0.00     0.084 A 
ATOM      9  C   UNL d   1      33.101  18.988 -22.186  0.00  0.00     0.019 A 
ATOM     10  C   UNL d   1      33.054  18.515 -22.858  0.00  0.00     0.002 A 
ATOM     11  C   UNL d   1      33.099  18.854 -23.604  0.00  0.00     0.000 A 
ATOM     12  C   UNL d   1      33.193  19.667 -23.683  0.00  0.00     0.002 A 
ATOM     13  C   UNL d   1      33.240  20.143 -23.015  0.00  0.00     0.019 A 
ENDBRANCH   7   8
ENDBRANCH   5   7
ENDBRANCH   4   5
ENDBRANCH   1   4
BRANCH   1  14
ATOM     14  C   UNL d   1      32.832  22.276 -19.544  0.00  0.00     0.105 A 
ATOM     15  C   UNL d   1      32.637  23.077 -19.551  0.00  0.00     0.013 A 
ATOM     16  C   UNL d   1      32.742  23.539 -18.865  0.00  0.00     0.001 A 
ATOM     17  C   UNL d   1      33.045  23.189 -18.171  0.00  0.00     0.000 A 
ATOM     18  C   UNL d   1      33.238  22.382 -18.170  0.00  0.00     0.001 A 
ATOM     19  C   UNL d   1      33.134  21.926 -18.850  0.00  0.00     0.013 A 
BRANCH  17  20
ATOM     20  C   UNL d   1      33.150  23.642 -17.490  0.00  0.00     0.000 C 
ATOM     21  C   UNL d   1      32.772  23.701 -16.751  0.00  0.00     0.000 C 
ENDBRANCH  17  20
ENDBRANCH   1  14
TORSDOF 6
ENDMDL
MODEL 4
REMARK VINA RESULT:      -1.1      1.797      5.079
REMARK  6 active torsions:
REMARK  status: ('A' for Active; 'I' for Inactive)
REMARK    1  A    between atoms: N_2  and  S_1 
REMARK    2  A    between atoms: C_4  and  S_1 
REMARK    3  A    between atoms: C_3  and  N_2 
REMARK    4  A    between atoms: N_7  and  C_3 
REMARK    5  A    between atoms: C_14  and  N_7 
REMARK    6  A    between atoms: C_15  and  C_13 
ROOT
ATOM      1  S   UNL d   1      31.752  17.630 -24.251  0.00  0.00     0.287 S 
ATOM      2  O   UNL d   1      31.359  18.189 -24.729  0.00  0.00    -0.198 OA
ATOM      3  O   UNL d   1      32.140  17.077 -23.778  0.00  0.00    -0.198 OA
ENDROOT
BRANCH   1   4
ATOM      4  N   UNL d   1      32.427  18.112 -24.242  0.00  0.00    -0.128 NA
BRANCH   4   5
ATOM      5  C   UNL d   1      32.848  18.729 -23.896  0.00  0.00     0.232 C 
ATOM      6  S   UNL d   1      33.238  19.281 -24.370  0.00  0.00    -0.036 SA
BRANCH   5   7
ATOM      7  N   UNL d   1      32.880  18.794 -23.075  0.00  0.00    -0.217 NA
BRANCH   7   8
ATOM      8  C   UNL d   1      32.990  19.535 -22.729  0.00  0.00     0.084 A 
ATOM      9  C   UNL d   1      32.957  19.609 -21.909  0.00  0.00     0.019 A 
ATOM     10  C   UNL d   1      33.066  20.347 -21.561  0.00  0.00     0.002 A 
ATOM     11  C   UNL d   1      33.207  21.007 -22.029  0.00  0.00     0.000 A 
ATOM     12  C   UNL d   1      33.240  20.932 -22.847  0.00  0.00     0.002 A 
ATOM     13  C   UNL d   1      33.132  20.197 -23.199  0.00  0.00     0.019 A 
ENDBRANCH   7   8
ENDBRANCH   5   7
ENDBRANCH   4   5
ENDBRANCH   1   4
BRANCH   1  14
ATOM     14  C   UNL d   1      31.073  17.146 -24.261  0.00  0.00     0.105 A 
ATOM     15  C   UNL d   1      30.329  17.492 -24.345  0.00  0.00     0.013 A 
ATOM     16  C   UNL d   1      29.646  17.014 -24.356  0.00  0.00     0.001 A 
ATOM     17  C   UNL d   1      29.716  16.186 -24.281  0.00  0.00     0.000 A 
ATOM     18  C   UNL d   1      30.467  15.846 -24.197  0.00  0.00     0.001 A 
ATOM     19  C   UNL d   1      31.144  16.318 -24.187  0.00  0.00     0.013 A 
BRANCH  17  20
ATOM     20  C   UNL d   1      29.042  15.710 -24.292  0.00  0.00     0.000 C 
ATOM     21  C   UNL d   1      28.379  15.610 -23.800  0.00  0.00     0.000 C 
ENDBRANCH  17  20
ENDBRANCH   1  14
TORSDOF 6
ENDMDL
MODEL 5
REMARK VINA RESULT:      -0.4      2.671      3.974
REMARK  6 active torsions:
REMARK  status: ('A' for Active; 'I' for Inactive)
REMARK    1  A    between atoms: N_2  and  S_1 
REMARK    2  A    between atoms: C_4  and  S_1 
REMARK    3  A    between atoms: C_3  and  N_2 
REMARK    4  A    between atoms: N_7  and  C_3 
REMARK    5  A    between atoms: C_14  and  N_7 
REMARK    6  A    between atoms: C_15  and  C_13 
ROOT
ATOM      1  S   UNL d   1      31.657  17.132 -24.268  0.00  0.00     0.287 S 
ATOM      2  O   UNL d   1      31.791  17.035 -23.450  0.00  0.00    -0.198 OA
ATOM      3  O   UNL d   1      31.525  17.228 -25.076  0.00  0.00    -0.198 OA
ENDROOT
BRANCH   1   4
ATOM      4  N   UNL d   1      31.260  16.404 -24.289  0.00  0.00    -0.128 NA
BRANCH   4   5
ATOM      5  C   UNL d   1      30.793  15.844 -23.907  0.00  0.00     0.232 C 
ATOM      6  S   UNL d   1      31.041  15.517 -23.191  0.00  0.00    -0.036 SA
BRANCH   5   7
ATOM      7  N   UNL d   1      30.078  15.610 -24.243  0.00  0.00    -0.217 NA
BRANCH   7   8
ATOM      8  C   UNL d   1      29.370  15.787 -23.857  0.00  0.00     0.084 A 
ATOM      9  C   UNL d   1      29.217  15.457 -23.118  0.00  0.00     0.019 A 
ATOM     10  C   UNL d   1      28.512  15.632 -22.730  0.00  0.00     0.002 A 
ATOM     11  C   UNL d   1      27.963  16.133 -23.079  0.00  0.00     0.000 A 
ATOM     12  C   UNL d   1      28.117  16.462 -23.817  0.00  0.00     0.002 A 
ATOM     13  C   UNL d   1      28.819  16.290 -24.208  0.00  0.00     0.019 A 
ENDBRANCH   7   8
ENDBRANCH   5   7
ENDBRANCH   4   5
ENDBRANCH   1   4
BRANCH   1  14
ATOM     14  C   UNL d   1      32.056  17.864 -24.245  0.00  0.00     0.105 A 
ATOM     15  C   UNL d   1      31.731  18.515 -24.634  0.00  0.00     0.013 A 
ATOM     16  C   UNL d   1      32.124  19.250 -24.616  0.00  0.00     0.001 A 
ATOM     17  C   UNL d   1      32.846  19.326 -24.205  0.00  0.00     0.000 A 
ATOM     18  C   UNL d   1      33.166  18.667 -23.817  0.00  0.00     0.001 A 
ATOM     19  C   UNL d   1      32.778  17.940 -23.834  0.00  0.00     0.013 A 
BRANCH  17  20
ATOM     20  C   UNL d   1      33.238  20.052 -24.185  0.00  0.00     0.000 C 
ATOM     21  C   UNL d   1      33.132  20.773 -23.784  0.00  0.00     0.000 C 
ENDBRANCH  17  20
ENDBRANCH   1  14
TORSDOF 6
ENDMDL
