MODEL 1
REMARK VINA RESULT:      -3.0      0.000      0.000
REMARK  7 active torsions:
REMARK  status: ('A' for Active; 'I' for Inactive)
REMARK    1  A    between atoms: C_21  and  C_3 
REMARK    2  A    between atoms: S_17  and  C_5 
REMARK    3  A    between atoms: C_11  and  C_16 
REMARK       I    between atoms: N_14  and  C_11 
REMARK    4  A    between atoms: C_19  and  N_14 
REMARK    5  A    between atoms: C_16  and  C_20 
REMARK    6  A    between atoms: C_20  and  S_17 
REMARK    7  A    between atoms: O_27  and  C_22 
ROOT
ATOM      1  C   UNL d   1      59.792  -1.154  29.300  0.00  0.00     0.092 A 
ATOM      2  C   UNL d   1      59.494  -2.519  28.989  0.00  0.00     0.057 A 
ATOM      3  C   UNL d   1      60.039  -1.936  29.185  0.00  0.00     0.016 A 
ATOM      4  N   UNL d   1      58.447  -1.550  29.019  0.00  0.00    -0.239 NA
ATOM      5  C   UNL d   1      58.995  -0.961  29.217  0.00  0.00     0.120 A 
ATOM      6  C   UNL d   1      58.697  -2.326  28.906  0.00  0.00     0.081 A 
ATOM      7  C   UNL d   1      59.743  -3.293  28.875  0.00  0.00     0.193 A 
ATOM      8  C   UNL d   1      60.343  -0.569  29.498  0.00  0.00     0.103 C 
ATOM      9  N   UNL d   1      60.903   0.018  29.697  0.00  0.00    -0.191 NA
ATOM     10  C   UNL d   1      58.400  -3.686  28.596  0.00  0.00     0.042 A 
ATOM     11  C   UNL d   1      59.197  -3.878  28.679  0.00  0.00     0.019 A 
ATOM     12  C   UNL d   1      58.150  -2.907  28.710  0.00  0.00    -0.003 A 
ATOM     13  O   UNL d   1      60.540  -3.486  28.958  0.00  0.00    -0.287 OA
ATOM     14  C   UNL d   1      57.585  -3.772  28.456  0.00  0.00     0.009 C 
ATOM     15  C   UNL d   1      58.641  -4.467  28.480  0.00  0.00     0.009 C 
ENDROOT
BRANCH   3  16
ATOM     16  C   UNL d   1      60.836  -2.129  29.268  0.00  0.00     0.001 C 
ATOM     17  C   UNL d   1      61.133  -2.346  30.004  0.00  0.00     0.000 C 
ENDBRANCH   3  16
BRANCH   5  18
ATOM     18  S   UNL d   1      58.746  -0.182  29.331  0.00  0.00    -0.067 SA
BRANCH  18  19
ATOM     19  C   UNL d   1      58.031  -0.033  29.713  0.00  0.00     0.042 C 
BRANCH  19  20
ATOM     20  C   UNL d   1      58.025   0.375  30.435  0.00  0.00     0.070 C 
BRANCH  20  21
ATOM     21  C   UNL d   1      57.383   0.278  30.955  0.00  0.00     0.280 C 
ATOM     22  N   UNL d   1      57.525   0.197  31.769  0.00  0.00    -0.208 NA
ATOM     23  O   UNL d   1      56.612   0.262  30.668  0.00  0.00    -0.265 OA
BRANCH  22  24
ATOM     24  C   UNL d   1      56.884   0.100  32.289  0.00  0.00     0.085 A 
ATOM     25  C   UNL d   1      56.707   0.682  32.845  0.00  0.00     0.021 A 
ATOM     26  C   UNL d   1      56.072   0.578  33.356  0.00  0.00     0.026 A 
ATOM     27  C   UNL d   1      55.605  -0.103  33.322  0.00  0.00     0.094 A 
ATOM     28  C   UNL d   1      55.782  -0.684  32.767  0.00  0.00     0.026 A 
ATOM     29  C   UNL d   1      56.423  -0.588  32.246  0.00  0.00     0.021 A 
BRANCH  27  30
ATOM     30  O   UNL d   1      54.957  -0.205  33.847  0.00  0.00    -0.328 OA
ATOM     31  C   UNL d   1      55.060  -0.075  34.659  0.00  0.00     0.181 C 
ENDBRANCH  27  30
ENDBRANCH  22  24
ENDBRANCH  20  21
ENDBRANCH  19  20
ENDBRANCH  18  19
ENDBRANCH   5  18
TORSDOF 7
ENDMDL
MODEL 2
REMARK VINA RESULT:      -0.5      1.528      6.343
REMARK  7 active torsions:
REMARK  status: ('A' for Active; 'I' for Inactive)
REMARK    1  A    between atoms: C_21  and  C_3 
REMARK    2  A    between atoms: S_17  and  C_5 
REMARK    3  A    between atoms: C_11  and  C_16 
REMARK       I    between atoms: N_14  and  C_11 
REMARK    4  A    between atoms: C_19  and  N_14 
REMARK    5  A    between atoms: C_16  and  C_20 
REMARK    6  A    between atoms: C_20  and  S_17 
REMARK    7  A    between atoms: O_27  and  C_22 
ROOT
ATOM      1  C   UNL d   1      56.741   0.658  33.911  0.00  0.00     0.092 A 
ATOM      2  C   UNL d   1      55.442   0.663  34.511  0.00  0.00     0.057 A 
ATOM      3  C   UNL d   1      56.261   0.658  34.586  0.00  0.00     0.016 A 
ATOM      4  N   UNL d   1      55.570   0.669  33.091  0.00  0.00    -0.239 NA
ATOM      5  C   UNL d   1      56.396   0.664  33.163  0.00  0.00     0.120 A 
ATOM      6  C   UNL d   1      55.097   0.669  33.763  0.00  0.00     0.081 A 
ATOM      7  C   UNL d   1      54.969   0.663  35.183  0.00  0.00     0.193 A 
ATOM      8  C   UNL d   1      57.566   0.653  33.988  0.00  0.00     0.103 C 
ATOM      9  N   UNL d   1      58.396   0.647  34.072  0.00  0.00    -0.191 NA
ATOM     10  C   UNL d   1      53.802   0.674  34.361  0.00  0.00     0.042 A 
ATOM     11  C   UNL d   1      54.148   0.668  35.109  0.00  0.00     0.019 A 
ATOM     12  C   UNL d   1      54.278   0.675  33.687  0.00  0.00    -0.003 A 
ATOM     13  O   UNL d   1      55.315   0.657  35.931  0.00  0.00    -0.287 OA
ATOM     14  C   UNL d   1      53.217   0.681  33.770  0.00  0.00     0.009 C 
ATOM     15  C   UNL d   1      53.318   0.674  35.030  0.00  0.00     0.009 C 
ENDROOT
BRANCH   3  16
ATOM     16  C   UNL d   1      56.607   0.652  35.334  0.00  0.00     0.001 C 
ATOM     17  C   UNL d   1      56.457   0.031  35.852  0.00  0.00     0.000 C 
ENDBRANCH   3  16
BRANCH   5  18
ATOM     18  S   UNL d   1      56.873   0.664  32.489  0.00  0.00    -0.067 SA
BRANCH  18  19
ATOM     19  C   UNL d   1      56.676   0.185  31.848  0.00  0.00     0.042 C 
BRANCH  19  20
ATOM     20  C   UNL d   1      57.035   0.311  31.111  0.00  0.00     0.070 C 
BRANCH  20  21
ATOM     21  C   UNL d   1      57.424  -0.319  30.732  0.00  0.00     0.280 C 
ATOM     22  N   UNL d   1      57.953  -0.159  30.113  0.00  0.00    -0.208 NA
ATOM     23  O   UNL d   1      57.286  -1.095  30.967  0.00  0.00    -0.265 OA
BRANCH  22  24
ATOM     24  C   UNL d   1      58.341  -0.788  29.733  0.00  0.00     0.085 A 
ATOM     25  C   UNL d   1      58.614  -0.704  28.960  0.00  0.00     0.021 A 
ATOM     26  C   UNL d   1      58.997  -1.331  28.592  0.00  0.00     0.026 A 
ATOM     27  C   UNL d   1      59.115  -2.049  28.985  0.00  0.00     0.094 A 
ATOM     28  C   UNL d   1      58.843  -2.133  29.758  0.00  0.00     0.026 A 
ATOM     29  C   UNL d   1      58.454  -1.503  30.138  0.00  0.00     0.021 A 
BRANCH  27  30
ATOM     30  O   UNL d   1      59.507  -2.686  28.605  0.00  0.00    -0.328 OA
ATOM     31  C   UNL d   1      59.914  -3.249  29.058  0.00  0.00     0.181 C 
ENDBRANCH  27  30
ENDBRANCH  22  24
ENDBRANCH  20  21
ENDBRANCH  19  20
ENDBRANCH  18  19
ENDBRANCH   5  18
TORSDOF 7
ENDMDL
