MODEL 1
REMARK VINA RESULT:      -2.6      0.000      0.000
REMARK  3 active torsions:
REMARK  status: ('A' for Active; 'I' for Inactive)
REMARK    1  A    between atoms: C_4  and  C_1 
REMARK    2  A    between atoms: N_7  and  C_4 
REMARK    3  A    between atoms: C_9  and  N_7 
ROOT
ATOM      1  C   UNL d   1      30.727  16.956 -24.126  0.00  0.00     0.139 A 
ATOM      2  N   UNL d   1      29.997  17.287 -24.254  0.00  0.00    -0.236 NA
ATOM      3  S   UNL d   1      30.634  16.227 -23.763  0.00  0.00    -0.064 SA
ATOM      4  C   UNL d   1      29.422  16.756 -23.966  0.00  0.00     0.088 A 
ATOM      5  C   UNL d   1      29.818  16.101 -23.662  0.00  0.00     0.049 A 
ATOM      6  C   UNL d   1      28.598  16.788 -23.942  0.00  0.00     0.020 A 
ATOM      7  C   UNL d   1      29.390  15.470 -23.332  0.00  0.00     0.008 A 
ATOM      8  C   UNL d   1      28.566  15.502 -23.309  0.00  0.00     0.001 A 
ATOM      9  C   UNL d   1      28.170  16.165 -23.616  0.00  0.00     0.002 A 
ENDROOT
BRANCH   1  10
ATOM     10  C   UNL d   1      31.447  17.310 -24.334  0.00  0.00     0.159 C 
ATOM     11  S   UNL d   1      31.560  17.611 -25.097  0.00  0.00    -0.055 SA
BRANCH  10  12
ATOM     12  N   UNL d   1      32.056  17.364 -23.779  0.00  0.00    -0.233 NA
BRANCH  12  13
ATOM     13  C   UNL d   1      32.454  18.083 -23.668  0.00  0.00     0.082 A 
ATOM     14  C   UNL d   1      32.570  18.362 -22.902  0.00  0.00     0.019 A 
ATOM     15  C   UNL d   1      32.964  19.075 -22.782  0.00  0.00     0.002 A 
ATOM     16  C   UNL d   1      33.241  19.505 -23.430  0.00  0.00     0.000 A 
ATOM     17  C   UNL d   1      33.121  19.219 -24.200  0.00  0.00     0.002 A 
ATOM     18  C   UNL d   1      32.728  18.507 -24.321  0.00  0.00     0.019 A 
ENDBRANCH  12  13
ENDBRANCH  10  12
ENDBRANCH   1  10
TORSDOF 3
ENDMDL
MODEL 2
REMARK VINA RESULT:      -2.6      2.572      4.970
REMARK  3 active torsions:
REMARK  status: ('A' for Active; 'I' for Inactive)
REMARK    1  A    between atoms: C_4  and  C_1 
REMARK    2  A    between atoms: N_7  and  C_4 
REMARK    3  A    between atoms: C_9  and  N_7 
ROOT
ATOM      1  C   UNL d   1      32.979  20.135 -22.213  0.00  0.00     0.139 A 
ATOM      2  N   UNL d   1      32.595  20.293 -21.516  0.00  0.00    -0.236 NA
ATOM      3  S   UNL d   1      33.240  20.838 -22.544  0.00  0.00    -0.064 SA
ATOM      4  C   UNL d   1      32.609  21.118 -21.398  0.00  0.00     0.088 A 
ATOM      5  C   UNL d   1      33.009  21.454 -22.035  0.00  0.00     0.049 A 
ATOM      6  C   UNL d   1      32.312  21.599 -20.797  0.00  0.00     0.020 A 
ATOM      7  C   UNL d   1      33.114  22.276 -22.076  0.00  0.00     0.008 A 
ATOM      8  C   UNL d   1      32.817  22.757 -21.475  0.00  0.00     0.001 A 
ATOM      9  C   UNL d   1      32.414  22.416 -20.833  0.00  0.00     0.002 A 
ENDROOT
BRANCH   1  10
ATOM     10  C   UNL d   1      33.086  19.376 -22.530  0.00  0.00     0.159 C 
ATOM     11  S   UNL d   1      33.241  18.733 -22.032  0.00  0.00    -0.055 SA
BRANCH  10  12
ATOM     12  N   UNL d   1      33.039  19.260 -23.346  0.00  0.00    -0.233 NA
BRANCH  12  13
ATOM     13  C   UNL d   1      32.745  18.545 -23.646  0.00  0.00     0.082 A 
ATOM     14  C   UNL d   1      31.963  18.510 -23.904  0.00  0.00     0.019 A 
ATOM     15  C   UNL d   1      31.662  17.805 -24.204  0.00  0.00     0.002 A 
ATOM     16  C   UNL d   1      32.144  17.137 -24.244  0.00  0.00     0.000 A 
ATOM     17  C   UNL d   1      32.932  17.177 -23.983  0.00  0.00     0.002 A 
ATOM     18  C   UNL d   1      33.233  17.881 -23.683  0.00  0.00     0.019 A 
ENDBRANCH  12  13
ENDBRANCH  10  12
ENDBRANCH   1  10
TORSDOF 3
ENDMDL
MODEL 3
REMARK VINA RESULT:      -2.2      1.451      4.331
REMARK  3 active torsions:
REMARK  status: ('A' for Active; 'I' for Inactive)
REMARK    1  A    between atoms: C_4  and  C_1 
REMARK    2  A    between atoms: N_7  and  C_4 
REMARK    3  A    between atoms: C_9  and  N_7 
ROOT
ATOM      1  C   UNL d   1      32.795  18.435 -23.287  0.00  0.00     0.139 A 
ATOM      2  N   UNL d   1      32.873  18.536 -22.486  0.00  0.00    -0.236 NA
ATOM      3  S   UNL d   1      32.872  19.161 -23.661  0.00  0.00    -0.064 SA
ATOM      4  C   UNL d   1      33.004  19.347 -22.343  0.00  0.00     0.088 A 
ATOM      5  C   UNL d   1      33.003  19.732 -23.071  0.00  0.00     0.049 A 
ATOM      6  C   UNL d   1      33.123  19.778 -21.649  0.00  0.00     0.020 A 
ATOM      7  C   UNL d   1      33.121  20.553 -23.111  0.00  0.00     0.008 A 
ATOM      8  C   UNL d   1      33.240  20.983 -22.417  0.00  0.00     0.001 A 
ATOM      9  C   UNL d   1      33.240  20.592 -21.684  0.00  0.00     0.002 A 
ENDROOT
BRANCH   1  10
ATOM     10  C   UNL d   1      32.658  17.706 -23.658  0.00  0.00     0.159 C 
ATOM     11  S   UNL d   1      33.169  17.068 -23.527  0.00  0.00    -0.055 SA
BRANCH  10  12
ATOM     12  N   UNL d   1      32.010  17.614 -24.161  0.00  0.00    -0.233 NA
BRANCH  12  13
ATOM     13  C   UNL d   1      31.597  16.896 -24.179  0.00  0.00     0.082 A 
ATOM     14  C   UNL d   1      31.938  16.247 -24.554  0.00  0.00     0.019 A 
ATOM     15  C   UNL d   1      31.535  15.529 -24.577  0.00  0.00     0.002 A 
ATOM     16  C   UNL d   1      30.793  15.463 -24.223  0.00  0.00     0.000 A 
ATOM     17  C   UNL d   1      30.453  16.120 -23.846  0.00  0.00     0.002 A 
ATOM     18  C   UNL d   1      30.855  16.838 -23.823  0.00  0.00     0.019 A 
ENDBRANCH  12  13
ENDBRANCH  10  12
ENDBRANCH   1  10
TORSDOF 3
ENDMDL
MODEL 4
REMARK VINA RESULT:      -1.6      0.606      4.180
REMARK  3 active torsions:
REMARK  status: ('A' for Active; 'I' for Inactive)
REMARK    1  A    between atoms: C_4  and  C_1 
REMARK    2  A    between atoms: N_7  and  C_4 
REMARK    3  A    between atoms: C_9  and  N_7 
ROOT
ATOM      1  C   UNL d   1      31.289  17.286 -24.304  0.00  0.00     0.139 A 
ATOM      2  N   UNL d   1      31.665  17.557 -23.638  0.00  0.00    -0.236 NA
ATOM      3  S   UNL d   1      31.587  17.676 -24.961  0.00  0.00    -0.064 SA
ATOM      4  C   UNL d   1      32.218  18.135 -23.874  0.00  0.00     0.088 A 
ATOM      5  C   UNL d   1      32.168  18.207 -24.693  0.00  0.00     0.049 A 
ATOM      6  C   UNL d   1      32.753  18.598 -23.450  0.00  0.00     0.020 A 
ATOM      7  C   UNL d   1      32.656  18.745 -25.095  0.00  0.00     0.008 A 
ATOM      8  C   UNL d   1      33.191  19.208 -24.671  0.00  0.00     0.001 A 
ATOM      9  C   UNL d   1      33.239  19.133 -23.845  0.00  0.00     0.002 A 
ENDROOT
BRANCH   1  10
ATOM     10  C   UNL d   1      30.697  16.705 -24.308  0.00  0.00     0.159 C 
ATOM     11  S   UNL d   1      30.847  15.954 -23.993  0.00  0.00    -0.055 SA
BRANCH  10  12
ATOM     12  N   UNL d   1      29.955  16.875 -24.626  0.00  0.00    -0.233 NA
BRANCH  12  13
ATOM     13  C   UNL d   1      29.274  16.540 -24.291  0.00  0.00     0.082 A 
ATOM     14  C   UNL d   1      28.835  16.981 -23.750  0.00  0.00     0.019 A 
ATOM     15  C   UNL d   1      28.158  16.657 -23.413  0.00  0.00     0.002 A 
ATOM     16  C   UNL d   1      27.922  15.893 -23.617  0.00  0.00     0.000 A 
ATOM     17  C   UNL d   1      28.368  15.452 -24.162  0.00  0.00     0.002 A 
ATOM     18  C   UNL d   1      29.045  15.775 -24.500  0.00  0.00     0.019 A 
ENDBRANCH  12  13
ENDBRANCH  10  12
ENDBRANCH   1  10
TORSDOF 3
ENDMDL
