MODEL 1
REMARK VINA RESULT:      -1.1      0.000      0.000
REMARK  4 active torsions:
REMARK  status: ('A' for Active; 'I' for Inactive)
REMARK    1  A    between atoms: C_7  and  C_1 
REMARK    2  A    between atoms: C_8  and  C_3 
REMARK    3  A    between atoms: C_10  and  C_6 
REMARK    4  A    between atoms: C_9  and  C_8 
ROOT
ATOM      1  C   UNL d   1      30.238  16.603 -24.389  0.00  0.00     0.293 A 
ATOM      2  N   UNL d   1      29.540  17.053 -24.412  0.00  0.00    -0.223 N 
ATOM      3  C   UNL d   1      30.982  16.987 -24.394  0.00  0.00     0.113 A 
ATOM      4  C   UNL d   1      29.586  17.889 -24.439  0.00  0.00     0.356 A 
ATOM      5  N   UNL d   1      30.330  18.275 -24.444  0.00  0.00    -0.192 NA
ATOM      6  C   UNL d   1      31.028  17.824 -24.422  0.00  0.00     0.094 A 
ATOM      7  O   UNL d   1      28.880  18.325 -24.461  0.00  0.00    -0.244 OA
ATOM      8  O   UNL d   1      30.805  15.988 -24.363  0.00  0.00    -0.267 OA
ATOM      9  C   UNL d   1      28.808  16.686 -24.407  0.00  0.00     0.106 C 
ENDROOT
BRANCH   3  10
ATOM     10  C   UNL d   1      31.680  16.536 -24.372  0.00  0.00     0.207 C 
ATOM     11  O   UNL d   1      32.112  16.405 -25.059  0.00  0.00    -0.286 OA
BRANCH  10  12
ATOM     12  C   UNL d   1      31.943  16.213 -23.645  0.00  0.00     0.069 A 
ATOM     13  S   UNL d   1      31.684  16.300 -22.862  0.00  0.00    -0.083 SA
ATOM     14  C   UNL d   1      32.175  15.834 -22.385  0.00  0.00     0.035 A 
ATOM     15  C   UNL d   1      32.736  15.453 -22.828  0.00  0.00     0.008 A 
ATOM     16  C   UNL d   1      32.603  15.681 -23.618  0.00  0.00     0.010 A 
ENDBRANCH  10  12
ENDBRANCH   3  10
BRANCH   1  17
ATOM     17  C   UNL d   1      29.634  16.050 -24.377  0.00  0.00     0.469 C 
ATOM     18  F   UNL d   1      29.408  15.858 -24.984  0.00  0.00    -0.162 F 
ATOM     19  F   UNL d   1      29.013  15.482 -24.347  0.00  0.00    -0.162 F 
ATOM     20  F   UNL d   1      29.367  15.791 -23.737  0.00  0.00    -0.162 F 
ENDBRANCH   1  17
BRANCH   6  21
ATOM     21  C   UNL d   1      31.756  18.197 -24.427  0.00  0.00     0.021 A 
ATOM     22  C   UNL d   1      32.007  18.619 -23.772  0.00  0.00     0.043 A 
ATOM     23  C   UNL d   1      32.749  19.000 -23.778  0.00  0.00     0.196 A 
ATOM     24  O   UNL d   1      32.995  19.418 -23.125  0.00  0.00    -0.287 OA
ATOM     25  C   UNL d   1      33.221  18.948 -24.440  0.00  0.00     0.042 A 
ATOM     26  C   UNL d   1      32.974  18.528 -25.097  0.00  0.00     0.003 A 
ATOM     27  C   UNL d   1      32.242  18.153 -25.089  0.00  0.00     0.002 A 
ENDBRANCH   6  21
TORSDOF 4
ENDMDL
MODEL 2
REMARK VINA RESULT:       0.0      1.360      2.446
REMARK  4 active torsions:
REMARK  status: ('A' for Active; 'I' for Inactive)
REMARK    1  A    between atoms: C_7  and  C_1 
REMARK    2  A    between atoms: C_8  and  C_3 
REMARK    3  A    between atoms: C_10  and  C_6 
REMARK    4  A    between atoms: C_9  and  C_8 
ROOT
ATOM      1  C   UNL d   1      29.980  17.364 -24.114  0.00  0.00     0.293 A 
ATOM      2  N   UNL d   1      29.351  16.886 -23.858  0.00  0.00    -0.223 N 
ATOM      3  C   UNL d   1      30.765  17.075 -24.075  0.00  0.00     0.113 A 
ATOM      4  C   UNL d   1      29.507  16.119 -23.561  0.00  0.00     0.356 A 
ATOM      5  N   UNL d   1      30.291  15.828 -23.521  0.00  0.00    -0.192 NA
ATOM      6  C   UNL d   1      30.921  16.306 -23.778  0.00  0.00     0.094 A 
ATOM      7  O   UNL d   1      28.866  15.654 -23.308  0.00  0.00    -0.244 OA
ATOM      8  O   UNL d   1      30.459  17.981 -24.413  0.00  0.00    -0.267 OA
ATOM      9  C   UNL d   1      28.580  17.161 -23.892  0.00  0.00     0.106 C 
ENDROOT
BRANCH   3  10
ATOM     10  C   UNL d   1      31.395  17.553 -24.332  0.00  0.00     0.207 C 
ATOM     11  O   UNL d   1      31.688  17.478 -25.097  0.00  0.00    -0.286 OA
BRANCH  10  12
ATOM     12  C   UNL d   1      31.732  18.114 -23.809  0.00  0.00     0.069 A 
ATOM     13  S   UNL d   1      31.631  18.262 -22.999  0.00  0.00    -0.083 SA
ATOM     14  C   UNL d   1      32.124  18.897 -22.800  0.00  0.00     0.035 A 
ATOM     15  C   UNL d   1      32.535  19.161 -23.446  0.00  0.00     0.008 A 
ATOM     16  C   UNL d   1      32.299  18.680 -24.084  0.00  0.00     0.010 A 
ENDBRANCH  10  12
ENDBRANCH   3  10
BRANCH   1  17
ATOM     17  C   UNL d   1      29.311  17.821 -24.234  0.00  0.00     0.469 C 
ATOM     18  F   UNL d   1      29.086  17.841 -24.871  0.00  0.00    -0.162 F 
ATOM     19  F   UNL d   1      28.623  18.295 -24.339  0.00  0.00    -0.162 F 
ATOM     20  F   UNL d   1      28.990  18.180 -23.672  0.00  0.00    -0.162 F 
ENDBRANCH   1  17
BRANCH   6  21
ATOM     21  C   UNL d   1      31.688  16.026 -23.740  0.00  0.00     0.021 A 
ATOM     22  C   UNL d   1      32.039  15.881 -23.016  0.00  0.00     0.043 A 
ATOM     23  C   UNL d   1      32.821  15.595 -22.978  0.00  0.00     0.196 A 
ATOM     24  O   UNL d   1      33.166  15.453 -22.255  0.00  0.00    -0.287 OA
ATOM     25  C   UNL d   1      33.233  15.460 -23.668  0.00  0.00     0.042 A 
ATOM     26  C   UNL d   1      32.886  15.603 -24.395  0.00  0.00     0.003 A 
ATOM     27  C   UNL d   1      32.115  15.886 -24.430  0.00  0.00     0.002 A 
ENDBRANCH   6  21
TORSDOF 4
ENDMDL
MODEL 3
REMARK VINA RESULT:       1.8      1.833      2.863
REMARK  4 active torsions:
REMARK  status: ('A' for Active; 'I' for Inactive)
REMARK    1  A    between atoms: C_7  and  C_1 
REMARK    2  A    between atoms: C_8  and  C_3 
REMARK    3  A    between atoms: C_10  and  C_6 
REMARK    4  A    between atoms: C_9  and  C_8 
ROOT
ATOM      1  C   UNL d   1      28.873  16.337 -23.395  0.00  0.00     0.293 A 
ATOM      2  N   UNL d   1      28.727  16.043 -22.631  0.00  0.00    -0.223 N 
ATOM      3  C   UNL d   1      29.653  16.330 -23.701  0.00  0.00     0.113 A 
ATOM      4  C   UNL d   1      29.360  15.743 -22.174  0.00  0.00     0.356 A 
ATOM      5  N   UNL d   1      30.141  15.736 -22.479  0.00  0.00    -0.192 NA
ATOM      6  C   UNL d   1      30.287  16.029 -23.242  0.00  0.00     0.094 A 
ATOM      7  O   UNL d   1      29.198  15.453 -21.412  0.00  0.00    -0.244 OA
ATOM      8  O   UNL d   1      28.813  16.667 -24.161  0.00  0.00    -0.267 OA
ATOM      9  C   UNL d   1      27.968  16.045 -22.324  0.00  0.00     0.106 C 
ENDROOT
BRANCH   3  10
ATOM     10  C   UNL d   1      29.799  16.624 -24.464  0.00  0.00     0.207 C 
ATOM     11  O   UNL d   1      29.970  16.109 -25.083  0.00  0.00    -0.286 OA
BRANCH  10  12
ATOM     12  C   UNL d   1      29.772  17.449 -24.605  0.00  0.00     0.069 A 
ATOM     13  S   UNL d   1      30.272  18.075 -24.392  0.00  0.00    -0.083 SA
ATOM     14  C   UNL d   1      29.944  18.771 -24.697  0.00  0.00     0.035 A 
ATOM     15  C   UNL d   1      29.256  18.619 -25.097  0.00  0.00     0.008 A 
ATOM     16  C   UNL d   1      29.136  17.796 -25.047  0.00  0.00     0.010 A 
ENDBRANCH  10  12
ENDBRANCH   3  10
BRANCH   1  17
ATOM     17  C   UNL d   1      28.067  16.431 -23.288  0.00  0.00     0.469 C 
ATOM     18  F   UNL d   1      27.683  15.941 -23.551  0.00  0.00    -0.162 F 
ATOM     19  F   UNL d   1      27.241  16.543 -23.169  0.00  0.00    -0.162 F 
ATOM     20  F   UNL d   1      27.797  17.017 -22.926  0.00  0.00    -0.162 F 
ENDBRANCH   1  17
BRANCH   6  21
ATOM     21  C   UNL d   1      31.048  16.024 -23.543  0.00  0.00     0.021 A 
ATOM     22  C   UNL d   1      31.607  16.550 -23.260  0.00  0.00     0.043 A 
ATOM     23  C   UNL d   1      32.382  16.543 -23.567  0.00  0.00     0.196 A 
ATOM     24  O   UNL d   1      32.935  17.069 -23.282  0.00  0.00    -0.287 OA
ATOM     25  C   UNL d   1      32.578  16.010 -24.150  0.00  0.00     0.042 A 
ATOM     26  C   UNL d   1      32.022  15.483 -24.437  0.00  0.00     0.003 A 
ATOM     27  C   UNL d   1      31.258  15.490 -24.133  0.00  0.00     0.002 A 
ENDBRANCH   6  21
TORSDOF 4
ENDMDL
