MODEL 1
REMARK VINA RESULT:      -9.5      0.000      0.000
REMARK  1 active torsions:
REMARK  status: ('A' for Active; 'I' for Inactive)
REMARK    1  A    between atoms: C_7  and  C_1 
ROOT
ATOM      1  C   UNL d   1      51.838  33.813  52.996  0.00  0.00     0.122 A 
ATOM      2  C   UNL d   1      52.873  34.061  53.964  0.00  0.00     0.057 A 
ATOM      3  C   UNL d   1      53.098  33.267  53.927  0.00  0.00     0.085 A 
ATOM      4  C   UNL d   1      52.247  34.333  53.502  0.00  0.00     0.204 A 
ATOM      5  N   UNL d   1      52.684  32.752  53.418  0.00  0.00    -0.244 NA
ATOM      6  C   UNL d   1      53.722  32.988  54.385  0.00  0.00     0.028 A 
ATOM      7  C   UNL d   1      52.063  33.019  52.958  0.00  0.00     0.108 A 
ATOM      8  C   UNL d   1      53.271  34.578  54.460  0.00  0.00     0.006 A 
ATOM      9  C   UNL d   1      54.115  33.506  54.877  0.00  0.00     0.059 A 
ATOM     10  C   UNL d   1      53.891  34.295  54.914  0.00  0.00     0.012 A 
ATOM     11  O   UNL d   1      52.023  35.123  53.539  0.00  0.00    -0.286 OA
ATOM     12 CL   UNL d   1      54.749  33.234  55.346  0.00  0.00    -0.082 Cl
ATOM     13  C   UNL d   1      53.950  32.183  54.347  0.00  0.00     0.002 C 
ENDROOT
BRANCH   1  14
ATOM     14  C   UNL d   1      51.207  34.099  52.534  0.00  0.00     0.216 C 
ATOM     15  O   UNL d   1      50.445  34.166  52.852  0.00  0.00    -0.644 OA
ATOM     16  O   UNL d   1      51.344  34.320  51.744  0.00  0.00    -0.644 OA
ENDBRANCH   1  14
TORSDOF 1
ENDMDL
MODEL 2
REMARK VINA RESULT:      -9.4      1.632      2.270
REMARK  1 active torsions:
REMARK  status: ('A' for Active; 'I' for Inactive)
REMARK    1  A    between atoms: C_7  and  C_1 
ROOT
ATOM      1  C   UNL d   1      53.045  34.828  54.180  0.00  0.00     0.122 A 
ATOM      2  C   UNL d   1      53.539  33.491  54.379  0.00  0.00     0.057 A 
ATOM      3  C   UNL d   1      53.118  33.237  53.715  0.00  0.00     0.085 A 
ATOM      4  C   UNL d   1      53.503  34.282  54.610  0.00  0.00     0.204 A 
ATOM      5  N   UNL d   1      52.661  33.790  53.289  0.00  0.00    -0.244 NA
ATOM      6  C   UNL d   1      53.149  32.450  53.477  0.00  0.00     0.028 A 
ATOM      7  C   UNL d   1      52.624  34.574  53.516  0.00  0.00     0.108 A 
ATOM      8  C   UNL d   1      53.991  32.959  54.807  0.00  0.00     0.006 A 
ATOM      9  C   UNL d   1      53.600  31.924  53.906  0.00  0.00     0.059 A 
ATOM     10  C   UNL d   1      54.019  32.177  54.566  0.00  0.00     0.012 A 
ATOM     11  O   UNL d   1      53.921  34.535  55.271  0.00  0.00    -0.286 OA
ATOM     12 CL   UNL d   1      53.639  31.124  53.674  0.00  0.00    -0.082 Cl
ATOM     13  C   UNL d   1      52.722  32.193  52.804  0.00  0.00     0.002 C 
ENDROOT
BRANCH   1  14
ATOM     14  C   UNL d   1      53.016  35.624  54.424  0.00  0.00     0.216 C 
ATOM     15  O   UNL d   1      53.665  36.126  54.309  0.00  0.00    -0.644 OA
ATOM     16  O   UNL d   1      52.328  35.917  54.786  0.00  0.00    -0.644 OA
ENDBRANCH   1  14
TORSDOF 1
ENDMDL
MODEL 3
REMARK VINA RESULT:      -9.3      1.984      2.571
REMARK  1 active torsions:
REMARK  status: ('A' for Active; 'I' for Inactive)
REMARK    1  A    between atoms: C_7  and  C_1 
ROOT
ATOM      1  C   UNL d   1      53.070  31.473  53.274  0.00  0.00     0.122 A 
ATOM      2  C   UNL d   1      52.832  32.886  53.407  0.00  0.00     0.057 A 
ATOM      3  C   UNL d   1      53.418  32.931  53.987  0.00  0.00     0.085 A 
ATOM      4  C   UNL d   1      52.658  32.162  53.052  0.00  0.00     0.204 A 
ATOM      5  N   UNL d   1      53.827  32.237  54.204  0.00  0.00    -0.244 NA
ATOM      6  C   UNL d   1      53.597  33.649  54.345  0.00  0.00     0.028 A 
ATOM      7  C   UNL d   1      53.656  31.518  53.854  0.00  0.00     0.108 A 
ATOM      8  C   UNL d   1      52.423  33.560  53.184  0.00  0.00     0.006 A 
ATOM      9  C   UNL d   1      53.188  34.317  54.120  0.00  0.00     0.059 A 
ATOM     10  C   UNL d   1      52.605  34.273  53.543  0.00  0.00     0.012 A 
ATOM     11  O   UNL d   1      52.074  32.118  52.475  0.00  0.00    -0.286 OA
ATOM     12 CL   UNL d   1      53.361  35.051  54.476  0.00  0.00    -0.082 Cl
ATOM     13  C   UNL d   1      54.193  33.694  54.933  0.00  0.00     0.002 C 
ENDROOT
BRANCH   1  14
ATOM     14  C   UNL d   1      52.885  30.747  52.909  0.00  0.00     0.216 C 
ATOM     15  O   UNL d   1      53.176  30.567  52.155  0.00  0.00    -0.644 OA
ATOM     16  O   UNL d   1      52.404  30.199  53.307  0.00  0.00    -0.644 OA
ENDBRANCH   1  14
TORSDOF 1
ENDMDL
MODEL 4
REMARK VINA RESULT:      -9.2      2.003      3.098
REMARK  1 active torsions:
REMARK  status: ('A' for Active; 'I' for Inactive)
REMARK    1  A    between atoms: C_7  and  C_1 
ROOT
ATOM      1  C   UNL d   1      54.135  33.448  54.684  0.00  0.00     0.122 A 
ATOM      2  C   UNL d   1      53.089  34.142  53.980  0.00  0.00     0.057 A 
ATOM      3  C   UNL d   1      52.871  33.437  53.609  0.00  0.00     0.085 A 
ATOM      4  C   UNL d   1      53.717  34.148  54.514  0.00  0.00     0.204 A 
ATOM      5  N   UNL d   1      53.294  32.740  53.784  0.00  0.00    -0.244 NA
ATOM      6  C   UNL d   1      52.245  33.423  53.075  0.00  0.00     0.028 A 
ATOM      7  C   UNL d   1      53.917  32.743  54.313  0.00  0.00     0.108 A 
ATOM      8  C   UNL d   1      52.682  34.835  53.818  0.00  0.00     0.006 A 
ATOM      9  C   UNL d   1      51.844  34.115  52.917  0.00  0.00     0.059 A 
ATOM     10  C   UNL d   1      52.061  34.816  53.285  0.00  0.00     0.012 A 
ATOM     11  O   UNL d   1      53.935  34.850  54.883  0.00  0.00    -0.286 OA
ATOM     12 CL   UNL d   1      51.208  34.112  52.376  0.00  0.00    -0.082 Cl
ATOM     13  C   UNL d   1      52.024  32.708  52.699  0.00  0.00     0.002 C 
ENDROOT
BRANCH   1  14
ATOM     14  C   UNL d   1      54.768  33.467  55.225  0.00  0.00     0.216 C 
ATOM     15  O   UNL d   1      55.509  33.761  55.001  0.00  0.00    -0.644 OA
ATOM     16  O   UNL d   1      54.653  33.186  55.999  0.00  0.00    -0.644 OA
ENDBRANCH   1  14
TORSDOF 1
ENDMDL
MODEL 5
REMARK VINA RESULT:      -9.0      2.266      2.801
REMARK  1 active torsions:
REMARK  status: ('A' for Active; 'I' for Inactive)
REMARK    1  A    between atoms: C_7  and  C_1 
ROOT
ATOM      1  C   UNL d   1      52.913  31.284  53.186  0.00  0.00     0.122 A 
ATOM      2  C   UNL d   1      53.427  32.332  54.027  0.00  0.00     0.057 A 
ATOM      3  C   UNL d   1      52.969  32.885  53.618  0.00  0.00     0.085 A 
ATOM      4  C   UNL d   1      53.399  31.536  53.813  0.00  0.00     0.204 A 
ATOM      5  N   UNL d   1      52.485  32.625  52.991  0.00  0.00    -0.244 NA
ATOM      6  C   UNL d   1      52.991  33.681  53.827  0.00  0.00     0.028 A 
ATOM      7  C   UNL d   1      52.456  31.837  52.776  0.00  0.00     0.108 A 
ATOM      8  C   UNL d   1      53.907  32.573  54.646  0.00  0.00     0.006 A 
ATOM      9  C   UNL d   1      53.471  33.916  54.442  0.00  0.00     0.059 A 
ATOM     10  C   UNL d   1      53.926  33.367  54.849  0.00  0.00     0.012 A 
ATOM     11  O   UNL d   1      53.854  30.986  54.220  0.00  0.00    -0.286 OA
ATOM     12 CL   UNL d   1      53.501  34.720  54.662  0.00  0.00    -0.082 Cl
ATOM     13  C   UNL d   1      52.527  34.241  53.411  0.00  0.00     0.002 C 
ENDROOT
BRANCH   1  14
ATOM     14  C   UNL d   1      52.894  30.478  52.978  0.00  0.00     0.216 C 
ATOM     15  O   UNL d   1      53.394  30.180  52.389  0.00  0.00    -0.644 OA
ATOM     16  O   UNL d   1      52.366  29.967  53.367  0.00  0.00    -0.644 OA
ENDBRANCH   1  14
TORSDOF 1
ENDMDL
