MODEL 1
REMARK VINA RESULT:      46.6      0.000      0.000
REMARK  5 active torsions:
REMARK  status: ('A' for Active; 'I' for Inactive)
REMARK    1  A    between atoms: C_2  and  C_1 
REMARK    2  A    between atoms: C_7  and  C_2 
REMARK    3  A    between atoms: C_9  and  N_3 
REMARK    4  A    between atoms: N_5  and  C_7 
REMARK    5  A    between atoms: O_24  and  C_20 
ROOT
ATOM      1  N   UNL d   1     -55.029-102.089 -40.583  0.00  0.00    -0.301 N 
ATOM      2  N   UNL d   1     -54.820-101.887 -42.215  0.00  0.00    -0.297 N 
ATOM      3  C   UNL d   1     -54.824-101.351 -40.885  0.00  0.00     0.100 A 
ATOM      4  C   UNL d   1     -55.130-102.727 -41.096  0.00  0.00     0.100 A 
ATOM      5  C   UNL d   1     -54.718-101.246 -41.706  0.00  0.00     0.100 A 
ATOM      6  C   UNL d   1     -55.024-102.619 -41.908  0.00  0.00     0.100 A 
ENDROOT
BRANCH   2   7
ATOM      7  C   UNL d   1     -54.715-101.782 -43.024  0.00  0.00     0.123 C 
BRANCH   7   8
ATOM      8  C   UNL d   1     -55.364-101.652 -43.516  0.00  0.00     0.216 C 
ATOM      9  O   UNL d   1     -56.014-102.160 -43.485  0.00  0.00    -0.285 OA
BRANCH   8  10
ATOM     10  C   UNL d   1     -55.365-101.010 -44.043  0.00  0.00     0.080 A 
ATOM     11  C   UNL d   1     -55.187-101.124 -44.827  0.00  0.00     0.202 A 
ATOM     12  C   UNL d   1     -55.188-100.492 -45.349  0.00  0.00     0.084 A 
ATOM     13  O   UNL d   1     -55.004-101.881 -45.098  0.00  0.00    -0.286 OA
ATOM     14  C   UNL d   1     -55.372 -99.726 -45.080  0.00  0.00     0.199 A 
ATOM     15  C   UNL d   1     -55.555 -99.612 -44.278  0.00  0.00     0.042 A 
ATOM     16  O   UNL d   1     -55.373 -99.095 -45.602  0.00  0.00    -0.286 OA
ATOM     17  C   UNL d   1     -55.552-100.250 -43.757  0.00  0.00     0.010 A 
ENDBRANCH   8  10
ENDBRANCH   7   8
ENDBRANCH   2   7
BRANCH   1  18
ATOM     18  C   UNL d   1     -55.132-102.189 -39.775  0.00  0.00     0.064 A 
ATOM     19  C   UNL d   1     -55.633-102.772 -39.499  0.00  0.00     0.020 A 
ATOM     20  C   UNL d   1     -55.738-102.873 -38.681  0.00  0.00     0.026 A 
ATOM     21  C   UNL d   1     -55.335-102.384 -38.152  0.00  0.00     0.094 A 
ATOM     22  C   UNL d   1     -54.825-101.792 -38.441  0.00  0.00     0.026 A 
ATOM     23  C   UNL d   1     -54.728-101.699 -39.250  0.00  0.00     0.020 A 
BRANCH  21  24
ATOM     24  O   UNL d   1     -55.440-102.487 -37.338  0.00  0.00    -0.328 OA
ATOM     25  C   UNL d   1     -54.859-102.876 -36.901  0.00  0.00     0.181 C 
ENDBRANCH  21  24
ENDBRANCH   1  18
TORSDOF 5
ENDMDL
