MODEL 1
REMARK VINA RESULT:      13.2      0.000      0.000
REMARK  3 active torsions:
REMARK  status: ('A' for Active; 'I' for Inactive)
REMARK    1  A    between atoms: C_5  and  C_1 
REMARK    2  A    between atoms: C_8  and  N_2 
REMARK    3  A    between atoms: C_10  and  C_8 
ROOT
ATOM      1  C   UNL d   1      45.590 -14.587  44.544  0.00  0.00     0.166 A 
ATOM      2  N   UNL d   1      45.632 -16.215  44.814  0.00  0.00    -0.302 N 
ATOM      3  C   UNL d   1      46.305 -14.997  44.493  0.00  0.00     0.058 A 
ATOM      4  C   UNL d   1      44.897 -14.991  44.730  0.00  0.00     0.058 A 
ATOM      5  C   UNL d   1      44.917 -15.806  44.865  0.00  0.00     0.083 A 
ATOM      6  C   UNL d   1      46.326 -15.810  44.628  0.00  0.00     0.083 A 
ATOM      7  O   UNL d   1      44.807 -14.192  44.610  0.00  0.00    -0.290 OA
ENDROOT
BRANCH   1   8
ATOM      8  C   UNL d   1      45.570 -13.774  44.410  0.00  0.00     0.036 A 
ATOM      9  C   UNL d   1      45.196 -13.475  43.723  0.00  0.00     0.003 A 
ATOM     10  C   UNL d   1      45.182 -12.663  43.599  0.00  0.00     0.000 A 
ATOM     11  C   UNL d   1      45.531 -12.143  44.144  0.00  0.00     0.000 A 
ATOM     12  C   UNL d   1      45.896 -12.434  44.815  0.00  0.00     0.000 A 
ATOM     13  C   UNL d   1      45.919 -13.254  44.955  0.00  0.00     0.003 A 
ENDBRANCH   1   8
BRANCH   2  14
ATOM     14  C   UNL d   1      45.652 -17.028  44.948  0.00  0.00     0.080 C 
BRANCH  14  15
ATOM     15  C   UNL d   1      45.944 -17.536  44.366  0.00  0.00     0.018 A 
ATOM     16  C   UNL d   1      46.355 -18.217  44.581  0.00  0.00     0.002 A 
ATOM     17  C   UNL d   1      46.646 -18.723  43.998  0.00  0.00     0.000 A 
ATOM     18  C   UNL d   1      46.529 -18.552  43.203  0.00  0.00     0.000 A 
ATOM     19  C   UNL d   1      46.118 -17.870  42.988  0.00  0.00     0.000 A 
ATOM     20  C   UNL d   1      45.824 -17.360  43.568  0.00  0.00     0.002 A 
ENDBRANCH  14  15
ENDBRANCH   2  14
TORSDOF 3
ENDMDL
MODEL 2
REMARK VINA RESULT:      13.6      1.417      4.626
REMARK  3 active torsions:
REMARK  status: ('A' for Active; 'I' for Inactive)
REMARK    1  A    between atoms: C_5  and  C_1 
REMARK    2  A    between atoms: C_8  and  N_2 
REMARK    3  A    between atoms: C_10  and  C_8 
ROOT
ATOM      1  C   UNL d   1      46.131 -18.019  43.398  0.00  0.00     0.166 A 
ATOM      2  N   UNL d   1      45.788 -16.782  44.435  0.00  0.00    -0.302 N 
ATOM      3  C   UNL d   1      45.682 -17.376  43.142  0.00  0.00     0.058 A 
ATOM      4  C   UNL d   1      46.410 -18.043  44.173  0.00  0.00     0.058 A 
ATOM      5  C   UNL d   1      46.239 -17.424  44.693  0.00  0.00     0.083 A 
ATOM      6  C   UNL d   1      45.510 -16.758  43.660  0.00  0.00     0.083 A 
ATOM      7  O   UNL d   1      46.614 -18.683  43.715  0.00  0.00    -0.290 OA
ENDROOT
BRANCH   1   8
ATOM      8  C   UNL d   1      46.302 -18.636  42.880  0.00  0.00     0.036 A 
ATOM      9  C   UNL d   1      46.331 -19.423  43.164  0.00  0.00     0.003 A 
ATOM     10  C   UNL d   1      46.502 -20.031  42.638  0.00  0.00     0.000 A 
ATOM     11  C   UNL d   1      46.646 -19.871  41.837  0.00  0.00     0.000 A 
ATOM     12  C   UNL d   1      46.618 -19.104  41.558  0.00  0.00     0.000 A 
ATOM     13  C   UNL d   1      46.446 -18.477  42.078  0.00  0.00     0.003 A 
ENDBRANCH   1   8
BRANCH   2  14
ATOM     14  C   UNL d   1      45.618 -16.164  44.955  0.00  0.00     0.080 C 
BRANCH  14  15
ATOM     15  C   UNL d   1      45.580 -15.388  44.674  0.00  0.00     0.018 A 
ATOM     16  C   UNL d   1      46.270 -14.996  44.453  0.00  0.00     0.002 A 
ATOM     17  C   UNL d   1      46.232 -14.221  44.173  0.00  0.00     0.000 A 
ATOM     18  C   UNL d   1      45.508 -13.836  44.113  0.00  0.00     0.000 A 
ATOM     19  C   UNL d   1      44.817 -14.229  44.335  0.00  0.00     0.000 A 
ATOM     20  C   UNL d   1      44.851 -15.006  44.616  0.00  0.00     0.002 A 
ENDBRANCH  14  15
ENDBRANCH   2  14
TORSDOF 3
ENDMDL
