MODEL 1
REMARK VINA RESULT:      -6.9      0.000      0.000
REMARK  3 active torsions:
REMARK  status: ('A' for Active; 'I' for Inactive)
REMARK    1  A    between atoms: C_2  and  C_1 
REMARK    2  A    between atoms: C_3  and  C_1 
REMARK    3  A    between atoms: C_5  and  C_2 
ROOT
ATOM      1  C   UNL d   1     -48.342  14.193  23.042  0.00  0.00     0.000 C 
ENDROOT
BRANCH   1   2
ATOM      2  C   UNL d   1     -48.739  14.763  22.600  0.00  0.00     0.000 C 
BRANCH   2   3
ATOM      3  C   UNL d   1     -49.506  14.983  22.817  0.00  0.00     0.000 A 
ATOM      4  C   UNL d   1     -50.153  14.632  22.441  0.00  0.00     0.000 A 
ATOM      5  C   UNL d   1     -50.920  14.847  22.652  0.00  0.00     0.000 A 
ATOM      6  C   UNL d   1     -51.044  15.417  23.243  0.00  0.00     0.000 A 
ATOM      7  C   UNL d   1     -50.400  15.767  23.619  0.00  0.00     0.000 A 
ATOM      8  C   UNL d   1     -49.630  15.553  23.408  0.00  0.00     0.000 A 
ENDBRANCH   2   3
ENDBRANCH   1   2
BRANCH   1   9
ATOM      9  C   UNL d   1     -47.587  13.954  22.819  0.00  0.00     0.000 A 
ATOM     10  C   UNL d   1     -47.474  13.204  22.494  0.00  0.00     0.002 A 
ATOM     11  C   UNL d   1     -46.719  12.964  22.271  0.00  0.00     0.021 A 
ATOM     12  C   UNL d   1     -46.076  13.470  22.370  0.00  0.00     0.103 A 
ATOM     13  C   UNL d   1     -46.192  14.221  22.695  0.00  0.00     0.021 A 
ATOM     14  N   UNL d   1     -45.319  13.224  22.144  0.00  0.00    -0.148 N 
ATOM     15  C   UNL d   1     -46.948  14.463  22.920  0.00  0.00     0.002 A 
ENDBRANCH   1   9
TORSDOF 3
ENDMDL
MODEL 2
REMARK VINA RESULT:      -6.7      1.667      2.031
REMARK  3 active torsions:
REMARK  status: ('A' for Active; 'I' for Inactive)
REMARK    1  A    between atoms: C_2  and  C_1 
REMARK    2  A    between atoms: C_3  and  C_1 
REMARK    3  A    between atoms: C_5  and  C_2 
ROOT
ATOM      1  C   UNL d   1     -48.183  12.984  23.335  0.00  0.00     0.000 C 
ENDROOT
BRANCH   1   2
ATOM      2  C   UNL d   1     -48.777  12.760  22.811  0.00  0.00     0.000 C 
BRANCH   2   3
ATOM      3  C   UNL d   1     -49.531  12.585  23.103  0.00  0.00     0.000 A 
ATOM      4  C   UNL d   1     -50.119  13.167  23.088  0.00  0.00     0.000 A 
ATOM      5  C   UNL d   1     -50.872  13.000  23.377  0.00  0.00     0.000 A 
ATOM      6  C   UNL d   1     -51.042  12.248  23.683  0.00  0.00     0.000 A 
ATOM      7  C   UNL d   1     -50.458  11.667  23.698  0.00  0.00     0.000 A 
ATOM      8  C   UNL d   1     -49.701  11.833  23.409  0.00  0.00     0.000 A 
ENDBRANCH   2   3
ENDBRANCH   1   2
BRANCH   1   9
ATOM      9  C   UNL d   1     -47.429  13.151  23.053  0.00  0.00     0.000 A 
ATOM     10  C   UNL d   1     -46.883  12.541  22.952  0.00  0.00     0.002 A 
ATOM     11  C   UNL d   1     -46.128  12.708  22.670  0.00  0.00     0.021 A 
ATOM     12  C   UNL d   1     -45.916  13.483  22.486  0.00  0.00     0.103 A 
ATOM     13  C   UNL d   1     -46.464  14.092  22.588  0.00  0.00     0.021 A 
ATOM     14  N   UNL d   1     -45.156  13.646  22.202  0.00  0.00    -0.148 N 
ATOM     15  C   UNL d   1     -47.221  13.927  22.871  0.00  0.00     0.002 A 
ENDBRANCH   1   9
TORSDOF 3
ENDMDL
MODEL 3
REMARK VINA RESULT:      -6.7      1.782      4.003
REMARK  3 active torsions:
REMARK  status: ('A' for Active; 'I' for Inactive)
REMARK    1  A    between atoms: C_2  and  C_1 
REMARK    2  A    between atoms: C_3  and  C_1 
REMARK    3  A    between atoms: C_5  and  C_2 
ROOT
ATOM      1  C   UNL d   1     -48.227  14.044  22.672  0.00  0.00     0.000 C 
ENDROOT
BRANCH   1   2
ATOM      2  C   UNL d   1     -47.578  14.060  23.179  0.00  0.00     0.000 C 
BRANCH   2   3
ATOM      3  C   UNL d   1     -46.909  13.610  22.998  0.00  0.00     0.000 A 
ATOM      4  C   UNL d   1     -46.839  12.844  23.301  0.00  0.00     0.000 A 
ATOM      5  C   UNL d   1     -46.175  12.389  23.125  0.00  0.00     0.000 A 
ATOM      6  C   UNL d   1     -45.575  12.700  22.642  0.00  0.00     0.000 A 
ATOM      7  C   UNL d   1     -45.644  13.463  22.339  0.00  0.00     0.000 A 
ATOM      8  C   UNL d   1     -46.310  13.920  22.516  0.00  0.00     0.000 A 
ENDBRANCH   2   3
ENDBRANCH   1   2
BRANCH   1   9
ATOM      9  C   UNL d   1     -48.920  14.436  22.880  0.00  0.00     0.000 A 
ATOM     10  C   UNL d   1     -49.570  14.004  23.146  0.00  0.00     0.002 A 
ATOM     11  C   UNL d   1     -50.264  14.395  23.354  0.00  0.00     0.021 A 
ATOM     12  C   UNL d   1     -50.311  15.217  23.296  0.00  0.00     0.103 A 
ATOM     13  C   UNL d   1     -49.658  15.646  23.029  0.00  0.00     0.021 A 
ATOM     14  N   UNL d   1     -51.011  15.606  23.506  0.00  0.00    -0.148 N 
ATOM     15  C   UNL d   1     -48.961  15.256  22.820  0.00  0.00     0.002 A 
ENDBRANCH   1   9
TORSDOF 3
ENDMDL
MODEL 4
REMARK VINA RESULT:      -6.6      1.977      2.400
REMARK  3 active torsions:
REMARK  status: ('A' for Active; 'I' for Inactive)
REMARK    1  A    between atoms: C_2  and  C_1 
REMARK    2  A    between atoms: C_3  and  C_1 
REMARK    3  A    between atoms: C_5  and  C_2 
ROOT
ATOM      1  C   UNL d   1     -48.483  12.527  23.180  0.00  0.00     0.000 C 
ENDROOT
BRANCH   1   2
ATOM      2  C   UNL d   1     -49.044  12.159  22.704  0.00  0.00     0.000 C 
BRANCH   2   3
ATOM      3  C   UNL d   1     -49.717  12.578  22.470  0.00  0.00     0.000 A 
ATOM      4  C   UNL d   1     -49.845  12.729  21.667  0.00  0.00     0.000 A 
ATOM      5  C   UNL d   1     -50.513  13.146  21.426  0.00  0.00     0.000 A 
ATOM      6  C   UNL d   1     -51.059  13.416  21.990  0.00  0.00     0.000 A 
ATOM      7  C   UNL d   1     -50.934  13.267  22.790  0.00  0.00     0.000 A 
ATOM      8  C   UNL d   1     -50.263  12.848  23.033  0.00  0.00     0.000 A 
ENDBRANCH   2   3
ENDBRANCH   1   2
BRANCH   1   9
ATOM      9  C   UNL d   1     -47.755  12.167  23.310  0.00  0.00     0.000 A 
ATOM     10  C   UNL d   1     -47.059  12.595  23.191  0.00  0.00     0.002 A 
ATOM     11  C   UNL d   1     -46.330  12.236  23.321  0.00  0.00     0.021 A 
ATOM     12  C   UNL d   1     -46.293  11.450  23.569  0.00  0.00     0.103 A 
ATOM     13  C   UNL d   1     -46.991  11.025  23.687  0.00  0.00     0.021 A 
ATOM     14  N   UNL d   1     -45.557  11.093  23.698  0.00  0.00    -0.148 N 
ATOM     15  C   UNL d   1     -47.723  11.383  23.558  0.00  0.00     0.002 A 
ENDBRANCH   1   9
TORSDOF 3
ENDMDL
MODEL 5
REMARK VINA RESULT:      -5.5      7.905      9.628
REMARK  3 active torsions:
REMARK  status: ('A' for Active; 'I' for Inactive)
REMARK    1  A    between atoms: C_2  and  C_1 
REMARK    2  A    between atoms: C_3  and  C_1 
REMARK    3  A    between atoms: C_5  and  C_2 
ROOT
ATOM      1  C   UNL d   1     -40.112  14.354  18.521  0.00  0.00     0.000 C 
ENDROOT
BRANCH   1   2
ATOM      2  C   UNL d   1     -39.804  14.783  19.153  0.00  0.00     0.000 C 
BRANCH   2   3
ATOM      3  C   UNL d   1     -40.292  14.971  19.794  0.00  0.00     0.000 A 
ATOM      4  C   UNL d   1     -40.619  15.728  19.850  0.00  0.00     0.000 A 
ATOM      5  C   UNL d   1     -41.106  15.922  20.485  0.00  0.00     0.000 A 
ATOM      6  C   UNL d   1     -41.269  15.357  21.070  0.00  0.00     0.000 A 
ATOM      7  C   UNL d   1     -40.944  14.602  21.016  0.00  0.00     0.000 A 
ATOM      8  C   UNL d   1     -40.455  14.406  20.379  0.00  0.00     0.000 A 
ENDBRANCH   2   3
ENDBRANCH   1   2
BRANCH   1   9
ATOM      9  C   UNL d   1     -39.637  14.182  17.872  0.00  0.00     0.000 A 
ATOM     10  C   UNL d   1     -39.642  14.682  17.217  0.00  0.00     0.002 A 
ATOM     11  C   UNL d   1     -39.167  14.510  16.567  0.00  0.00     0.021 A 
ATOM     12  C   UNL d   1     -38.687  13.839  16.568  0.00  0.00     0.103 A 
ATOM     13  C   UNL d   1     -38.686  13.340  17.227  0.00  0.00     0.021 A 
ATOM     14  N   UNL d   1     -38.212  13.671  15.912  0.00  0.00    -0.148 N 
ATOM     15  C   UNL d   1     -39.160  13.511  17.879  0.00  0.00     0.002 A 
ENDBRANCH   1   9
TORSDOF 3
ENDMDL
MODEL 6
REMARK VINA RESULT:      -5.2      8.942      9.679
REMARK  3 active torsions:
REMARK  status: ('A' for Active; 'I' for Inactive)
REMARK    1  A    between atoms: C_2  and  C_1 
REMARK    2  A    between atoms: C_3  and  C_1 
REMARK    3  A    between atoms: C_5  and  C_2 
ROOT
ATOM      1  C   UNL d   1     -40.184  14.443  19.430  0.00  0.00     0.000 C 
ENDROOT
BRANCH   1   2
ATOM      2  C   UNL d   1     -39.546  14.737  19.861  0.00  0.00     0.000 C 
BRANCH   2   3
ATOM      3  C   UNL d   1     -39.299  14.339  20.542  0.00  0.00     0.000 A 
ATOM      4  C   UNL d   1     -38.577  13.937  20.540  0.00  0.00     0.000 A 
ATOM      5  C   UNL d   1     -38.324  13.538  21.216  0.00  0.00     0.000 A 
ATOM      6  C   UNL d   1     -38.795  13.540  21.899  0.00  0.00     0.000 A 
ATOM      7  C   UNL d   1     -39.515  13.940  21.903  0.00  0.00     0.000 A 
ATOM      8  C   UNL d   1     -39.770  14.341  21.226  0.00  0.00     0.000 A 
ENDBRANCH   2   3
ENDBRANCH   1   2
BRANCH   1   9
ATOM      9  C   UNL d   1     -40.394  14.796  18.717  0.00  0.00     0.000 A 
ATOM     10  C   UNL d   1     -40.686  15.568  18.712  0.00  0.00     0.002 A 
ATOM     11  C   UNL d   1     -40.896  15.921  17.999  0.00  0.00     0.021 A 
ATOM     12  C   UNL d   1     -40.817  15.506  17.290  0.00  0.00     0.103 A 
ATOM     13  C   UNL d   1     -40.524  14.734  17.299  0.00  0.00     0.021 A 
ATOM     14  N   UNL d   1     -41.030  15.866  16.576  0.00  0.00    -0.148 N 
ATOM     15  C   UNL d   1     -40.313  14.378  18.012  0.00  0.00     0.002 A 
ENDBRANCH   1   9
TORSDOF 3
ENDMDL
