MODEL 1
REMARK VINA RESULT:      -9.9      0.000      0.000
REMARK  3 active torsions:
REMARK  status: ('A' for Active; 'I' for Inactive)
REMARK    1  A    between atoms: S_15  and  C_4 
REMARK    2  A    between atoms: C_9  and  C_16 
REMARK    3  A    between atoms: C_16  and  S_15 
ROOT
ATOM      1  C   UNL d   1      52.162  33.277  53.134  0.00  0.00     0.141 A 
ATOM      2  C   UNL d   1      52.888  33.204  53.521  0.00  0.00     0.110 A 
ATOM      3  O   UNL d   1      51.954  32.537  52.838  0.00  0.00    -0.303 OA
ATOM      4  C   UNL d   1      51.784  34.010  53.102  0.00  0.00     0.137 A 
ATOM      5  N   UNL d   1      52.131  34.670  53.456  0.00  0.00    -0.218 NA
ATOM      6  C   UNL d   1      53.128  32.416  53.463  0.00  0.00     0.043 A 
ATOM      7  N   UNL d   1      53.234  33.864  53.874  0.00  0.00    -0.225 NA
ATOM      8  C   UNL d   1      52.551  32.004  53.042  0.00  0.00     0.102 A 
ATOM      9  C   UNL d   1      52.857  34.596  53.842  0.00  0.00     0.163 A 
ATOM     10  C   UNL d   1      53.797  32.023  53.740  0.00  0.00     0.004 A 
ATOM     11  C   UNL d   1      52.645  31.197  52.898  0.00  0.00     0.025 A 
ATOM     12  C   UNL d   1      53.204  35.255  54.196  0.00  0.00     0.042 C 
ATOM     13  C   UNL d   1      53.891  31.216  53.597  0.00  0.00     0.000 A 
ATOM     14  C   UNL d   1      53.314  30.804  53.175  0.00  0.00     0.002 A 
ENDROOT
BRANCH   4  15
ATOM     15  S   UNL d   1      51.058  34.084  52.716  0.00  0.00    -0.062 SA
BRANCH  15  16
ATOM     16  C   UNL d   1      50.436  34.485  53.082  0.00  0.00     0.076 C 
BRANCH  16  17
ATOM     17  C   UNL d   1      49.766  34.690  52.646  0.00  0.00     0.169 A 
ATOM     18  N   UNL d   1      49.154  35.182  52.902  0.00  0.00    -0.225 NA
ATOM     19  C   UNL d   1      48.600  35.236  52.293  0.00  0.00     0.101 A 
ATOM     20  C   UNL d   1      47.885  35.643  52.231  0.00  0.00     0.021 A 
ATOM     21  C   UNL d   1      48.869  34.778  51.661  0.00  0.00     0.101 A 
ATOM     22  C   UNL d   1      47.439  35.593  51.539  0.00  0.00     0.002 A 
ATOM     23  C   UNL d   1      47.708  35.135  50.908  0.00  0.00     0.002 A 
ATOM     24  C   UNL d   1      48.422  34.727  50.968  0.00  0.00     0.021 A 
ATOM     25  N   UNL d   1      49.589  34.441  51.880  0.00  0.00    -0.225 NA
ENDBRANCH  16  17
ENDBRANCH  15  16
ENDBRANCH   4  15
TORSDOF 3
ENDMDL
MODEL 2
REMARK VINA RESULT:      -9.6      1.189      2.153
REMARK  3 active torsions:
REMARK  status: ('A' for Active; 'I' for Inactive)
REMARK    1  A    between atoms: S_15  and  C_4 
REMARK    2  A    between atoms: C_9  and  C_16 
REMARK    3  A    between atoms: C_16  and  S_15 
ROOT
ATOM      1  C   UNL d   1      52.624  33.448  53.790  0.00  0.00     0.141 A 
ATOM      2  C   UNL d   1      53.247  32.915  53.883  0.00  0.00     0.110 A 
ATOM      3  O   UNL d   1      52.802  34.128  54.220  0.00  0.00    -0.303 OA
ATOM      4  C   UNL d   1      51.973  33.245  53.324  0.00  0.00     0.137 A 
ATOM      5  N   UNL d   1      51.946  32.508  52.952  0.00  0.00    -0.218 NA
ATOM      6  C   UNL d   1      53.812  33.266  54.372  0.00  0.00     0.043 A 
ATOM      7  N   UNL d   1      53.219  32.180  53.511  0.00  0.00    -0.225 NA
ATOM      8  C   UNL d   1      53.537  34.016  54.580  0.00  0.00     0.102 A 
ATOM      9  C   UNL d   1      52.570  31.976  53.046  0.00  0.00     0.163 A 
ATOM     10  C   UNL d   1      54.539  33.001  54.653  0.00  0.00     0.004 A 
ATOM     11  C   UNL d   1      53.992  34.499  55.071  0.00  0.00     0.025 A 
ATOM     12  C   UNL d   1      52.542  31.241  52.674  0.00  0.00     0.042 C 
ATOM     13  C   UNL d   1      54.994  33.484  55.144  0.00  0.00     0.000 A 
ATOM     14  C   UNL d   1      54.719  34.233  55.352  0.00  0.00     0.002 A 
ENDROOT
BRANCH   4  15
ATOM     15  S   UNL d   1      51.350  33.777  53.231  0.00  0.00    -0.062 SA
BRANCH  15  16
ATOM     16  C   UNL d   1      50.945  33.815  52.512  0.00  0.00     0.076 C 
BRANCH  16  17
ATOM     17  C   UNL d   1      50.248  34.254  52.455  0.00  0.00     0.169 A 
ATOM     18  N   UNL d   1      49.757  34.297  51.793  0.00  0.00    -0.225 NA
ATOM     19  C   UNL d   1      49.126  34.795  51.977  0.00  0.00     0.101 A 
ATOM     20  C   UNL d   1      48.472  35.044  51.540  0.00  0.00     0.021 A 
ATOM     21  C   UNL d   1      49.227  35.061  52.753  0.00  0.00     0.101 A 
ATOM     22  C   UNL d   1      47.920  35.555  51.877  0.00  0.00     0.002 A 
ATOM     23  C   UNL d   1      48.021  35.820  52.651  0.00  0.00     0.002 A 
ATOM     24  C   UNL d   1      48.674  35.573  53.090  0.00  0.00     0.021 A 
ATOM     25  N   UNL d   1      49.921  34.725  53.047  0.00  0.00    -0.225 NA
ENDBRANCH  16  17
ENDBRANCH  15  16
ENDBRANCH   4  15
TORSDOF 3
ENDMDL
MODEL 3
REMARK VINA RESULT:      -8.4      1.351      5.457
REMARK  3 active torsions:
REMARK  status: ('A' for Active; 'I' for Inactive)
REMARK    1  A    between atoms: S_15  and  C_4 
REMARK    2  A    between atoms: C_9  and  C_16 
REMARK    3  A    between atoms: C_16  and  S_15 
ROOT
ATOM      1  C   UNL d   1      49.257  35.141  52.924  0.00  0.00     0.141 A 
ATOM      2  C   UNL d   1      48.583  35.274  52.466  0.00  0.00     0.110 A 
ATOM      3  O   UNL d   1      49.164  35.542  53.638  0.00  0.00    -0.303 OA
ATOM      4  C   UNL d   1      49.869  34.672  52.630  0.00  0.00     0.137 A 
ATOM      5  N   UNL d   1      49.808  34.336  51.879  0.00  0.00    -0.218 NA
ATOM      6  C   UNL d   1      48.073  35.758  52.899  0.00  0.00     0.043 A 
ATOM      7  N   UNL d   1      48.523  34.938  51.716  0.00  0.00    -0.225 NA
ATOM      8  C   UNL d   1      48.431  35.923  53.623  0.00  0.00     0.102 A 
ATOM      9  C   UNL d   1      49.134  34.469  51.422  0.00  0.00     0.163 A 
ATOM     10  C   UNL d   1      47.329  36.068  52.726  0.00  0.00     0.004 A 
ATOM     11  C   UNL d   1      48.044  36.399  54.174  0.00  0.00     0.025 A 
ATOM     12  C   UNL d   1      49.073  34.133  50.672  0.00  0.00     0.042 C 
ATOM     13  C   UNL d   1      46.942  36.544  53.277  0.00  0.00     0.000 A 
ATOM     14  C   UNL d   1      47.301  36.709  54.001  0.00  0.00     0.002 A 
ENDROOT
BRANCH   4  15
ATOM     15  S   UNL d   1      50.543  34.539  53.088  0.00  0.00    -0.062 SA
BRANCH  15  16
ATOM     16  C   UNL d   1      51.241  34.284  52.728  0.00  0.00     0.076 C 
BRANCH  16  17
ATOM     17  C   UNL d   1      51.885  34.059  53.192  0.00  0.00     0.169 A 
ATOM     18  N   UNL d   1      52.159  33.287  53.300  0.00  0.00    -0.225 NA
ATOM     19  C   UNL d   1      52.811  33.317  53.804  0.00  0.00     0.101 A 
ATOM     20  C   UNL d   1      53.304  32.728  54.104  0.00  0.00     0.021 A 
ATOM     21  C   UNL d   1      52.941  34.106  54.008  0.00  0.00     0.101 A 
ATOM     22  C   UNL d   1      53.926  32.927  54.608  0.00  0.00     0.002 A 
ATOM     23  C   UNL d   1      54.056  33.715  54.812  0.00  0.00     0.002 A 
ATOM     24  C   UNL d   1      53.564  34.305  54.512  0.00  0.00     0.021 A 
ATOM     25  N   UNL d   1      52.369  34.564  53.630  0.00  0.00    -0.225 NA
ENDBRANCH  16  17
ENDBRANCH  15  16
ENDBRANCH   4  15
TORSDOF 3
ENDMDL
MODEL 4
REMARK VINA RESULT:      -7.1     10.167     10.985
REMARK  3 active torsions:
REMARK  status: ('A' for Active; 'I' for Inactive)
REMARK    1  A    between atoms: S_15  and  C_4 
REMARK    2  A    between atoms: C_9  and  C_16 
REMARK    3  A    between atoms: C_16  and  S_15 
ROOT
ATOM      1  C   UNL d   1      44.742  29.623  59.665  0.00  0.00     0.141 A 
ATOM      2  C   UNL d   1      44.753  30.425  59.861  0.00  0.00     0.110 A 
ATOM      3  O   UNL d   1      44.621  29.192  60.358  0.00  0.00    -0.303 OA
ATOM      4  C   UNL d   1      44.844  29.388  58.881  0.00  0.00     0.137 A 
ATOM      5  N   UNL d   1      44.957  29.954  58.291  0.00  0.00    -0.218 NA
ATOM      6  C   UNL d   1      44.638  30.490  60.676  0.00  0.00     0.043 A 
ATOM      7  N   UNL d   1      44.866  30.990  59.272  0.00  0.00    -0.225 NA
ATOM      8  C   UNL d   1      44.556  29.729  60.983  0.00  0.00     0.102 A 
ATOM      9  C   UNL d   1      44.968  30.757  58.488  0.00  0.00     0.163 A 
ATOM     10  C   UNL d   1      44.598  31.143  61.176  0.00  0.00     0.004 A 
ATOM     11  C   UNL d   1      44.434  29.622  61.792  0.00  0.00     0.025 A 
ATOM     12  C   UNL d   1      45.081  31.322  57.899  0.00  0.00     0.042 C 
ATOM     13  C   UNL d   1      44.475  31.037  61.985  0.00  0.00     0.000 A 
ATOM     14  C   UNL d   1      44.393  30.276  62.292  0.00  0.00     0.002 A 
ENDROOT
BRANCH   4  15
ATOM     15  S   UNL d   1      44.833  28.586  58.685  0.00  0.00    -0.062 SA
BRANCH  15  16
ATOM     16  C   UNL d   1      45.218  28.324  58.003  0.00  0.00     0.076 C 
BRANCH  16  17
ATOM     17  C   UNL d   1      45.071  27.565  57.714  0.00  0.00     0.169 A 
ATOM     18  N   UNL d   1      45.080  27.340  56.919  0.00  0.00    -0.225 NA
ATOM     19  C   UNL d   1      44.904  26.535  56.882  0.00  0.00     0.101 A 
ATOM     20  C   UNL d   1      44.835  26.013  56.246  0.00  0.00     0.021 A 
ATOM     21  C   UNL d   1      44.786  26.262  57.652  0.00  0.00     0.101 A 
ATOM     22  C   UNL d   1      44.649  25.221  56.380  0.00  0.00     0.002 A 
ATOM     23  C   UNL d   1      44.532  24.949  57.149  0.00  0.00     0.002 A 
ATOM     24  C   UNL d   1      44.600  25.469  57.786  0.00  0.00     0.021 A 
ATOM     25  N   UNL d   1      44.889  26.899  58.166  0.00  0.00    -0.225 NA
ENDBRANCH  16  17
ENDBRANCH  15  16
ENDBRANCH   4  15
TORSDOF 3
ENDMDL
MODEL 5
REMARK VINA RESULT:      -7.0      1.285      4.918
REMARK  3 active torsions:
REMARK  status: ('A' for Active; 'I' for Inactive)
REMARK    1  A    between atoms: S_15  and  C_4 
REMARK    2  A    between atoms: C_9  and  C_16 
REMARK    3  A    between atoms: C_16  and  S_15 
ROOT
ATOM      1  C   UNL d   1      51.625  33.880  52.944  0.00  0.00     0.141 A 
ATOM      2  C   UNL d   1      51.339  34.609  53.206  0.00  0.00     0.110 A 
ATOM      3  O   UNL d   1      51.027  33.510  52.515  0.00  0.00    -0.303 OA
ATOM      4  C   UNL d   1      52.395  33.648  53.130  0.00  0.00     0.137 A 
ATOM      5  N   UNL d   1      52.878  34.145  53.579  0.00  0.00    -0.218 NA
ATOM      6  C   UNL d   1      50.562  34.688  52.938  0.00  0.00     0.043 A 
ATOM      7  N   UNL d   1      51.822  35.104  53.654  0.00  0.00    -0.225 NA
ATOM      8  C   UNL d   1      50.369  34.009  52.511  0.00  0.00     0.102 A 
ATOM      9  C   UNL d   1      52.591  34.873  53.840  0.00  0.00     0.163 A 
ATOM     10  C   UNL d   1      50.007  35.291  53.028  0.00  0.00     0.004 A 
ATOM     11  C   UNL d   1      49.620  33.934  52.174  0.00  0.00     0.025 A 
ATOM     12  C   UNL d   1      53.074  35.369  54.288  0.00  0.00     0.042 C 
ATOM     13  C   UNL d   1      49.257  35.216  52.691  0.00  0.00     0.000 A 
ATOM     14  C   UNL d   1      49.065  34.537  52.264  0.00  0.00     0.002 A 
ENDROOT
BRANCH   4  15
ATOM     15  S   UNL d   1      52.682  32.920  52.869  0.00  0.00    -0.062 SA
BRANCH  15  16
ATOM     16  C   UNL d   1      53.289  32.544  53.283  0.00  0.00     0.076 C 
BRANCH  16  17
ATOM     17  C   UNL d   1      53.261  31.728  53.403  0.00  0.00     0.169 A 
ATOM     18  N   UNL d   1      53.499  31.332  54.087  0.00  0.00    -0.225 NA
ATOM     19  C   UNL d   1      53.376  30.525  53.969  0.00  0.00     0.101 A 
ATOM     20  C   UNL d   1      53.509  29.869  54.451  0.00  0.00     0.021 A 
ATOM     21  C   UNL d   1      53.061  30.422  53.213  0.00  0.00     0.101 A 
ATOM     22  C   UNL d   1      53.328  29.112  54.179  0.00  0.00     0.002 A 
ATOM     23  C   UNL d   1      53.014  29.009  53.423  0.00  0.00     0.002 A 
ATOM     24  C   UNL d   1      52.880  29.664  52.940  0.00  0.00     0.021 A 
ATOM     25  N   UNL d   1      52.990  31.166  52.864  0.00  0.00    -0.225 NA
ENDBRANCH  16  17
ENDBRANCH  15  16
ENDBRANCH   4  15
TORSDOF 3
ENDMDL
MODEL 6
REMARK VINA RESULT:      -7.0      2.062      5.221
REMARK  3 active torsions:
REMARK  status: ('A' for Active; 'I' for Inactive)
REMARK    1  A    between atoms: S_15  and  C_4 
REMARK    2  A    between atoms: C_9  and  C_16 
REMARK    3  A    between atoms: C_16  and  S_15 
ROOT
ATOM      1  C   UNL d   1      52.832  33.528  53.481  0.00  0.00     0.141 A 
ATOM      2  C   UNL d   1      52.469  34.267  53.426  0.00  0.00     0.110 A 
ATOM      3  O   UNL d   1      53.401  33.565  54.076  0.00  0.00    -0.303 OA
ATOM      4  C   UNL d   1      52.597  32.914  52.981  0.00  0.00     0.137 A 
ATOM      5  N   UNL d   1      51.999  33.040  52.426  0.00  0.00    -0.218 NA
ATOM      6  C   UNL d   1      52.815  34.763  53.988  0.00  0.00     0.043 A 
ATOM      7  N   UNL d   1      51.872  34.392  52.871  0.00  0.00    -0.225 NA
ATOM      8  C   UNL d   1      53.391  34.329  54.390  0.00  0.00     0.102 A 
ATOM      9  C   UNL d   1      51.636  33.781  52.372  0.00  0.00     0.163 A 
ATOM     10  C   UNL d   1      52.680  35.551  54.185  0.00  0.00     0.004 A 
ATOM     11  C   UNL d   1      53.831  34.687  54.989  0.00  0.00     0.025 A 
ATOM     12  C   UNL d   1      51.039  33.905  51.818  0.00  0.00     0.042 C 
ATOM     13  C   UNL d   1      53.120  35.908  54.785  0.00  0.00     0.000 A 
ATOM     14  C   UNL d   1      53.696  35.475  55.186  0.00  0.00     0.002 A 
ENDROOT
BRANCH   4  15
ATOM     15  S   UNL d   1      52.959  32.175  53.035  0.00  0.00    -0.062 SA
BRANCH  15  16
ATOM     16  C   UNL d   1      52.503  31.488  52.987  0.00  0.00     0.076 C 
BRANCH  16  17
ATOM     17  C   UNL d   1      52.748  30.803  53.376  0.00  0.00     0.169 A 
ATOM     18  N   UNL d   1      53.148  30.167  53.032  0.00  0.00    -0.225 NA
ATOM     19  C   UNL d   1      53.283  29.605  53.620  0.00  0.00     0.101 A 
ATOM     20  C   UNL d   1      53.653  28.868  53.604  0.00  0.00     0.021 A 
ATOM     21  C   UNL d   1      52.968  29.892  54.327  0.00  0.00     0.101 A 
ATOM     22  C   UNL d   1      53.708  28.418  54.293  0.00  0.00     0.002 A 
ATOM     23  C   UNL d   1      53.393  28.705  54.999  0.00  0.00     0.002 A 
ATOM     24  C   UNL d   1      53.023  29.442  55.017  0.00  0.00     0.021 A 
ATOM     25  N   UNL d   1      52.638  30.633  54.176  0.00  0.00    -0.225 NA
ENDBRANCH  16  17
ENDBRANCH  15  16
ENDBRANCH   4  15
TORSDOF 3
ENDMDL
