MODEL 1
REMARK VINA RESULT:      73.4      0.000      0.000
REMARK  6 active torsions:
REMARK  status: ('A' for Active; 'I' for Inactive)
REMARK    1  A    between atoms: N_8  and  C_1 
REMARK    2  A    between atoms: C_6  and  N_2 
REMARK       I    between atoms: C_12  and  N_8 
REMARK    3  A    between atoms: C_20  and  C_12 
REMARK    4  A    between atoms: O_24  and  C_13 
REMARK    5  A    between atoms: O_25  and  C_15 
REMARK    6  A    between atoms: C_19  and  C_20 
ROOT
ATOM      1  C   UNL d   1      14.500  16.094  -2.883  0.00  0.00     0.169 A 
ATOM      2  N   UNL d   1      15.064  16.587  -3.236  0.00  0.00    -0.212 N 
ATOM      3  C   UNL d   1      14.712  15.982  -2.085  0.00  0.00     0.065 A 
ATOM      4  N   UNL d   1      15.625  16.781  -2.657  0.00  0.00    -0.163 NA
ATOM      5  C   UNL d   1      15.407  16.407  -1.949  0.00  0.00     0.114 A 
ATOM      6  S   UNL d   1      15.064  15.809  -0.804  0.00  0.00     0.091 S 
ATOM      7  C   UNL d   1      15.627  16.303  -1.158  0.00  0.00     0.090 A 
ATOM      8  C   UNL d   1      14.499  15.613  -1.381  0.00  0.00     0.073 A 
ATOM      9  O   UNL d   1      15.062  15.556  -0.015  0.00  0.00    -0.247 OA
ENDROOT
BRANCH   1  10
ATOM     10  N   UNL d   1      13.837  15.765  -3.254  0.00  0.00    -0.189 NA
ATOM     11  C   UNL d   1      13.747  14.953  -3.304  0.00  0.00     0.281 C 
ATOM     12  O   UNL d   1      14.328  14.446  -2.980  0.00  0.00    -0.265 OA
BRANCH  11  13
ATOM     13  C   UNL d   1      13.087  14.623  -3.674  0.00  0.00     0.063 C 
BRANCH  13  14
ATOM     14  C   UNL d   1      13.169  13.920  -4.067  0.00  0.00     0.007 A 
ATOM     15  C   UNL d   1      13.192  13.200  -3.652  0.00  0.00     0.026 A 
ATOM     16  C   UNL d   1      13.276  12.487  -4.058  0.00  0.00     0.116 A 
ATOM     17  C   UNL d   1      13.336  12.495  -4.882  0.00  0.00     0.116 A 
ATOM     18  C   UNL d   1      13.314  13.199  -5.301  0.00  0.00     0.026 A 
ATOM     19  C   UNL d   1      13.230  13.914  -4.890  0.00  0.00     0.002 A 
BRANCH  16  20
ATOM     20  O   UNL d   1      13.298  11.779  -3.647  0.00  0.00    -0.326 OA
ATOM     21  C   UNL d   1      13.346  11.781  -2.824  0.00  0.00     0.181 C 
ENDBRANCH  16  20
BRANCH  17  22
ATOM     22  O   UNL d   1      13.419  11.783  -5.289  0.00  0.00    -0.326 OA
ATOM     23  C   UNL d   1      13.594  11.779  -6.094  0.00  0.00     0.181 C 
ENDBRANCH  17  22
ENDBRANCH  13  14
ENDBRANCH  11  13
ENDBRANCH   1  10
BRANCH   2  24
ATOM     24  C   UNL d   1      15.068  16.841  -4.020  0.00  0.00     0.085 A 
ATOM     25  C   UNL d   1      14.801  17.595  -4.205  0.00  0.00     0.018 A 
ATOM     26  C   UNL d   1      14.806  17.848  -4.990  0.00  0.00     0.002 A 
ATOM     27  C   UNL d   1      14.532  18.093  -3.612  0.00  0.00     0.002 C 
ATOM     28  C   UNL d   1      14.541  18.598  -5.177  0.00  0.00     0.000 C 
ATOM     29  C   UNL d   1      15.080  17.339  -5.579  0.00  0.00     0.000 A 
ATOM     30  C   UNL d   1      15.343  16.590  -5.379  0.00  0.00     0.002 A 
ATOM     31  C   UNL d   1      15.342  16.332  -4.610  0.00  0.00     0.019 A 
ENDBRANCH   2  24
TORSDOF 6
ENDMDL
MODEL 2
REMARK VINA RESULT:      73.6      2.071      4.102
REMARK  6 active torsions:
REMARK  status: ('A' for Active; 'I' for Inactive)
REMARK    1  A    between atoms: N_8  and  C_1 
REMARK    2  A    between atoms: C_6  and  N_2 
REMARK       I    between atoms: C_12  and  N_8 
REMARK    3  A    between atoms: C_20  and  C_12 
REMARK    4  A    between atoms: O_24  and  C_13 
REMARK    5  A    between atoms: O_25  and  C_15 
REMARK    6  A    between atoms: C_19  and  C_20 
ROOT
ATOM      1  C   UNL d   1      14.150  14.599  -3.085  0.00  0.00     0.169 A 
ATOM      2  N   UNL d   1      13.865  14.202  -3.754  0.00  0.00    -0.212 N 
ATOM      3  C   UNL d   1      14.442  15.341  -3.325  0.00  0.00     0.065 A 
ATOM      4  N   UNL d   1      13.981  14.698  -4.407  0.00  0.00    -0.163 NA
ATOM      5  C   UNL d   1      14.336  15.399  -4.142  0.00  0.00     0.114 A 
ATOM      6  S   UNL d   1      14.908  16.532  -3.724  0.00  0.00     0.091 S 
ATOM      7  C   UNL d   1      14.623  16.134  -4.392  0.00  0.00     0.090 A 
ATOM      8  C   UNL d   1      14.794  16.039  -3.066  0.00  0.00     0.073 A 
ATOM      9  O   UNL d   1      15.247  17.288  -3.712  0.00  0.00    -0.247 OA
ENDROOT
BRANCH   1  10
ATOM     10  N   UNL d   1      14.147  14.313  -2.308  0.00  0.00    -0.189 NA
ATOM     11  C   UNL d   1      14.131  14.830  -1.673  0.00  0.00     0.281 C 
ATOM     12  O   UNL d   1      14.117  15.656  -1.805  0.00  0.00    -0.265 OA
BRANCH  11  13
ATOM     13  C   UNL d   1      14.129  14.547  -0.898  0.00  0.00     0.063 C 
BRANCH  13  14
ATOM     14  C   UNL d   1      14.558  13.883  -0.723  0.00  0.00     0.007 A 
ATOM     15  C   UNL d   1      14.182  13.190  -0.458  0.00  0.00     0.026 A 
ATOM     16  C   UNL d   1      14.625  12.517  -0.281  0.00  0.00     0.116 A 
ATOM     17  C   UNL d   1      15.446  12.538  -0.369  0.00  0.00     0.116 A 
ATOM     18  C   UNL d   1      15.827  13.216  -0.628  0.00  0.00     0.026 A 
ATOM     19  C   UNL d   1      15.379  13.890  -0.805  0.00  0.00     0.002 A 
BRANCH  16  20
ATOM     20  O   UNL d   1      14.253  11.835  -0.021  0.00  0.00    -0.326 OA
ATOM     21  C   UNL d   1      13.430  11.791  -0.016  0.00  0.00     0.181 C 
ENDBRANCH  16  20
BRANCH  17  22
ATOM     22  O   UNL d   1      15.890  11.866  -0.192  0.00  0.00    -0.326 OA
ATOM     23  C   UNL d   1      16.661  11.788  -0.471  0.00  0.00     0.181 C 
ENDBRANCH  17  22
ENDBRANCH  13  14
ENDBRANCH  11  13
ENDBRANCH   1  10
BRANCH   2  24
ATOM     24  C   UNL d   1      13.528  13.450  -3.768  0.00  0.00     0.085 A 
ATOM     25  C   UNL d   1      13.399  13.076  -4.488  0.00  0.00     0.018 A 
ATOM     26  C   UNL d   1      13.061  12.323  -4.502  0.00  0.00     0.002 A 
ATOM     27  C   UNL d   1      13.605  13.450  -5.188  0.00  0.00     0.002 C 
ATOM     28  C   UNL d   1      12.931  11.949  -5.216  0.00  0.00     0.000 C 
ATOM     29  C   UNL d   1      12.858  11.957  -3.791  0.00  0.00     0.000 A 
ATOM     30  C   UNL d   1      12.992  12.342  -3.081  0.00  0.00     0.002 A 
ATOM     31  C   UNL d   1      13.324  13.083  -3.057  0.00  0.00     0.019 A 
ENDBRANCH   2  24
TORSDOF 6
ENDMDL
MODEL 3
REMARK VINA RESULT:      74.0      2.046      4.163
REMARK  6 active torsions:
REMARK  status: ('A' for Active; 'I' for Inactive)
REMARK    1  A    between atoms: N_8  and  C_1 
REMARK    2  A    between atoms: C_6  and  N_2 
REMARK       I    between atoms: C_12  and  N_8 
REMARK    3  A    between atoms: C_20  and  C_12 
REMARK    4  A    between atoms: O_24  and  C_13 
REMARK    5  A    between atoms: O_25  and  C_15 
REMARK    6  A    between atoms: C_19  and  C_20 
ROOT
ATOM      1  C   UNL d   1      14.981  14.722  -1.493  0.00  0.00     0.169 A 
ATOM      2  N   UNL d   1      14.957  14.236  -0.823  0.00  0.00    -0.212 N 
ATOM      3  C   UNL d   1      15.105  15.507  -1.244  0.00  0.00     0.065 A 
ATOM      4  N   UNL d   1      15.065  14.720  -0.159  0.00  0.00    -0.163 NA
ATOM      5  C   UNL d   1      15.156  15.502  -0.420  0.00  0.00     0.114 A 
ATOM      6  S   UNL d   1      15.304  16.765  -0.830  0.00  0.00     0.091 S 
ATOM      7  C   UNL d   1      15.280  16.279  -0.161  0.00  0.00     0.090 A 
ATOM      8  C   UNL d   1      15.196  16.285  -1.498  0.00  0.00     0.073 A 
ATOM      9  O   UNL d   1      15.417  17.586  -0.835  0.00  0.00    -0.247 OA
ENDROOT
BRANCH   1  10
ATOM     10  N   UNL d   1      14.898  14.476  -2.280  0.00  0.00    -0.189 NA
ATOM     11  C   UNL d   1      14.283  14.758  -2.741  0.00  0.00     0.281 C 
ATOM     12  O   UNL d   1      13.732  15.300  -2.421  0.00  0.00    -0.265 OA
BRANCH  11  13
ATOM     13  C   UNL d   1      14.198  14.513  -3.525  0.00  0.00     0.063 C 
BRANCH  13  14
ATOM     14  C   UNL d   1      14.064  15.071  -4.097  0.00  0.00     0.007 A 
ATOM     15  C   UNL d   1      14.693  15.502  -4.428  0.00  0.00     0.026 A 
ATOM     16  C   UNL d   1      14.549  16.069  -5.010  0.00  0.00     0.116 A 
ATOM     17  C   UNL d   1      13.775  16.204  -5.261  0.00  0.00     0.116 A 
ATOM     18  C   UNL d   1      13.147  15.785  -4.941  0.00  0.00     0.026 A 
ATOM     19  C   UNL d   1      13.295  15.216  -4.357  0.00  0.00     0.002 A 
BRANCH  16  20
ATOM     20  O   UNL d   1      15.171  16.492  -5.334  0.00  0.00    -0.326 OA
ATOM     21  C   UNL d   1      15.949  16.284  -5.158  0.00  0.00     0.181 C 
ENDBRANCH  16  20
BRANCH  17  22
ATOM     22  O   UNL d   1      13.630  16.770  -5.842  0.00  0.00    -0.326 OA
ATOM     23  C   UNL d   1      12.860  17.015  -6.007  0.00  0.00     0.181 C 
ENDBRANCH  17  22
ENDBRANCH  13  14
ENDBRANCH  11  13
ENDBRANCH   1  10
BRANCH   2  24
ATOM     24  C   UNL d   1      14.845  13.419  -0.816  0.00  0.00     0.085 A 
ATOM     25  C   UNL d   1      14.196  13.102  -0.427  0.00  0.00     0.018 A 
ATOM     26  C   UNL d   1      14.085  12.284  -0.419  0.00  0.00     0.002 A 
ATOM     27  C   UNL d   1      13.662  13.594  -0.047  0.00  0.00     0.002 C 
ATOM     28  C   UNL d   1      13.440  11.965  -0.033  0.00  0.00     0.000 C 
ATOM     29  C   UNL d   1      14.628  11.798  -0.805  0.00  0.00     0.000 A 
ATOM     30  C   UNL d   1      15.271  12.129  -1.189  0.00  0.00     0.002 A 
ATOM     31  C   UNL d   1      15.389  12.932  -1.201  0.00  0.00     0.019 A 
ENDBRANCH   2  24
TORSDOF 6
ENDMDL
MODEL 4
REMARK VINA RESULT:      75.9      1.843      4.690
REMARK  6 active torsions:
REMARK  status: ('A' for Active; 'I' for Inactive)
REMARK    1  A    between atoms: N_8  and  C_1 
REMARK    2  A    between atoms: C_6  and  N_2 
REMARK       I    between atoms: C_12  and  N_8 
REMARK    3  A    between atoms: C_20  and  C_12 
REMARK    4  A    between atoms: O_24  and  C_13 
REMARK    5  A    between atoms: O_25  and  C_15 
REMARK    6  A    between atoms: C_19  and  C_20 
ROOT
ATOM      1  C   UNL d   1      14.170  15.467  -3.515  0.00  0.00     0.169 A 
ATOM      2  N   UNL d   1      13.912  14.728  -3.244  0.00  0.00    -0.212 N 
ATOM      3  C   UNL d   1      14.505  15.880  -2.874  0.00  0.00     0.065 A 
ATOM      4  N   UNL d   1      14.087  14.683  -2.435  0.00  0.00    -0.163 NA
ATOM      5  C   UNL d   1      14.452  15.393  -2.209  0.00  0.00     0.114 A 
ATOM      6  S   UNL d   1      15.041  16.533  -1.835  0.00  0.00     0.091 S 
ATOM      7  C   UNL d   1      14.783  15.794  -1.564  0.00  0.00     0.090 A 
ATOM      8  C   UNL d   1      14.868  16.583  -2.645  0.00  0.00     0.073 A 
ATOM      9  O   UNL d   1      15.408  17.120  -1.379  0.00  0.00    -0.247 OA
ENDROOT
BRANCH   1  10
ATOM     10  N   UNL d   1      14.108  15.752  -4.290  0.00  0.00    -0.189 NA
ATOM     11  C   UNL d   1      14.611  16.341  -4.559  0.00  0.00     0.281 C 
ATOM     12  O   UNL d   1      15.193  16.660  -4.050  0.00  0.00    -0.265 OA
BRANCH  11  13
ATOM     13  C   UNL d   1      14.551  16.627  -5.331  0.00  0.00     0.063 C 
BRANCH  13  14
ATOM     14  C   UNL d   1      14.484  17.425  -5.449  0.00  0.00     0.007 A 
ATOM     15  C   UNL d   1      13.810  17.747  -5.815  0.00  0.00     0.026 A 
ATOM     16  C   UNL d   1      13.749  18.561  -5.932  0.00  0.00     0.116 A 
ATOM     17  C   UNL d   1      14.362  19.054  -5.682  0.00  0.00     0.116 A 
ATOM     18  C   UNL d   1      15.030  18.747  -5.320  0.00  0.00     0.026 A 
ATOM     19  C   UNL d   1      15.089  17.929  -5.204  0.00  0.00     0.002 A 
BRANCH  16  20
ATOM     20  O   UNL d   1      13.084  18.875  -6.293  0.00  0.00    -0.326 OA
ATOM     21  C   UNL d   1      13.013  19.691  -6.389  0.00  0.00     0.181 C 
ENDBRANCH  16  20
BRANCH  17  22
ATOM     22  O   UNL d   1      14.301  19.868  -5.799  0.00  0.00    -0.326 OA
ATOM     23  C   UNL d   1      14.924  20.368  -5.595  0.00  0.00     0.181 C 
ENDBRANCH  17  22
ENDBRANCH  13  14
ENDBRANCH  11  13
ENDBRANCH   1  10
BRANCH   2  24
ATOM     24  C   UNL d   1      13.547  14.142  -3.695  0.00  0.00     0.085 A 
ATOM     25  C   UNL d   1      13.605  13.357  -3.464  0.00  0.00     0.018 A 
ATOM     26  C   UNL d   1      13.240  12.771  -3.916  0.00  0.00     0.002 A 
ATOM     27  C   UNL d   1      14.023  13.157  -2.788  0.00  0.00     0.002 C 
ATOM     28  C   UNL d   1      13.295  11.989  -3.688  0.00  0.00     0.000 C 
ATOM     29  C   UNL d   1      12.821  12.984  -4.594  0.00  0.00     0.000 A 
ATOM     30  C   UNL d   1      12.772  13.772  -4.812  0.00  0.00     0.002 A 
ATOM     31  C   UNL d   1      13.128  14.355  -4.374  0.00  0.00     0.019 A 
ENDBRANCH   2  24
TORSDOF 6
ENDMDL
