MODEL 1
REMARK VINA RESULT:      60.3      0.000      0.000
REMARK  3 active torsions:
REMARK  status: ('A' for Active; 'I' for Inactive)
REMARK    1  A    between atoms: C_8  and  C_4 
REMARK    2  A    between atoms: N_5  and  C_7 
REMARK    3  A    between atoms: C_12  and  C_6 
ROOT
ATOM      1  O   UNL d   1      61.085  47.158  50.423  0.00  0.00    -0.268 OA
ATOM      2  N   UNL d   1      62.014  48.050  50.065  0.00  0.00    -0.121 NA
ATOM      3  N   UNL d   1      62.226  47.322  49.740  0.00  0.00    -0.121 NA
ATOM      4  C   UNL d   1      61.317  47.953  50.483  0.00  0.00     0.204 A 
ATOM      5  C   UNL d   1      61.656  46.768  49.958  0.00  0.00     0.204 A 
ENDROOT
BRANCH   4   6
ATOM      6  C   UNL d   1      60.904  48.539  50.898  0.00  0.00     0.045 A 
ATOM      7  C   UNL d   1      60.130  48.730  50.684  0.00  0.00     0.027 A 
ATOM      8  C   UNL d   1      59.724  49.311  51.099  0.00  0.00     0.127 A 
ATOM      9  C   UNL d   1      60.089  49.705  51.728  0.00  0.00     0.024 A 
ATOM     10  C   UNL d   1      60.859  49.517  51.943  0.00  0.00     0.002 A 
ATOM     11  C   UNL d   1      61.268  48.933  51.528  0.00  0.00     0.004 A 
BRANCH   8  12
ATOM     12  N   UNL d   1      58.943  49.500  50.878  0.00  0.00    -0.114 N 
ATOM     13  O   UNL d   1      58.775  49.708  50.089  0.00  0.00    -0.532 OA
ATOM     14  O   UNL d   1      58.335  49.482  51.437  0.00  0.00    -0.532 OA
ENDBRANCH   8  12
ENDBRANCH   4   6
BRANCH   5  15
ATOM     15  C   UNL d   1      61.652  45.972  49.753  0.00  0.00     0.043 A 
ATOM     16  C   UNL d   1      62.019  45.723  49.060  0.00  0.00     0.004 A 
ATOM     17  C   UNL d   1      62.014  44.918  48.856  0.00  0.00     0.000 A 
ATOM     18  C   UNL d   1      61.640  44.371  49.347  0.00  0.00     0.000 A 
ATOM     19  C   UNL d   1      61.272  44.630  50.043  0.00  0.00     0.000 A 
ATOM     20  C   UNL d   1      61.274  45.427  50.251  0.00  0.00     0.004 A 
ENDBRANCH   5  15
TORSDOF 3
ENDMDL
MODEL 2
REMARK VINA RESULT:      61.2      1.172      1.514
REMARK  3 active torsions:
REMARK  status: ('A' for Active; 'I' for Inactive)
REMARK    1  A    between atoms: C_8  and  C_4 
REMARK    2  A    between atoms: N_5  and  C_7 
REMARK    3  A    between atoms: C_12  and  C_6 
ROOT
ATOM      1  O   UNL d   1      61.086  46.979  50.219  0.00  0.00    -0.268 OA
ATOM      2  N   UNL d   1      62.101  47.763  49.846  0.00  0.00    -0.121 NA
ATOM      3  N   UNL d   1      62.279  46.993  49.608  0.00  0.00    -0.121 NA
ATOM      4  C   UNL d   1      61.374  47.758  50.220  0.00  0.00     0.204 A 
ATOM      5  C   UNL d   1      61.654  46.505  49.837  0.00  0.00     0.204 A 
ENDROOT
BRANCH   4   6
ATOM      6  C   UNL d   1      60.981  48.410  50.547  0.00  0.00     0.045 A 
ATOM      7  C   UNL d   1      61.144  48.645  51.320  0.00  0.00     0.027 A 
ATOM      8  C   UNL d   1      60.752  49.292  51.641  0.00  0.00     0.127 A 
ATOM      9  C   UNL d   1      60.196  49.707  51.190  0.00  0.00     0.024 A 
ATOM     10  C   UNL d   1      60.032  49.474  50.420  0.00  0.00     0.002 A 
ATOM     11  C   UNL d   1      60.425  48.824  50.096  0.00  0.00     0.004 A 
BRANCH   8  12
ATOM     12  N   UNL d   1      60.921  49.525  52.422  0.00  0.00    -0.114 N 
ATOM     13  O   UNL d   1      61.704  49.707  52.640  0.00  0.00    -0.532 OA
ATOM     14  O   UNL d   1      60.316  49.578  52.983  0.00  0.00    -0.532 OA
ENDBRANCH   8  12
ENDBRANCH   4   6
BRANCH   5  15
ATOM     15  C   UNL d   1      61.603  45.694  49.709  0.00  0.00     0.043 A 
ATOM     16  C   UNL d   1      61.393  45.192  50.325  0.00  0.00     0.004 A 
ATOM     17  C   UNL d   1      61.342  44.374  50.192  0.00  0.00     0.000 A 
ATOM     18  C   UNL d   1      61.502  44.067  49.444  0.00  0.00     0.000 A 
ATOM     19  C   UNL d   1      61.714  44.581  48.828  0.00  0.00     0.000 A 
ATOM     20  C   UNL d   1      61.766  45.393  48.953  0.00  0.00     0.004 A 
ENDBRANCH   5  15
TORSDOF 3
ENDMDL
MODEL 3
REMARK VINA RESULT:      62.4      1.345      1.980
REMARK  3 active torsions:
REMARK  status: ('A' for Active; 'I' for Inactive)
REMARK    1  A    between atoms: C_8  and  C_4 
REMARK    2  A    between atoms: N_5  and  C_7 
REMARK    3  A    between atoms: C_12  and  C_6 
ROOT
ATOM      1  O   UNL d   1      60.078  48.126  50.646  0.00  0.00    -0.268 OA
ATOM      2  N   UNL d   1      60.479  49.389  50.483  0.00  0.00    -0.121 NA
ATOM      3  N   UNL d   1      61.100  48.897  50.251  0.00  0.00    -0.121 NA
ATOM      4  C   UNL d   1      59.853  48.921  50.725  0.00  0.00     0.204 A 
ATOM      5  C   UNL d   1      60.857  48.115  50.350  0.00  0.00     0.204 A 
ENDROOT
BRANCH   4   6
ATOM      6  C   UNL d   1      59.118  49.183  51.003  0.00  0.00     0.045 A 
ATOM      7  C   UNL d   1      58.472  49.215  50.492  0.00  0.00     0.027 A 
ATOM      8  C   UNL d   1      57.744  49.475  50.771  0.00  0.00     0.127 A 
ATOM      9  C   UNL d   1      57.659  49.704  51.561  0.00  0.00     0.024 A 
ATOM     10  C   UNL d   1      58.302  49.672  52.071  0.00  0.00     0.002 A 
ATOM     11  C   UNL d   1      59.033  49.412  51.793  0.00  0.00     0.004 A 
BRANCH   8  12
ATOM     12  N   UNL d   1      57.094  49.506  50.250  0.00  0.00    -0.114 N 
ATOM     13  O   UNL d   1      56.320  49.529  50.557  0.00  0.00    -0.532 OA
ATOM     14  O   UNL d   1      57.213  49.513  49.433  0.00  0.00    -0.532 OA
ENDBRANCH   8  12
ENDBRANCH   4   6
BRANCH   5  15
ATOM     15  C   UNL d   1      61.304  47.446  50.185  0.00  0.00     0.043 A 
ATOM     16  C   UNL d   1      62.078  47.523  49.916  0.00  0.00     0.004 A 
ATOM     17  C   UNL d   1      62.527  46.845  49.751  0.00  0.00     0.000 A 
ATOM     18  C   UNL d   1      62.198  46.097  49.856  0.00  0.00     0.000 A 
ATOM     19  C   UNL d   1      61.418  46.028  50.128  0.00  0.00     0.000 A 
ATOM     20  C   UNL d   1      60.966  46.696  50.294  0.00  0.00     0.004 A 
ENDBRANCH   5  15
TORSDOF 3
ENDMDL
