MODEL 1
REMARK VINA RESULT:      -4.7      0.000      0.000
REMARK  5 active torsions:
REMARK  status: ('A' for Active; 'I' for Inactive)
REMARK    1  A    between atoms: C_2  and  C_1 
REMARK       I    between atoms: N_3  and  C_1 
REMARK    2  A    between atoms: C_6  and  N_4 
REMARK    3  A    between atoms: O_19  and  C_5 
REMARK    4  A    between atoms: O_22  and  C_7 
REMARK    5  A    between atoms: O_23  and  C_8 
ROOT
ATOM      1  C   UNL d   1     -47.475  14.269  22.543  0.00  0.00     0.265 C 
ATOM      2  N   UNL d   1     -46.971  13.639  22.699  0.00  0.00    -0.269 N 
ATOM      3  N   UNL d   1     -45.959  12.370  23.014  0.00  0.00    -0.301 N 
ATOM      4  C   UNL d   1     -46.159  13.763  22.746  0.00  0.00     0.102 A 
ATOM      5  C   UNL d   1     -47.276  12.876  22.811  0.00  0.00     0.102 A 
ATOM      6  C   UNL d   1     -46.771  12.247  22.967  0.00  0.00     0.100 A 
ATOM      7  C   UNL d   1     -45.649  13.126  22.904  0.00  0.00     0.100 A 
ATOM      8  O   UNL d   1     -47.168  15.027  22.432  0.00  0.00    -0.267 OA
ENDROOT
BRANCH   1   9
ATOM      9  C   UNL d   1     -48.288  14.145  22.497  0.00  0.00     0.061 A 
ATOM     10  C   UNL d   1     -48.783  14.380  23.124  0.00  0.00     0.031 A 
ATOM     11  C   UNL d   1     -49.599  14.254  23.074  0.00  0.00     0.118 A 
ATOM     12  C   UNL d   1     -49.921  13.898  22.406  0.00  0.00     0.138 A 
ATOM     13  C   UNL d   1     -49.431  13.665  21.785  0.00  0.00     0.118 A 
ATOM     14  C   UNL d   1     -48.613  13.787  21.826  0.00  0.00     0.031 A 
BRANCH  11  15
ATOM     15  O   UNL d   1     -50.086  14.489  23.698  0.00  0.00    -0.326 OA
ATOM     16  C   UNL d   1     -50.569  15.151  23.622  0.00  0.00     0.181 C 
ENDBRANCH  11  15
BRANCH  12  17
ATOM     17  O   UNL d   1     -50.733  13.774  22.359  0.00  0.00    -0.324 OA
ATOM     18  C   UNL d   1     -51.042  13.016  22.467  0.00  0.00     0.182 C 
ENDBRANCH  12  17
BRANCH  13  19
ATOM     19  O   UNL d   1     -49.754  13.303  21.106  0.00  0.00    -0.326 OA
ATOM     20  C   UNL d   1     -49.271  13.154  20.456  0.00  0.00     0.181 C 
ENDBRANCH  13  19
ENDBRANCH   1   9
BRANCH   3  21
ATOM     21  C   UNL d   1     -45.453  11.735  23.171  0.00  0.00     0.064 A 
ATOM     22  C   UNL d   1     -45.750  11.052  23.513  0.00  0.00     0.016 A 
ATOM     23  C   UNL d   1     -45.252  10.421  23.671  0.00  0.00     0.001 A 
ATOM     24  C   UNL d   1     -46.552  11.004  23.698  0.00  0.00     0.002 C 
ATOM     25  C   UNL d   1     -44.443  10.473  23.483  0.00  0.00     0.000 A 
ATOM     26  C   UNL d   1     -44.147  11.164  23.138  0.00  0.00     0.002 A 
ATOM     27  C   UNL d   1     -43.938   9.842  23.639  0.00  0.00     0.000 C 
ATOM     28  C   UNL d   1     -44.652  11.796  22.982  0.00  0.00     0.018 A 
ENDBRANCH   3  21
TORSDOF 5
ENDMDL
MODEL 2
REMARK VINA RESULT:      -4.5      1.367      1.931
REMARK  5 active torsions:
REMARK  status: ('A' for Active; 'I' for Inactive)
REMARK    1  A    between atoms: C_2  and  C_1 
REMARK       I    between atoms: N_3  and  C_1 
REMARK    2  A    between atoms: C_6  and  N_4 
REMARK    3  A    between atoms: O_19  and  C_5 
REMARK    4  A    between atoms: O_22  and  C_7 
REMARK    5  A    between atoms: O_23  and  C_8 
ROOT
ATOM      1  C   UNL d   1     -48.117  14.045  23.101  0.00  0.00     0.265 C 
ATOM      2  N   UNL d   1     -47.364  13.812  22.870  0.00  0.00    -0.269 N 
ATOM      3  N   UNL d   1     -45.849  13.342  22.402  0.00  0.00    -0.301 N 
ATOM      4  C   UNL d   1     -46.702  14.191  23.178  0.00  0.00     0.102 A 
ATOM      5  C   UNL d   1     -47.265  13.194  22.325  0.00  0.00     0.102 A 
ATOM      6  C   UNL d   1     -46.512  12.962  22.094  0.00  0.00     0.100 A 
ATOM      7  C   UNL d   1     -45.940  13.956  22.944  0.00  0.00     0.100 A 
ATOM      8  O   UNL d   1     -48.212  14.659  23.644  0.00  0.00    -0.267 OA
ENDROOT
BRANCH   1   9
ATOM      9  C   UNL d   1     -48.779  13.665  22.793  0.00  0.00     0.061 A 
ATOM     10  C   UNL d   1     -49.207  14.012  22.168  0.00  0.00     0.031 A 
ATOM     11  C   UNL d   1     -49.871  13.628  21.861  0.00  0.00     0.118 A 
ATOM     12  C   UNL d   1     -50.111  12.904  22.171  0.00  0.00     0.138 A 
ATOM     13  C   UNL d   1     -49.687  12.560  22.791  0.00  0.00     0.118 A 
ATOM     14  C   UNL d   1     -49.020  12.937  23.105  0.00  0.00     0.031 A 
BRANCH  11  15
ATOM     15  O   UNL d   1     -50.292  13.975  21.241  0.00  0.00    -0.326 OA
ATOM     16  C   UNL d   1     -50.448  14.784  21.246  0.00  0.00     0.181 C 
ENDBRANCH  11  15
BRANCH  12  17
ATOM     17  O   UNL d   1     -50.772  12.524  21.864  0.00  0.00    -0.324 OA
ATOM     18  C   UNL d   1     -50.684  11.953  21.274  0.00  0.00     0.182 C 
ENDBRANCH  12  17
BRANCH  13  19
ATOM     19  O   UNL d   1     -49.926  11.827  23.108  0.00  0.00    -0.326 OA
ATOM     20  C   UNL d   1     -49.463  11.462  23.684  0.00  0.00     0.181 C 
ENDBRANCH  13  19
ENDBRANCH   1   9
BRANCH   3  21
ATOM     21  C   UNL d   1     -45.092  13.106  22.168  0.00  0.00     0.064 A 
ATOM     22  C   UNL d   1     -44.800  12.378  22.405  0.00  0.00     0.016 A 
ATOM     23  C   UNL d   1     -44.050  12.141  22.175  0.00  0.00     0.001 A 
ATOM     24  C   UNL d   1     -45.264  11.886  22.875  0.00  0.00     0.002 C 
ATOM     25  C   UNL d   1     -43.583  12.640  21.699  0.00  0.00     0.000 A 
ATOM     26  C   UNL d   1     -43.882  13.374  21.463  0.00  0.00     0.002 A 
ATOM     27  C   UNL d   1     -42.830  12.407  21.466  0.00  0.00     0.000 C 
ATOM     28  C   UNL d   1     -44.637  13.608  21.697  0.00  0.00     0.018 A 
ENDBRANCH   3  21
TORSDOF 5
ENDMDL
MODEL 3
REMARK VINA RESULT:      -4.4      7.809      9.634
REMARK  5 active torsions:
REMARK  status: ('A' for Active; 'I' for Inactive)
REMARK    1  A    between atoms: C_2  and  C_1 
REMARK       I    between atoms: N_3  and  C_1 
REMARK    2  A    between atoms: C_6  and  N_4 
REMARK    3  A    between atoms: O_19  and  C_5 
REMARK    4  A    between atoms: O_22  and  C_7 
REMARK    5  A    between atoms: O_23  and  C_8 
ROOT
ATOM      1  C   UNL d   1     -38.946  15.329  19.970  0.00  0.00     0.265 C 
ATOM      2  N   UNL d   1     -38.816  15.101  19.191  0.00  0.00    -0.269 N 
ATOM      3  N   UNL d   1     -38.557  14.641  17.625  0.00  0.00    -0.301 N 
ATOM      4  C   UNL d   1     -38.224  15.463  18.749  0.00  0.00     0.102 A 
ATOM      5  C   UNL d   1     -39.279  14.506  18.846  0.00  0.00     0.102 A 
ATOM      6  C   UNL d   1     -39.149  14.279  18.067  0.00  0.00     0.100 A 
ATOM      7  C   UNL d   1     -38.093  15.233  17.961  0.00  0.00     0.100 A 
ATOM      8  O   UNL d   1     -38.483  15.921  20.311  0.00  0.00    -0.267 OA
ENDROOT
BRANCH   1   9
ATOM      9  C   UNL d   1     -39.538  14.967  20.413  0.00  0.00     0.061 A 
ATOM     10  C   UNL d   1     -40.322  15.244  20.367  0.00  0.00     0.031 A 
ATOM     11  C   UNL d   1     -40.915  14.878  20.813  0.00  0.00     0.118 A 
ATOM     12  C   UNL d   1     -40.731  14.241  21.301  0.00  0.00     0.138 A 
ATOM     13  C   UNL d   1     -39.954  13.966  21.346  0.00  0.00     0.118 A 
ATOM     14  C   UNL d   1     -39.354  14.327  20.903  0.00  0.00     0.031 A 
BRANCH  11  15
ATOM     15  O   UNL d   1     -41.690  15.156  20.766  0.00  0.00    -0.326 OA
ATOM     16  C   UNL d   1     -41.904  15.859  21.138  0.00  0.00     0.181 C 
ENDBRANCH  11  15
BRANCH  12  17
ATOM     17  O   UNL d   1     -41.322  13.879  21.743  0.00  0.00    -0.324 OA
ATOM     18  C   UNL d   1     -41.793  13.293  21.403  0.00  0.00     0.182 C 
ENDBRANCH  12  17
BRANCH  13  19
ATOM     19  O   UNL d   1     -39.763  13.321  21.838  0.00  0.00    -0.326 OA
ATOM     20  C   UNL d   1     -39.168  13.402  22.403  0.00  0.00     0.181 C 
ENDBRANCH  13  19
ENDBRANCH   1   9
BRANCH   3  21
ATOM     21  C   UNL d   1     -38.427  14.410  16.841  0.00  0.00     0.064 A 
ATOM     22  C   UNL d   1     -38.582  13.639  16.612  0.00  0.00     0.016 A 
ATOM     23  C   UNL d   1     -38.455  13.406  15.837  0.00  0.00     0.001 A 
ATOM     24  C   UNL d   1     -38.865  13.098  17.166  0.00  0.00     0.002 C 
ATOM     25  C   UNL d   1     -38.169  13.955  15.280  0.00  0.00     0.000 A 
ATOM     26  C   UNL d   1     -38.014  14.732  15.515  0.00  0.00     0.002 A 
ATOM     27  C   UNL d   1     -38.040  13.727  14.500  0.00  0.00     0.000 C 
ATOM     28  C   UNL d   1     -38.143  14.961  16.296  0.00  0.00     0.018 A 
ENDBRANCH   3  21
TORSDOF 5
ENDMDL
MODEL 4
REMARK VINA RESULT:      -4.2      8.073     10.138
REMARK  5 active torsions:
REMARK  status: ('A' for Active; 'I' for Inactive)
REMARK    1  A    between atoms: C_2  and  C_1 
REMARK       I    between atoms: N_3  and  C_1 
REMARK    2  A    between atoms: C_6  and  N_4 
REMARK    3  A    between atoms: O_19  and  C_5 
REMARK    4  A    between atoms: O_22  and  C_7 
REMARK    5  A    between atoms: O_23  and  C_8 
ROOT
ATOM      1  C   UNL d   1     -40.237  14.198  19.713  0.00  0.00     0.265 C 
ATOM      2  N   UNL d   1     -39.910  14.279  18.963  0.00  0.00    -0.269 N 
ATOM      3  N   UNL d   1     -39.252  14.441  17.455  0.00  0.00    -0.301 N 
ATOM      4  C   UNL d   1     -40.359  14.100  18.297  0.00  0.00     0.102 A 
ATOM      5  C   UNL d   1     -39.129  14.540  18.871  0.00  0.00     0.102 A 
ATOM      6  C   UNL d   1     -38.803  14.621  18.121  0.00  0.00     0.100 A 
ATOM      7  C   UNL d   1     -40.030  14.181  17.538  0.00  0.00     0.100 A 
ATOM      8  O   UNL d   1     -41.015  13.938  19.800  0.00  0.00    -0.267 OA
ENDROOT
BRANCH   1   9
ATOM      9  C   UNL d   1     -39.788  14.378  20.379  0.00  0.00     0.061 A 
ATOM     10  C   UNL d   1     -39.127  13.911  20.576  0.00  0.00     0.031 A 
ATOM     11  C   UNL d   1     -38.678  14.093  21.246  0.00  0.00     0.118 A 
ATOM     12  C   UNL d   1     -38.883  14.736  21.718  0.00  0.00     0.138 A 
ATOM     13  C   UNL d   1     -39.538  15.198  21.523  0.00  0.00     0.118 A 
ATOM     14  C   UNL d   1     -39.994  15.023  20.855  0.00  0.00     0.031 A 
BRANCH  11  15
ATOM     15  O   UNL d   1     -38.023  13.628  21.437  0.00  0.00    -0.326 OA
ATOM     16  C   UNL d   1     -38.048  12.812  21.331  0.00  0.00     0.181 C 
ENDBRANCH  11  15
BRANCH  12  17
ATOM     17  O   UNL d   1     -38.435  14.915  22.384  0.00  0.00    -0.324 OA
ATOM     18  C   UNL d   1     -38.604  14.553  23.106  0.00  0.00     0.182 C 
ENDBRANCH  12  17
BRANCH  13  19
ATOM     19  O   UNL d   1     -39.750  15.850  21.999  0.00  0.00    -0.326 OA
ATOM     20  C   UNL d   1     -40.525  15.922  22.269  0.00  0.00     0.181 C 
ENDBRANCH  13  19
ENDBRANCH   1   9
BRANCH   3  21
ATOM     21  C   UNL d   1     -38.922  14.523  16.701  0.00  0.00     0.064 A 
ATOM     22  C   UNL d   1     -38.531  13.890  16.357  0.00  0.00     0.016 A 
ATOM     23  C   UNL d   1     -38.203  13.967  15.610  0.00  0.00     0.001 A 
ATOM     24  C   UNL d   1     -38.469  13.178  16.766  0.00  0.00     0.002 C 
ATOM     25  C   UNL d   1     -38.267  14.689  15.199  0.00  0.00     0.000 A 
ATOM     26  C   UNL d   1     -38.663  15.324  15.551  0.00  0.00     0.002 A 
ATOM     27  C   UNL d   1     -37.940  14.771  14.449  0.00  0.00     0.000 C 
ATOM     28  C   UNL d   1     -38.991  15.242  16.301  0.00  0.00     0.018 A 
ENDBRANCH   3  21
TORSDOF 5
ENDMDL
MODEL 5
REMARK VINA RESULT:      -3.9      1.221      1.861
REMARK  5 active torsions:
REMARK  status: ('A' for Active; 'I' for Inactive)
REMARK    1  A    between atoms: C_2  and  C_1 
REMARK       I    between atoms: N_3  and  C_1 
REMARK    2  A    between atoms: C_6  and  N_4 
REMARK    3  A    between atoms: O_19  and  C_5 
REMARK    4  A    between atoms: O_22  and  C_7 
REMARK    5  A    between atoms: O_23  and  C_8 
ROOT
ATOM      1  C   UNL d   1     -48.939  12.396  23.243  0.00  0.00     0.265 C 
ATOM      2  N   UNL d   1     -48.143  12.447  23.044  0.00  0.00    -0.269 N 
ATOM      3  N   UNL d   1     -46.543  12.551  22.643  0.00  0.00    -0.301 N 
ATOM      4  C   UNL d   1     -47.617  11.866  23.296  0.00  0.00     0.102 A 
ATOM      5  C   UNL d   1     -47.864  13.082  22.590  0.00  0.00     0.102 A 
ATOM      6  C   UNL d   1     -47.069  13.133  22.391  0.00  0.00     0.100 A 
ATOM      7  C   UNL d   1     -46.813  11.917  23.095  0.00  0.00     0.100 A 
ATOM      8  O   UNL d   1     -49.213  11.762  23.696  0.00  0.00    -0.267 OA
ENDROOT
BRANCH   1   9
ATOM      9  C   UNL d   1     -49.465  12.977  22.992  0.00  0.00     0.061 A 
ATOM     10  C   UNL d   1     -49.555  13.678  23.432  0.00  0.00     0.031 A 
ATOM     11  C   UNL d   1     -50.084  14.260  23.177  0.00  0.00     0.118 A 
ATOM     12  C   UNL d   1     -50.522  14.147  22.489  0.00  0.00     0.138 A 
ATOM     13  C   UNL d   1     -50.433  13.453  22.053  0.00  0.00     0.118 A 
ATOM     14  C   UNL d   1     -49.905  12.864  22.300  0.00  0.00     0.031 A 
BRANCH  11  15
ATOM     15  O   UNL d   1     -50.170  14.953  23.616  0.00  0.00    -0.326 OA
ATOM     16  C   UNL d   1     -49.549  15.492  23.670  0.00  0.00     0.181 C 
ENDBRANCH  11  15
BRANCH  12  17
ATOM     17  O   UNL d   1     -51.047  14.727  22.237  0.00  0.00    -0.324 OA
ATOM     18  C   UNL d   1     -50.971  15.056  21.484  0.00  0.00     0.182 C 
ENDBRANCH  12  17
BRANCH  13  19
ATOM     19  O   UNL d   1     -50.874  13.334  21.355  0.00  0.00    -0.326 OA
ATOM     20  C   UNL d   1     -50.961  12.573  21.053  0.00  0.00     0.181 C 
ENDBRANCH  13  19
ENDBRANCH   1   9
BRANCH   3  21
ATOM     21  C   UNL d   1     -45.742  12.604  22.441  0.00  0.00     0.064 A 
ATOM     22  C   UNL d   1     -45.223  12.015  22.678  0.00  0.00     0.016 A 
ATOM     23  C   UNL d   1     -44.430  12.064  22.480  0.00  0.00     0.001 A 
ATOM     24  C   UNL d   1     -45.503  11.375  23.114  0.00  0.00     0.002 C 
ATOM     25  C   UNL d   1     -44.149  12.712  22.039  0.00  0.00     0.000 A 
ATOM     26  C   UNL d   1     -44.677  13.304  21.803  0.00  0.00     0.002 A 
ATOM     27  C   UNL d   1     -43.353  12.766  21.838  0.00  0.00     0.000 C 
ATOM     28  C   UNL d   1     -45.474  13.250  22.004  0.00  0.00     0.018 A 
ENDBRANCH   3  21
TORSDOF 5
ENDMDL
MODEL 6
REMARK VINA RESULT:      -2.9      1.164      2.207
REMARK  5 active torsions:
REMARK  status: ('A' for Active; 'I' for Inactive)
REMARK    1  A    between atoms: C_2  and  C_1 
REMARK       I    between atoms: N_3  and  C_1 
REMARK    2  A    between atoms: C_6  and  N_4 
REMARK    3  A    between atoms: O_19  and  C_5 
REMARK    4  A    between atoms: O_22  and  C_7 
REMARK    5  A    between atoms: O_23  and  C_8 
ROOT
ATOM      1  C   UNL d   1     -48.933  12.054  23.248  0.00  0.00     0.265 C 
ATOM      2  N   UNL d   1     -48.146  11.820  23.277  0.00  0.00    -0.269 N 
ATOM      3  N   UNL d   1     -46.561  11.352  23.332  0.00  0.00    -0.301 N 
ATOM      4  C   UNL d   1     -47.935  11.128  23.669  0.00  0.00     0.102 A 
ATOM      5  C   UNL d   1     -47.559  12.278  22.911  0.00  0.00     0.102 A 
ATOM      6  C   UNL d   1     -46.772  12.044  22.940  0.00  0.00     0.100 A 
ATOM      7  C   UNL d   1     -47.139  10.892  23.698  0.00  0.00     0.100 A 
ATOM      8  O   UNL d   1     -49.514  11.595  23.613  0.00  0.00    -0.267 OA
ENDROOT
BRANCH   1   9
ATOM      9  C   UNL d   1     -49.144  12.746  22.856  0.00  0.00     0.061 A 
ATOM     10  C   UNL d   1     -49.565  12.708  22.138  0.00  0.00     0.031 A 
ATOM     11  C   UNL d   1     -49.775  13.405  21.746  0.00  0.00     0.118 A 
ATOM     12  C   UNL d   1     -49.569  14.136  22.065  0.00  0.00     0.138 A 
ATOM     13  C   UNL d   1     -49.153  14.174  22.776  0.00  0.00     0.118 A 
ATOM     14  C   UNL d   1     -48.938  13.481  23.175  0.00  0.00     0.031 A 
BRANCH  11  15
ATOM     15  O   UNL d   1     -50.192  13.363  21.035  0.00  0.00    -0.326 OA
ATOM     16  C   UNL d   1     -50.297  12.639  20.656  0.00  0.00     0.181 C 
ENDBRANCH  11  15
BRANCH  12  17
ATOM     17  O   UNL d   1     -49.780  14.828  21.673  0.00  0.00    -0.324 OA
ATOM     18  C   UNL d   1     -49.332  15.513  21.775  0.00  0.00     0.182 C 
ENDBRANCH  12  17
BRANCH  13  19
ATOM     19  O   UNL d   1     -48.942  14.912  23.102  0.00  0.00    -0.326 OA
ATOM     20  C   UNL d   1     -49.410  15.244  23.693  0.00  0.00     0.181 C 
ENDBRANCH  13  19
ENDBRANCH   1   9
BRANCH   3  21
ATOM     21  C   UNL d   1     -45.768  11.119  23.360  0.00  0.00     0.064 A 
ATOM     22  C   UNL d   1     -45.185  11.622  23.081  0.00  0.00     0.016 A 
ATOM     23  C   UNL d   1     -44.398  11.395  23.106  0.00  0.00     0.001 A 
ATOM     24  C   UNL d   1     -45.393  12.358  22.774  0.00  0.00     0.002 C 
ATOM     25  C   UNL d   1     -44.190  10.650  23.417  0.00  0.00     0.000 A 
ATOM     26  C   UNL d   1     -44.782  10.146  23.697  0.00  0.00     0.002 A 
ATOM     27  C   UNL d   1     -43.402  10.416  23.445  0.00  0.00     0.000 C 
ATOM     28  C   UNL d   1     -45.572  10.379  23.669  0.00  0.00     0.018 A 
ENDBRANCH   3  21
TORSDOF 5
ENDMDL
MODEL 7
REMARK VINA RESULT:      -2.9      1.763      5.261
REMARK  5 active torsions:
REMARK  status: ('A' for Active; 'I' for Inactive)
REMARK    1  A    between atoms: C_2  and  C_1 
REMARK       I    between atoms: N_3  and  C_1 
REMARK    2  A    between atoms: C_6  and  N_4 
REMARK    3  A    between atoms: O_19  and  C_5 
REMARK    4  A    between atoms: O_22  and  C_7 
REMARK    5  A    between atoms: O_23  and  C_8 
ROOT
ATOM      1  C   UNL d   1     -47.008  12.216  21.716  0.00  0.00     0.265 C 
ATOM      2  N   UNL d   1     -47.574  12.744  21.994  0.00  0.00    -0.269 N 
ATOM      3  N   UNL d   1     -48.710  13.806  22.554  0.00  0.00    -0.301 N 
ATOM      4  C   UNL d   1     -48.300  12.809  21.612  0.00  0.00     0.102 A 
ATOM      5  C   UNL d   1     -47.418  13.214  22.659  0.00  0.00     0.102 A 
ATOM      6  C   UNL d   1     -47.984  13.742  22.936  0.00  0.00     0.100 A 
ATOM      7  C   UNL d   1     -48.872  13.342  21.893  0.00  0.00     0.100 A 
ATOM      8  O   UNL d   1     -47.167  11.750  21.054  0.00  0.00    -0.267 OA
ENDROOT
BRANCH   1   9
ATOM      9  C   UNL d   1     -46.282  12.152  22.098  0.00  0.00     0.061 A 
ATOM     10  C   UNL d   1     -45.651  12.651  21.882  0.00  0.00     0.031 A 
ATOM     11  C   UNL d   1     -44.922  12.584  22.268  0.00  0.00     0.118 A 
ATOM     12  C   UNL d   1     -44.820  12.024  22.863  0.00  0.00     0.138 A 
ATOM     13  C   UNL d   1     -45.445  11.530  23.076  0.00  0.00     0.118 A 
ATOM     14  C   UNL d   1     -46.178  11.590  22.696  0.00  0.00     0.031 A 
BRANCH  11  15
ATOM     15  O   UNL d   1     -44.300  13.080  22.052  0.00  0.00    -0.326 OA
ATOM     16  C   UNL d   1     -44.180  13.279  21.261  0.00  0.00     0.181 C 
ENDBRANCH  11  15
BRANCH  12  17
ATOM     17  O   UNL d   1     -44.095  11.959  23.245  0.00  0.00    -0.324 OA
ATOM     18  C   UNL d   1     -43.620  11.296  23.121  0.00  0.00     0.182 C 
ENDBRANCH  12  17
BRANCH  13  19
ATOM     19  O   UNL d   1     -45.346  10.962  23.679  0.00  0.00    -0.326 OA
ATOM     20  C   UNL d   1     -45.835  10.299  23.698  0.00  0.00     0.181 C 
ENDBRANCH  13  19
ENDBRANCH   1   9
BRANCH   3  21
ATOM     21  C   UNL d   1     -49.278  14.338  22.835  0.00  0.00     0.064 A 
ATOM     22  C   UNL d   1     -49.181  15.142  22.710  0.00  0.00     0.016 A 
ATOM     23  C   UNL d   1     -49.741  15.672  22.987  0.00  0.00     0.001 A 
ATOM     24  C   UNL d   1     -48.517  15.415  22.305  0.00  0.00     0.002 C 
ATOM     25  C   UNL d   1     -50.411  15.393  23.396  0.00  0.00     0.000 A 
ATOM     26  C   UNL d   1     -50.505  14.581  23.520  0.00  0.00     0.002 A 
ATOM     27  C   UNL d   1     -50.977  15.921  23.676  0.00  0.00     0.000 C 
ATOM     28  C   UNL d   1     -49.939  14.053  23.240  0.00  0.00     0.018 A 
ENDBRANCH   3  21
TORSDOF 5
ENDMDL
MODEL 8
REMARK VINA RESULT:      -2.3      7.421      9.466
REMARK  5 active torsions:
REMARK  status: ('A' for Active; 'I' for Inactive)
REMARK    1  A    between atoms: C_2  and  C_1 
REMARK       I    between atoms: N_3  and  C_1 
REMARK    2  A    between atoms: C_6  and  N_4 
REMARK    3  A    between atoms: O_19  and  C_5 
REMARK    4  A    between atoms: O_22  and  C_7 
REMARK    5  A    between atoms: O_23  and  C_8 
ROOT
ATOM      1  C   UNL d   1     -38.883  14.943  19.025  0.00  0.00     0.265 C 
ATOM      2  N   UNL d   1     -39.536  14.667  19.443  0.00  0.00    -0.269 N 
ATOM      3  N   UNL d   1     -40.848  14.113  20.281  0.00  0.00    -0.301 N 
ATOM      4  C   UNL d   1     -39.607  14.825  20.247  0.00  0.00     0.102 A 
ATOM      5  C   UNL d   1     -40.126  14.230  19.058  0.00  0.00     0.102 A 
ATOM      6  C   UNL d   1     -40.777  13.955  19.476  0.00  0.00     0.100 A 
ATOM      7  C   UNL d   1     -40.266  14.547  20.670  0.00  0.00     0.100 A 
ATOM      8  O   UNL d   1     -38.298  15.378  19.412  0.00  0.00    -0.267 OA
ENDROOT
BRANCH   1   9
ATOM      9  C   UNL d   1     -38.812  14.785  18.221  0.00  0.00     0.061 A 
ATOM     10  C   UNL d   1     -39.135  15.311  17.661  0.00  0.00     0.031 A 
ATOM     11  C   UNL d   1     -39.062  15.149  16.854  0.00  0.00     0.118 A 
ATOM     12  C   UNL d   1     -38.671  14.470  16.602  0.00  0.00     0.138 A 
ATOM     13  C   UNL d   1     -38.351  13.949  17.156  0.00  0.00     0.118 A 
ATOM     14  C   UNL d   1     -38.419  14.102  17.967  0.00  0.00     0.031 A 
BRANCH  11  15
ATOM     15  O   UNL d   1     -39.383  15.672  16.303  0.00  0.00    -0.326 OA
ATOM     16  C   UNL d   1     -40.166  15.921  16.372  0.00  0.00     0.181 C 
ENDBRANCH  11  15
BRANCH  12  17
ATOM     17  O   UNL d   1     -38.600  14.311  15.798  0.00  0.00    -0.324 OA
ATOM     18  C   UNL d   1     -37.945  14.588  15.379  0.00  0.00     0.182 C 
ENDBRANCH  12  17
BRANCH  13  19
ATOM     19  O   UNL d   1     -37.954  13.259  16.905  0.00  0.00    -0.326 OA
ATOM     20  C   UNL d   1     -38.123  12.538  17.267  0.00  0.00     0.181 C 
ENDBRANCH  13  19
ENDBRANCH   1   9
BRANCH   3  21
ATOM     21  C   UNL d   1     -41.506  13.835  20.700  0.00  0.00     0.064 A 
ATOM     22  C   UNL d   1     -42.100  14.356  20.918  0.00  0.00     0.016 A 
ATOM     23  C   UNL d   1     -42.752  14.086  21.332  0.00  0.00     0.001 A 
ATOM     24  C   UNL d   1     -42.038  15.153  20.717  0.00  0.00     0.002 C 
ATOM     25  C   UNL d   1     -42.812  13.279  21.533  0.00  0.00     0.000 A 
ATOM     26  C   UNL d   1     -42.210  12.758  21.311  0.00  0.00     0.002 A 
ATOM     27  C   UNL d   1     -43.465  13.002  21.950  0.00  0.00     0.000 C 
ATOM     28  C   UNL d   1     -41.557  13.035  20.894  0.00  0.00     0.018 A 
ENDBRANCH   3  21
TORSDOF 5
ENDMDL
