MODEL 1
REMARK VINA RESULT:      -4.0      0.000      0.000
REMARK  2 active torsions:
REMARK  status: ('A' for Active; 'I' for Inactive)
REMARK    1  A    between atoms: C_10  and  N_3 
REMARK    2  A    between atoms: C_11  and  C_4 
ROOT
ATOM      1  C   UNL d   1     -41.389-122.060 -52.099  0.00  0.00     0.152 A 
ATOM      2  C   UNL d   1     -41.501-122.203 -51.300  0.00  0.00     0.065 A 
ATOM      3  N   UNL d   1     -41.501-122.772 -52.506  0.00  0.00    -0.290 N 
ATOM      4  C   UNL d   1     -41.683-123.005 -51.206  0.00  0.00     0.023 A 
ATOM      5  C   UNL d   1     -41.682-123.350 -51.949  0.00  0.00     0.082 A 
ATOM      6  N   UNL d   1     -41.199-121.303 -52.364  0.00  0.00    -0.206 NA
ATOM      7  C   UNL d   1     -41.425-121.591 -50.752  0.00  0.00     0.143 A 
ATOM      8  N   UNL d   1     -41.235-120.833 -51.017  0.00  0.00    -0.212 NA
ATOM      9  C   UNL d   1     -41.123-120.689 -51.816  0.00  0.00     0.201 A 
ATOM     10 CL   UNL d   1     -41.537-121.734 -49.954  0.00  0.00    -0.061 Cl
ENDROOT
BRANCH   3  11
ATOM     11  C   UNL d   1     -41.451-122.919 -53.306  0.00  0.00     0.065 A 
ATOM     12  C   UNL d   1     -41.636-122.325 -53.847  0.00  0.00     0.018 A 
ATOM     13  C   UNL d   1     -41.586-122.473 -54.658  0.00  0.00     0.002 A 
ATOM     14  C   UNL d   1     -41.347-123.225 -54.933  0.00  0.00     0.000 A 
ATOM     15  C   UNL d   1     -41.163-123.813 -54.383  0.00  0.00     0.002 A 
ATOM     16  C   UNL d   1     -41.215-123.661 -53.574  0.00  0.00     0.018 A 
ENDBRANCH   3  11
BRANCH   4  17
ATOM     17  C   UNL d   1     -41.819-123.273 -50.437  0.00  0.00     0.002 A 
ATOM     18  C   UNL d   1     -41.190-123.544 -49.975  0.00  0.00     0.000 A 
ATOM     19  C   UNL d   1     -41.326-123.812 -49.206  0.00  0.00     0.000 A 
ATOM     20  C   UNL d   1     -42.091-123.810 -48.901  0.00  0.00     0.000 A 
ATOM     21  C   UNL d   1     -42.720-123.538 -49.364  0.00  0.00     0.000 A 
ATOM     22  C   UNL d   1     -42.585-123.272 -50.128  0.00  0.00     0.000 A 
ENDBRANCH   4  17
TORSDOF 2
ENDMDL
MODEL 2
REMARK VINA RESULT:      -3.7      0.596      1.075
REMARK  2 active torsions:
REMARK  status: ('A' for Active; 'I' for Inactive)
REMARK    1  A    between atoms: C_10  and  N_3 
REMARK    2  A    between atoms: C_11  and  C_4 
ROOT
ATOM      1  C   UNL d   1     -41.535-121.633 -52.411  0.00  0.00     0.152 A 
ATOM      2  C   UNL d   1     -41.534-121.892 -51.635  0.00  0.00     0.065 A 
ATOM      3  N   UNL d   1     -41.762-122.265 -52.893  0.00  0.00    -0.290 N 
ATOM      4  C   UNL d   1     -41.761-122.687 -51.629  0.00  0.00     0.023 A 
ATOM      5  C   UNL d   1     -41.900-122.913 -52.404  0.00  0.00     0.082 A 
ATOM      6  N   UNL d   1     -41.329-120.854 -52.591  0.00  0.00    -0.206 NA
ATOM      7  C   UNL d   1     -41.328-121.377 -51.023  0.00  0.00     0.143 A 
ATOM      8  N   UNL d   1     -41.123-120.598 -51.203  0.00  0.00    -0.212 NA
ATOM      9  C   UNL d   1     -41.123-120.339 -51.980  0.00  0.00     0.201 A 
ATOM     10 CL   UNL d   1     -41.328-121.637 -50.246  0.00  0.00    -0.061 Cl
ENDROOT
BRANCH   3  11
ATOM     11  C   UNL d   1     -41.846-122.288 -53.703  0.00  0.00     0.065 A 
ATOM     12  C   UNL d   1     -41.259-122.631 -54.170  0.00  0.00     0.018 A 
ATOM     13  C   UNL d   1     -41.344-122.656 -54.991  0.00  0.00     0.002 A 
ATOM     14  C   UNL d   1     -42.024-122.333 -55.352  0.00  0.00     0.000 A 
ATOM     15  C   UNL d   1     -42.606-121.991 -54.877  0.00  0.00     0.002 A 
ATOM     16  C   UNL d   1     -42.518-121.969 -54.057  0.00  0.00     0.018 A 
ENDBRANCH   3  11
BRANCH   4  17
ATOM     17  C   UNL d   1     -41.799-123.064 -50.896  0.00  0.00     0.002 A 
ATOM     18  C   UNL d   1     -42.510-123.083 -50.475  0.00  0.00     0.000 A 
ATOM     19  C   UNL d   1     -42.547-123.460 -49.741  0.00  0.00     0.000 A 
ATOM     20  C   UNL d   1     -41.875-123.817 -49.430  0.00  0.00     0.000 A 
ATOM     21  C   UNL d   1     -41.163-123.798 -49.852  0.00  0.00     0.000 A 
ATOM     22  C   UNL d   1     -41.126-123.424 -50.580  0.00  0.00     0.000 A 
ENDBRANCH   4  17
TORSDOF 2
ENDMDL
MODEL 3
REMARK VINA RESULT:      -3.4      0.970      3.679
REMARK  2 active torsions:
REMARK  status: ('A' for Active; 'I' for Inactive)
REMARK    1  A    between atoms: C_10  and  N_3 
REMARK    2  A    between atoms: C_11  and  C_4 
ROOT
ATOM      1  C   UNL d   1     -41.525-122.204 -51.095  0.00  0.00     0.152 A 
ATOM      2  C   UNL d   1     -41.511-122.261 -51.911  0.00  0.00     0.065 A 
ATOM      3  N   UNL d   1     -41.743-122.941 -50.789  0.00  0.00    -0.290 N 
ATOM      4  C   UNL d   1     -41.721-123.033 -52.119  0.00  0.00     0.023 A 
ATOM      5  C   UNL d   1     -41.863-123.448 -51.427  0.00  0.00     0.082 A 
ATOM      6  N   UNL d   1     -41.337-121.492 -50.723  0.00  0.00    -0.206 NA
ATOM      7  C   UNL d   1     -41.310-121.606 -52.372  0.00  0.00     0.143 A 
ATOM      8  N   UNL d   1     -41.123-120.892 -52.000  0.00  0.00    -0.212 NA
ATOM      9  C   UNL d   1     -41.136-120.836 -51.183  0.00  0.00     0.201 A 
ATOM     10 CL   UNL d   1     -41.296-121.662 -53.188  0.00  0.00    -0.061 Cl
ENDROOT
BRANCH   3  11
ATOM     11  C   UNL d   1     -41.835-123.168 -50.012  0.00  0.00     0.065 A 
ATOM     12  C   UNL d   1     -41.196-123.478 -49.594  0.00  0.00     0.018 A 
ATOM     13  C   UNL d   1     -41.288-123.708 -48.806  0.00  0.00     0.002 A 
ATOM     14  C   UNL d   1     -42.029-123.628 -48.430  0.00  0.00     0.000 A 
ATOM     15  C   UNL d   1     -42.664-123.316 -48.857  0.00  0.00     0.002 A 
ATOM     16  C   UNL d   1     -42.567-123.088 -49.643  0.00  0.00     0.018 A 
ENDBRANCH   3  11
BRANCH   4  17
ATOM     17  C   UNL d   1     -41.743-123.215 -52.924  0.00  0.00     0.002 A 
ATOM     18  C   UNL d   1     -42.385-122.976 -53.386  0.00  0.00     0.000 A 
ATOM     19  C   UNL d   1     -42.408-123.158 -54.191  0.00  0.00     0.000 A 
ATOM     20  C   UNL d   1     -41.788-123.579 -54.533  0.00  0.00     0.000 A 
ATOM     21  C   UNL d   1     -41.145-123.818 -54.070  0.00  0.00     0.000 A 
ATOM     22  C   UNL d   1     -41.123-123.637 -53.270  0.00  0.00     0.000 A 
ENDBRANCH   4  17
TORSDOF 2
ENDMDL
MODEL 4
REMARK VINA RESULT:      -2.3      1.547      2.263
REMARK  2 active torsions:
REMARK  status: ('A' for Active; 'I' for Inactive)
REMARK    1  A    between atoms: C_10  and  N_3 
REMARK    2  A    between atoms: C_11  and  C_4 
ROOT
ATOM      1  C   UNL d   1     -42.572-122.567 -50.483  0.00  0.00     0.152 A 
ATOM      2  C   UNL d   1     -42.507-122.683 -49.674  0.00  0.00     0.065 A 
ATOM      3  N   UNL d   1     -41.814-122.606 -50.810  0.00  0.00    -0.290 N 
ATOM      4  C   UNL d   1     -41.707-122.794 -49.495  0.00  0.00     0.023 A 
ATOM      5  C   UNL d   1     -41.285-122.747 -50.195  0.00  0.00     0.082 A 
ATOM      6  N   UNL d   1     -43.311-122.440 -50.827  0.00  0.00    -0.206 NA
ATOM      7  C   UNL d   1     -43.179-122.674 -49.196  0.00  0.00     0.143 A 
ATOM      8  N   UNL d   1     -43.919-122.547 -49.541  0.00  0.00    -0.212 NA
ATOM      9  C   UNL d   1     -43.984-122.431 -50.349  0.00  0.00     0.201 A 
ATOM     10 CL   UNL d   1     -43.114-122.789 -48.388  0.00  0.00    -0.061 Cl
ENDROOT
BRANCH   3  11
ATOM     11  C   UNL d   1     -41.586-122.527 -51.588  0.00  0.00     0.065 A 
ATOM     12  C   UNL d   1     -41.445-121.778 -51.903  0.00  0.00     0.018 A 
ATOM     13  C   UNL d   1     -41.214-121.696 -52.692  0.00  0.00     0.002 A 
ATOM     14  C   UNL d   1     -41.123-122.372 -53.174  0.00  0.00     0.000 A 
ATOM     15  C   UNL d   1     -41.267-123.118 -52.850  0.00  0.00     0.002 A 
ATOM     16  C   UNL d   1     -41.497-123.195 -52.062  0.00  0.00     0.018 A 
ENDBRANCH   3  11
BRANCH   4  17
ATOM     17  C   UNL d   1     -41.512-122.922 -48.703  0.00  0.00     0.002 A 
ATOM     18  C   UNL d   1     -41.351-122.281 -48.207  0.00  0.00     0.000 A 
ATOM     19  C   UNL d   1     -41.156-122.408 -47.415  0.00  0.00     0.000 A 
ATOM     20  C   UNL d   1     -41.123-123.176 -47.120  0.00  0.00     0.000 A 
ATOM     21  C   UNL d   1     -41.285-123.817 -47.617  0.00  0.00     0.000 A 
ATOM     22  C   UNL d   1     -41.479-123.691 -48.404  0.00  0.00     0.000 A 
ENDBRANCH   4  17
TORSDOF 2
ENDMDL
MODEL 5
REMARK VINA RESULT:      -1.4      1.697      4.264
REMARK  2 active torsions:
REMARK  status: ('A' for Active; 'I' for Inactive)
REMARK    1  A    between atoms: C_10  and  N_3 
REMARK    2  A    between atoms: C_11  and  C_4 
ROOT
ATOM      1  C   UNL d   1     -42.566-122.697 -49.442  0.00  0.00     0.152 A 
ATOM      2  C   UNL d   1     -42.501-122.630 -50.255  0.00  0.00     0.065 A 
ATOM      3  N   UNL d   1     -41.813-122.841 -49.134  0.00  0.00    -0.290 N 
ATOM      4  C   UNL d   1     -41.706-122.732 -50.458  0.00  0.00     0.023 A 
ATOM      5  C   UNL d   1     -41.286-122.862 -49.767  0.00  0.00     0.082 A 
ATOM      6  N   UNL d   1     -43.302-122.619 -49.075  0.00  0.00    -0.206 NA
ATOM      7  C   UNL d   1     -43.169-122.484 -50.717  0.00  0.00     0.143 A 
ATOM      8  N   UNL d   1     -43.905-122.406 -50.350  0.00  0.00    -0.212 NA
ATOM      9  C   UNL d   1     -43.971-122.473 -49.537  0.00  0.00     0.201 A 
ATOM     10 CL   UNL d   1     -43.103-122.417 -51.531  0.00  0.00    -0.061 Cl
ENDROOT
BRANCH   3  11
ATOM     11  C   UNL d   1     -41.587-122.949 -48.359  0.00  0.00     0.065 A 
ATOM     12  C   UNL d   1     -41.354-122.303 -47.903  0.00  0.00     0.018 A 
ATOM     13  C   UNL d   1     -41.125-122.412 -47.117  0.00  0.00     0.002 A 
ATOM     14  C   UNL d   1     -41.129-123.176 -46.781  0.00  0.00     0.000 A 
ATOM     15  C   UNL d   1     -41.364-123.817 -47.245  0.00  0.00     0.002 A 
ATOM     16  C   UNL d   1     -41.592-123.704 -48.029  0.00  0.00     0.018 A 
ENDBRANCH   3  11
BRANCH   4  17
ATOM     17  C   UNL d   1     -41.511-122.686 -51.259  0.00  0.00     0.002 A 
ATOM     18  C   UNL d   1     -41.501-123.370 -51.724  0.00  0.00     0.000 A 
ATOM     19  C   UNL d   1     -41.307-123.323 -52.525  0.00  0.00     0.000 A 
ATOM     20  C   UNL d   1     -41.123-122.595 -52.860  0.00  0.00     0.000 A 
ATOM     21  C   UNL d   1     -41.133-121.911 -52.395  0.00  0.00     0.000 A 
ATOM     22  C   UNL d   1     -41.326-121.957 -51.599  0.00  0.00     0.000 A 
ENDBRANCH   4  17
TORSDOF 2
ENDMDL
