MODEL 1
REMARK VINA RESULT:      44.7      0.000      0.000
REMARK  4 active torsions:
REMARK  status: ('A' for Active; 'I' for Inactive)
REMARK       I    between atoms: C_5  and  N_1 
REMARK    1  A    between atoms: N_3  and  C_8 
REMARK    2  A    between atoms: C_7  and  C_5 
REMARK    3  A    between atoms: C_11  and  C_7 
REMARK    4  A    between atoms: C_15  and  C_11 
ROOT
ATOM      1  N   UNL d   1     -51.901  25.355  33.310  0.00  0.00    -0.256 N 
ATOM      2  C   UNL d   1     -52.496  25.935  33.307  0.00  0.00     0.185 A 
ATOM      3  N   UNL d   1     -53.199  25.532  33.309  0.00  0.00    -0.224 NA
ATOM      4  C   UNL d   1     -51.073  25.490  33.310  0.00  0.00     0.266 C 
ATOM      5  C   UNL d   1     -52.267  24.623  33.313  0.00  0.00     0.086 A 
ATOM      6  C   UNL d   1     -53.071  24.728  33.312  0.00  0.00     0.099 A 
ATOM      7  O   UNL d   1     -50.530  24.852  33.313  0.00  0.00    -0.267 OA
ATOM      8  C   UNL d   1     -51.945  23.857  33.317  0.00  0.00     0.019 A 
ATOM      9  C   UNL d   1     -53.574  24.084  33.315  0.00  0.00     0.021 A 
ATOM     10  C   UNL d   1     -52.445  23.188  33.319  0.00  0.00     0.002 A 
ATOM     11  C   UNL d   1     -53.291  23.300  33.319  0.00  0.00     0.002 A 
ENDROOT
BRANCH   4  12
ATOM     12  C   UNL d   1     -50.782  26.257  33.306  0.00  0.00     0.061 C 
BRANCH  12  13
ATOM     13  C   UNL d   1     -50.023  26.403  33.594  0.00  0.00     0.005 C 
BRANCH  13  14
ATOM     14  C   UNL d   1     -49.802  27.179  33.766  0.00  0.00     0.002 A 
ATOM     15  C   UNL d   1     -49.271  27.324  34.399  0.00  0.00     0.024 A 
ATOM     16  C   UNL d   1     -49.051  28.087  34.573  0.00  0.00     0.127 A 
ATOM     17  C   UNL d   1     -49.348  28.720  34.127  0.00  0.00     0.024 A 
ATOM     18  C   UNL d   1     -49.869  28.572  33.506  0.00  0.00     0.002 A 
ATOM     19  C   UNL d   1     -50.102  27.801  33.319  0.00  0.00     0.000 A 
BRANCH  16  20
ATOM     20  N   UNL d   1     -48.532  28.266  35.186  0.00  0.00    -0.114 N 
ATOM     21  O   UNL d   1     -48.052  28.947  35.137  0.00  0.00    -0.532 OA
ATOM     22  O   UNL d   1     -48.486  27.782  35.839  0.00  0.00    -0.532 OA
ENDBRANCH  16  20
ENDBRANCH  13  14
ENDBRANCH  12  13
ENDBRANCH   4  12
TORSDOF 4
ENDMDL
MODEL 2
REMARK VINA RESULT:      44.9      0.739      1.171
REMARK  4 active torsions:
REMARK  status: ('A' for Active; 'I' for Inactive)
REMARK       I    between atoms: C_5  and  N_1 
REMARK    1  A    between atoms: N_3  and  C_8 
REMARK    2  A    between atoms: C_7  and  C_5 
REMARK    3  A    between atoms: C_11  and  C_7 
REMARK    4  A    between atoms: C_15  and  C_11 
ROOT
ATOM      1  N   UNL d   1     -51.662  25.024  33.326  0.00  0.00    -0.256 N 
ATOM      2  C   UNL d   1     -51.003  24.517  33.333  0.00  0.00     0.185 A 
ATOM      3  N   UNL d   1     -51.304  23.764  33.344  0.00  0.00    -0.224 NA
ATOM      4  C   UNL d   1     -51.644  25.863  33.313  0.00  0.00     0.266 C 
ATOM      5  C   UNL d   1     -52.335  24.560  33.333  0.00  0.00     0.086 A 
ATOM      6  C   UNL d   1     -52.118  23.777  33.344  0.00  0.00     0.099 A 
ATOM      7  O   UNL d   1     -52.351  26.311  33.307  0.00  0.00    -0.267 OA
ATOM      8  C   UNL d   1     -53.138  24.770  33.330  0.00  0.00     0.019 A 
ATOM      9  C   UNL d   1     -52.685  23.190  33.353  0.00  0.00     0.021 A 
ATOM     10  C   UNL d   1     -53.730  24.182  33.338  0.00  0.00     0.002 A 
ATOM     11  C   UNL d   1     -53.501  23.359  33.350  0.00  0.00     0.002 A 
ENDROOT
BRANCH   4  12
ATOM     12  C   UNL d   1     -50.926  26.258  33.307  0.00  0.00     0.061 C 
BRANCH  12  13
ATOM     13  C   UNL d   1     -50.625  26.562  34.013  0.00  0.00     0.005 C 
BRANCH  13  14
ATOM     14  C   UNL d   1     -50.127  27.218  33.987  0.00  0.00     0.002 A 
ATOM     15  C   UNL d   1     -49.633  27.386  34.644  0.00  0.00     0.024 A 
ATOM     16  C   UNL d   1     -49.140  28.032  34.623  0.00  0.00     0.127 A 
ATOM     17  C   UNL d   1     -49.125  28.525  33.956  0.00  0.00     0.024 A 
ATOM     18  C   UNL d   1     -49.613  28.357  33.313  0.00  0.00     0.002 A 
ATOM     19  C   UNL d   1     -50.119  27.702  33.321  0.00  0.00     0.000 A 
BRANCH  16  20
ATOM     20  N   UNL d   1     -48.643  28.226  35.249  0.00  0.00    -0.114 N 
ATOM     21  O   UNL d   1     -48.927  28.180  36.033  0.00  0.00    -0.532 OA
ATOM     22  O   UNL d   1     -47.876  28.462  35.107  0.00  0.00    -0.532 OA
ENDBRANCH  16  20
ENDBRANCH  13  14
ENDBRANCH  12  13
ENDBRANCH   4  12
TORSDOF 4
ENDMDL
