MODEL 1
REMARK VINA RESULT:      -5.9      0.000      0.000
REMARK  6 active torsions:
REMARK  status: ('A' for Active; 'I' for Inactive)
REMARK    1  A    between atoms: N_4  and  C_1 
REMARK       I    between atoms: C_7  and  N_4 
REMARK    2  A    between atoms: C_8  and  C_7 
REMARK    3  A    between atoms: C_11  and  C_8 
REMARK    4  A    between atoms: C_10  and  O_17 
REMARK    5  A    between atoms: O_17  and  C_11 
REMARK    6  A    between atoms: O_18  and  C_12 
ROOT
ATOM      1  C   UNL d   1     -41.159-122.571 -51.815  0.00  0.00     0.089 C 
ENDROOT
BRANCH   1   2
ATOM      2  C   UNL d   1     -41.338-122.716 -52.609  0.00  0.00     0.283 C 
ATOM      3  N   UNL d   1     -41.345-122.087 -53.144  0.00  0.00    -0.186 NA
ATOM      4  O   UNL d   1     -41.508-123.473 -52.863  0.00  0.00    -0.265 OA
BRANCH   3   5
ATOM      5  C   UNL d   1     -41.522-122.225 -53.930  0.00  0.00     0.194 A 
ATOM      6  N   UNL d   1     -41.123-122.745 -54.437  0.00  0.00    -0.107 NA
ATOM      7  O   UNL d   1     -41.488-122.706 -55.171  0.00  0.00    -0.210 OA
ATOM      8  C   UNL d   1     -42.101-122.175 -55.126  0.00  0.00     0.128 A 
ATOM      9  C   UNL d   1     -42.128-121.870 -54.354  0.00  0.00     0.068 A 
ATOM     10  C   UNL d   1     -42.613-121.967 -55.735  0.00  0.00     0.029 C 
ENDBRANCH   3   5
ENDBRANCH   1   2
BRANCH   1  11
ATOM     11  C   UNL d   1     -41.488-123.046 -51.234  0.00  0.00     0.128 C 
BRANCH  11  12
ATOM     12  O   UNL d   1     -41.364-122.637 -50.526  0.00  0.00    -0.305 OA
BRANCH  12  13
ATOM     13  C   UNL d   1     -41.723-122.893 -49.833  0.00  0.00     0.100 A 
ATOM     14  C   UNL d   1     -41.304-123.366 -49.300  0.00  0.00     0.027 A 
ATOM     15  C   UNL d   1     -41.658-123.627 -48.603  0.00  0.00     0.026 A 
ATOM     16  C   UNL d   1     -42.438-123.408 -48.445  0.00  0.00     0.094 A 
ATOM     17  C   UNL d   1     -42.857-122.934 -48.978  0.00  0.00     0.026 A 
ATOM     18  C   UNL d   1     -42.498-122.678 -49.671  0.00  0.00     0.027 A 
BRANCH  16  19
ATOM     19  O   UNL d   1     -42.802-123.669 -47.740  0.00  0.00    -0.328 OA
ATOM     20  C   UNL d   1     -42.365-123.683 -47.040  0.00  0.00     0.181 C 
ENDBRANCH  16  19
ENDBRANCH  12  13
ENDBRANCH  11  12
ENDBRANCH   1  11
TORSDOF 6
ENDMDL
MODEL 2
REMARK VINA RESULT:      -5.1      1.541      5.528
REMARK  6 active torsions:
REMARK  status: ('A' for Active; 'I' for Inactive)
REMARK    1  A    between atoms: N_4  and  C_1 
REMARK       I    between atoms: C_7  and  N_4 
REMARK    2  A    between atoms: C_8  and  C_7 
REMARK    3  A    between atoms: C_11  and  C_8 
REMARK    4  A    between atoms: C_10  and  O_17 
REMARK    5  A    between atoms: O_17  and  C_11 
REMARK    6  A    between atoms: O_18  and  C_12 
ROOT
ATOM      1  C   UNL d   1     -41.510-123.658 -50.962  0.00  0.00     0.089 C 
ENDROOT
BRANCH   1   2
ATOM      2  C   UNL d   1     -41.635-123.336 -50.211  0.00  0.00     0.283 C 
ATOM      3  N   UNL d   1     -42.175-123.697 -49.700  0.00  0.00    -0.186 NA
ATOM      4  O   UNL d   1     -41.229-122.668 -49.973  0.00  0.00    -0.265 OA
BRANCH   3   5
ATOM      5  C   UNL d   1     -42.302-123.384 -48.957  0.00  0.00     0.194 A 
ATOM      6  N   UNL d   1     -42.766-122.720 -48.778  0.00  0.00    -0.107 NA
ATOM      7  O   UNL d   1     -42.736-122.607 -47.966  0.00  0.00    -0.210 OA
ATOM      8  C   UNL d   1     -42.265-123.185 -47.642  0.00  0.00     0.128 A 
ATOM      9  C   UNL d   1     -41.991-123.673 -48.254  0.00  0.00     0.068 A 
ATOM     10  C   UNL d   1     -42.086-123.278 -46.845  0.00  0.00     0.029 C 
ENDBRANCH   3   5
ENDBRANCH   1   2
BRANCH   1  11
ATOM     11  C   UNL d   1     -41.346-123.159 -51.591  0.00  0.00     0.128 C 
BRANCH  11  12
ATOM     12  O   UNL d   1     -41.423-123.631 -52.266  0.00  0.00    -0.305 OA
BRANCH  12  13
ATOM     13  C   UNL d   1     -41.419-123.289 -53.012  0.00  0.00     0.100 A 
ATOM     14  C   UNL d   1     -41.518-122.472 -53.094  0.00  0.00     0.027 A 
ATOM     15  C   UNL d   1     -41.516-122.122 -53.840  0.00  0.00     0.026 A 
ATOM     16  C   UNL d   1     -41.412-122.599 -54.505  0.00  0.00     0.094 A 
ATOM     17  C   UNL d   1     -41.312-123.416 -54.424  0.00  0.00     0.026 A 
ATOM     18  C   UNL d   1     -41.316-123.759 -53.677  0.00  0.00     0.027 A 
BRANCH  16  19
ATOM     19  O   UNL d   1     -41.408-122.250 -55.263  0.00  0.00    -0.328 OA
ATOM     20  C   UNL d   1     -42.113-121.956 -55.577  0.00  0.00     0.181 C 
ENDBRANCH  16  19
ENDBRANCH  12  13
ENDBRANCH  11  12
ENDBRANCH   1  11
TORSDOF 6
ENDMDL
