MODEL 1
REMARK VINA RESULT:      54.6      0.000      0.000
REMARK  4 active torsions:
REMARK  status: ('A' for Active; 'I' for Inactive)
REMARK    1  A    between atoms: C_7  and  C_1 
REMARK    2  A    between atoms: N_8  and  C_7 
REMARK    3  A    between atoms: C_11  and  N_8 
REMARK    4  A    between atoms: O_13  and  C_12 
ROOT
ATOM      1  C   UNL d   1     -50.721  25.838  33.502  0.00  0.00     0.145 A 
ATOM      2  C   UNL d   1     -51.531  25.970  33.502  0.00  0.00     0.305 A 
ATOM      3  C   UNL d   1     -50.427  25.063  33.457  0.00  0.00     0.305 A 
ATOM      4  O   UNL d   1     -50.947  24.430  33.412  0.00  0.00    -0.269 OA
ATOM      5  O   UNL d   1     -52.045  25.339  33.457  0.00  0.00    -0.269 OA
ATOM      6  C   UNL d   1     -51.751  24.564  33.412  0.00  0.00     0.242 A 
ATOM      7  O   UNL d   1     -49.590  24.923  33.458  0.00  0.00    -0.259 OA
ATOM      8  O   UNL d   1     -51.826  26.750  33.547  0.00  0.00    -0.259 OA
ATOM      9  C   UNL d   1     -51.663  23.753  33.362  0.00  0.00     0.035 A 
ATOM     10  C   UNL d   1     -52.517  24.870  33.422  0.00  0.00     0.035 A 
ATOM     11  C   UNL d   1     -53.156  24.374  33.384  0.00  0.00     0.001 A 
ATOM     12  C   UNL d   1     -52.325  23.255  33.324  0.00  0.00     0.001 A 
ATOM     13  C   UNL d   1     -53.076  23.586  33.336  0.00  0.00    -0.000 A 
ENDROOT
BRANCH   1  14
ATOM     14  C   UNL d   1     -50.218  26.501  33.549  0.00  0.00     0.110 C 
BRANCH  14  15
ATOM     15  N   UNL d   1     -50.173  26.920  34.267  0.00  0.00    -0.242 NA
BRANCH  15  16
ATOM     16  C   UNL d   1     -49.565  27.474  34.374  0.00  0.00     0.104 A 
ATOM     17  C   UNL d   1     -49.363  27.721  35.138  0.00  0.00     0.112 A 
ATOM     18  C   UNL d   1     -48.758  28.274  35.248  0.00  0.00     0.026 A 
ATOM     19  C   UNL d   1     -48.339  28.592  34.599  0.00  0.00     0.002 A 
ATOM     20  C   UNL d   1     -48.565  28.324  33.840  0.00  0.00     0.002 A 
ATOM     21  C   UNL d   1     -49.164  27.777  33.727  0.00  0.00     0.021 A 
BRANCH  17  22
ATOM     22  O   UNL d   1     -49.772  27.412  35.797  0.00  0.00    -0.327 OA
ATOM     23  C   UNL d   1     -49.662  27.737  36.527  0.00  0.00     0.181 C 
ENDBRANCH  17  22
ENDBRANCH  15  16
ENDBRANCH  14  15
ENDBRANCH   1  14
TORSDOF 4
ENDMDL
MODEL 2
REMARK VINA RESULT:      56.4      1.056      4.588
REMARK  4 active torsions:
REMARK  status: ('A' for Active; 'I' for Inactive)
REMARK    1  A    between atoms: C_7  and  C_1 
REMARK    2  A    between atoms: N_8  and  C_7 
REMARK    3  A    between atoms: C_11  and  N_8 
REMARK    4  A    between atoms: O_13  and  C_12 
ROOT
ATOM      1  C   UNL d   1     -50.601  26.190  33.549  0.00  0.00     0.145 A 
ATOM      2  C   UNL d   1     -49.825  26.051  33.778  0.00  0.00     0.305 A 
ATOM      3  C   UNL d   1     -50.906  26.961  33.563  0.00  0.00     0.305 A 
ATOM      4  O   UNL d   1     -50.432  27.584  33.808  0.00  0.00    -0.269 OA
ATOM      5  O   UNL d   1     -49.356  26.673  34.021  0.00  0.00    -0.269 OA
ATOM      6  C   UNL d   1     -49.662  27.445  34.036  0.00  0.00     0.242 A 
ATOM      7  O   UNL d   1     -51.707  27.108  33.327  0.00  0.00    -0.259 OA
ATOM      8  O   UNL d   1     -49.518  25.275  33.763  0.00  0.00    -0.259 OA
ATOM      9  C   UNL d   1     -49.773  28.250  34.118  0.00  0.00     0.035 A 
ATOM     10  C   UNL d   1     -48.923  27.134  34.228  0.00  0.00     0.035 A 
ATOM     11  C   UNL d   1     -48.330  27.621  34.491  0.00  0.00     0.001 A 
ATOM     12  C   UNL d   1     -49.159  28.738  34.388  0.00  0.00     0.001 A 
ATOM     13  C   UNL d   1     -48.433  28.403  34.573  0.00  0.00    -0.000 A 
ENDROOT
BRANCH   1  14
ATOM     14  C   UNL d   1     -51.057  25.536  33.306  0.00  0.00     0.110 C 
BRANCH  14  15
ATOM     15  N   UNL d   1     -51.801  25.414  33.658  0.00  0.00    -0.242 NA
BRANCH  15  16
ATOM     16  C   UNL d   1     -52.175  24.678  33.568  0.00  0.00     0.104 A 
ATOM     17  C   UNL d   1     -53.000  24.639  33.521  0.00  0.00     0.112 A 
ATOM     18  C   UNL d   1     -53.376  23.908  33.431  0.00  0.00     0.026 A 
ATOM     19  C   UNL d   1     -52.937  23.199  33.386  0.00  0.00     0.002 A 
ATOM     20  C   UNL d   1     -52.106  23.269  33.436  0.00  0.00     0.002 A 
ATOM     21  C   UNL d   1     -51.730  23.992  33.525  0.00  0.00     0.021 A 
BRANCH  17  22
ATOM     22  O   UNL d   1     -53.454  25.340  33.564  0.00  0.00    -0.327 OA
ATOM     23  C   UNL d   1     -54.220  25.338  33.312  0.00  0.00     0.181 C 
ENDBRANCH  17  22
ENDBRANCH  15  16
ENDBRANCH  14  15
ENDBRANCH   1  14
TORSDOF 4
ENDMDL
MODEL 3
REMARK VINA RESULT:      56.5      0.217      1.205
REMARK  4 active torsions:
REMARK  status: ('A' for Active; 'I' for Inactive)
REMARK    1  A    between atoms: C_7  and  C_1 
REMARK    2  A    between atoms: N_8  and  C_7 
REMARK    3  A    between atoms: C_11  and  N_8 
REMARK    4  A    between atoms: O_13  and  C_12 
ROOT
ATOM      1  C   UNL d   1     -50.729  25.854  33.521  0.00  0.00     0.145 A 
ATOM      2  C   UNL d   1     -50.478  25.072  33.519  0.00  0.00     0.305 A 
ATOM      3  C   UNL d   1     -51.538  26.029  33.469  0.00  0.00     0.305 A 
ATOM      4  O   UNL d   1     -52.086  25.421  33.415  0.00  0.00    -0.269 OA
ATOM      5  O   UNL d   1     -51.025  24.470  33.465  0.00  0.00    -0.269 OA
ATOM      6  C   UNL d   1     -51.835  24.646  33.413  0.00  0.00     0.242 A 
ATOM      7  O   UNL d   1     -51.801  26.836  33.471  0.00  0.00    -0.259 OA
ATOM      8  O   UNL d   1     -49.663  24.895  33.571  0.00  0.00    -0.259 OA
ATOM      9  C   UNL d   1     -52.649  24.613  33.356  0.00  0.00     0.035 A 
ATOM     10  C   UNL d   1     -51.419  23.934  33.424  0.00  0.00     0.035 A 
ATOM     11  C   UNL d   1     -51.814  23.228  33.379  0.00  0.00     0.001 A 
ATOM     12  C   UNL d   1     -53.043  23.885  33.309  0.00  0.00     0.001 A 
ATOM     13  C   UNL d   1     -52.605  23.191  33.322  0.00  0.00    -0.000 A 
ENDROOT
BRANCH   1  14
ATOM     14  C   UNL d   1     -50.148  26.448  33.577  0.00  0.00     0.110 C 
BRANCH  14  15
ATOM     15  N   UNL d   1     -50.127  26.925  34.259  0.00  0.00    -0.242 NA
BRANCH  15  16
ATOM     16  C   UNL d   1     -49.531  27.498  34.334  0.00  0.00     0.104 A 
ATOM     17  C   UNL d   1     -49.328  27.785  35.083  0.00  0.00     0.112 A 
ATOM     18  C   UNL d   1     -48.734  28.355  35.161  0.00  0.00     0.026 A 
ATOM     19  C   UNL d   1     -48.329  28.652  34.494  0.00  0.00     0.002 A 
ATOM     20  C   UNL d   1     -48.555  28.344  33.750  0.00  0.00     0.002 A 
ATOM     21  C   UNL d   1     -49.143  27.779  33.669  0.00  0.00     0.021 A 
BRANCH  17  22
ATOM     22  O   UNL d   1     -49.723  27.498  35.760  0.00  0.00    -0.327 OA
ATOM     23  C   UNL d   1     -49.304  27.330  36.429  0.00  0.00     0.181 C 
ENDBRANCH  17  22
ENDBRANCH  15  16
ENDBRANCH  14  15
ENDBRANCH   1  14
TORSDOF 4
ENDMDL
