MODEL 1
REMARK VINA RESULT:      -7.2      0.000      0.000
REMARK  3 active torsions:
REMARK  status: ('A' for Active; 'I' for Inactive)
REMARK    1  A    between atoms: C_9  and  C_4 
REMARK       I    between atoms: C_6  and  N_8 
REMARK    2  A    between atoms: C_13  and  C_6 
REMARK    3  A    between atoms: N_8  and  C_16 
ROOT
ATOM      1  C   UNL d   1     -46.365  12.510  23.131  0.00  0.00     0.019 A 
ATOM      2  C   UNL d   1     -46.947  12.662  23.687  0.00  0.00     0.003 A 
ATOM      3  C   UNL d   1     -46.288  12.981  22.466  0.00  0.00     0.003 A 
ATOM      4  C   UNL d   1     -47.386  13.773  22.907  0.00  0.00     0.085 A 
ATOM      5  C   UNL d   1     -46.803  13.617  22.355  0.00  0.00     0.019 A 
ATOM      6  C   UNL d   1     -47.459  13.295  23.575  0.00  0.00     0.019 A 
ENDROOT
BRANCH   1   7
ATOM      7  C   UNL d   1     -45.847  11.870  23.242  0.00  0.00     0.101 A 
ATOM      8  N   UNL d   1     -45.048  11.910  23.092  0.00  0.00    -0.221 NA
ATOM      9  C   UNL d   1     -44.714  11.176  23.264  0.00  0.00     0.179 A 
ATOM     10  N   UNL d   1     -45.307  10.674  23.523  0.00  0.00    -0.282 N 
ATOM     11  S   UNL d   1     -44.001  10.755  23.273  0.00  0.00    -0.048 SA
ATOM     12  C   UNL d   1     -46.017  11.107  23.510  0.00  0.00     0.101 A 
ATOM     13  C   UNL d   1     -44.973   9.940  23.696  0.00  0.00     0.089 A 
ATOM     14  C   UNL d   1     -44.163   9.995  23.539  0.00  0.00     0.057 A 
ENDBRANCH   1   7
BRANCH   4  15
ATOM     15  N   UNL d   1     -47.905  14.414  22.796  0.00  0.00    -0.208 NA
ATOM     16  C   UNL d   1     -48.628  14.307  22.397  0.00  0.00     0.279 C 
ATOM     17  O   UNL d   1     -49.138  14.930  22.286  0.00  0.00    -0.265 OA
BRANCH  16  18
ATOM     18  C   UNL d   1     -48.820  13.557  22.114  0.00  0.00     0.058 A 
ATOM     19  C   UNL d   1     -49.361  13.081  22.519  0.00  0.00     0.005 A 
ATOM     20  C   UNL d   1     -49.436  12.373  22.104  0.00  0.00     0.000 A 
ATOM     21  C   UNL d   1     -48.952  12.400  21.449  0.00  0.00     0.000 A 
ATOM     22  C   UNL d   1     -48.564  13.135  21.448  0.00  0.00     0.005 A 
ENDBRANCH  16  18
ENDBRANCH   4  15
TORSDOF 3
ENDMDL
MODEL 2
REMARK VINA RESULT:      -6.7      1.518      2.069
REMARK  3 active torsions:
REMARK  status: ('A' for Active; 'I' for Inactive)
REMARK    1  A    between atoms: C_9  and  C_4 
REMARK       I    between atoms: C_6  and  N_8 
REMARK    2  A    between atoms: C_13  and  C_6 
REMARK    3  A    between atoms: N_8  and  C_16 
ROOT
ATOM      1  C   UNL d   1     -47.617  14.039  22.812  0.00  0.00     0.019 A 
ATOM      2  C   UNL d   1     -48.128  13.907  23.438  0.00  0.00     0.003 A 
ATOM      3  C   UNL d   1     -47.777  14.618  22.257  0.00  0.00     0.003 A 
ATOM      4  C   UNL d   1     -48.975  14.947  22.951  0.00  0.00     0.085 A 
ATOM      5  C   UNL d   1     -48.461  15.075  22.328  0.00  0.00     0.019 A 
ATOM      6  C   UNL d   1     -48.809  14.361  23.509  0.00  0.00     0.019 A 
ENDROOT
BRANCH   1   7
ATOM      7  C   UNL d   1     -46.928  13.581  22.739  0.00  0.00     0.101 A 
ATOM      8  N   UNL d   1     -46.286  13.806  22.293  0.00  0.00    -0.221 NA
ATOM      9  C   UNL d   1     -45.710  13.218  22.351  0.00  0.00     0.179 A 
ATOM     10  N   UNL d   1     -45.994  12.622  22.836  0.00  0.00    -0.282 N 
ATOM     11  S   UNL d   1     -44.950  13.004  22.102  0.00  0.00    -0.048 SA
ATOM     12  C   UNL d   1     -46.756  12.847  23.079  0.00  0.00     0.101 A 
ATOM     13  C   UNL d   1     -45.418  12.033  22.893  0.00  0.00     0.089 A 
ATOM     14  C   UNL d   1     -44.773  12.275  22.436  0.00  0.00     0.057 A 
ENDBRANCH   1   7
BRANCH   4  15
ATOM     15  N   UNL d   1     -49.665  15.406  23.025  0.00  0.00    -0.208 NA
ATOM     16  C   UNL d   1     -50.388  15.134  22.714  0.00  0.00     0.279 C 
ATOM     17  O   UNL d   1     -51.064  15.579  22.783  0.00  0.00    -0.265 OA
BRANCH  16  18
ATOM     18  C   UNL d   1     -50.408  14.404  22.332  0.00  0.00     0.058 A 
ATOM     19  C   UNL d   1     -50.742  13.745  22.705  0.00  0.00     0.005 A 
ATOM     20  C   UNL d   1     -50.680  13.105  22.190  0.00  0.00     0.000 A 
ATOM     21  C   UNL d   1     -50.315  13.353  21.505  0.00  0.00     0.000 A 
ATOM     22  C   UNL d   1     -50.142  14.162  21.586  0.00  0.00     0.005 A 
ENDBRANCH  16  18
ENDBRANCH   4  15
TORSDOF 3
ENDMDL
MODEL 3
REMARK VINA RESULT:      -6.3      2.401      4.645
REMARK  3 active torsions:
REMARK  status: ('A' for Active; 'I' for Inactive)
REMARK    1  A    between atoms: C_9  and  C_4 
REMARK       I    between atoms: C_6  and  N_8 
REMARK    2  A    between atoms: C_13  and  C_6 
REMARK    3  A    between atoms: N_8  and  C_16 
ROOT
ATOM      1  C   UNL d   1     -48.527  12.744  22.712  0.00  0.00     0.019 A 
ATOM      2  C   UNL d   1     -48.253  12.130  22.246  0.00  0.00     0.003 A 
ATOM      3  C   UNL d   1     -48.179  12.908  23.435  0.00  0.00     0.003 A 
ATOM      4  C   UNL d   1     -47.267  11.833  23.234  0.00  0.00     0.085 A 
ATOM      5  C   UNL d   1     -47.544  12.448  23.697  0.00  0.00     0.019 A 
ATOM      6  C   UNL d   1     -47.622  11.672  22.506  0.00  0.00     0.019 A 
ENDROOT
BRANCH   1   7
ATOM      7  C   UNL d   1     -49.165  13.207  22.451  0.00  0.00     0.101 A 
ATOM      8  N   UNL d   1     -49.275  13.983  22.672  0.00  0.00    -0.221 NA
ATOM      9  C   UNL d   1     -49.960  14.262  22.307  0.00  0.00     0.179 A 
ATOM     10  N   UNL d   1     -50.279  13.658  21.856  0.00  0.00    -0.282 N 
ATOM     11  S   UNL d   1     -50.448  14.927  22.227  0.00  0.00    -0.048 SA
ATOM     12  C   UNL d   1     -49.783  12.997  21.944  0.00  0.00     0.101 A 
ATOM     13  C   UNL d   1     -50.965  13.938  21.491  0.00  0.00     0.089 A 
ATOM     14  C   UNL d   1     -51.064  14.725  21.724  0.00  0.00     0.057 A 
ENDBRANCH   1   7
BRANCH   4  15
ATOM     15  N   UNL d   1     -46.629  11.369  23.496  0.00  0.00    -0.208 NA
ATOM     16  C   UNL d   1     -45.846  11.629  23.387  0.00  0.00     0.279 C 
ATOM     17  O   UNL d   1     -45.218  11.179  23.641  0.00  0.00    -0.265 OA
BRANCH  16  18
ATOM     18  C   UNL d   1     -45.714  12.353  23.016  0.00  0.00     0.058 A 
ATOM     19  C   UNL d   1     -45.370  12.383  22.265  0.00  0.00     0.005 A 
ATOM     20  C   UNL d   1     -45.311  13.175  22.045  0.00  0.00     0.000 A 
ATOM     21  C   UNL d   1     -45.612  13.637  22.645  0.00  0.00     0.000 A 
ATOM     22  C   UNL d   1     -45.865  13.132  23.254  0.00  0.00     0.005 A 
ENDBRANCH  16  18
ENDBRANCH   4  15
TORSDOF 3
ENDMDL
MODEL 4
REMARK VINA RESULT:      -6.0      7.706      8.475
REMARK  3 active torsions:
REMARK  status: ('A' for Active; 'I' for Inactive)
REMARK    1  A    between atoms: C_9  and  C_4 
REMARK       I    between atoms: C_6  and  N_8 
REMARK    2  A    between atoms: C_13  and  C_6 
REMARK    3  A    between atoms: N_8  and  C_16 
ROOT
ATOM      1  C   UNL d   1     -39.834  14.910  20.344  0.00  0.00     0.019 A 
ATOM      2  C   UNL d   1     -40.521  14.553  20.079  0.00  0.00     0.003 A 
ATOM      3  C   UNL d   1     -39.509  15.543  19.941  0.00  0.00     0.003 A 
ATOM      4  C   UNL d   1     -40.564  15.473  18.988  0.00  0.00     0.085 A 
ATOM      5  C   UNL d   1     -39.877  15.826  19.258  0.00  0.00     0.019 A 
ATOM      6  C   UNL d   1     -40.888  14.834  19.399  0.00  0.00     0.019 A 
ENDROOT
BRANCH   1   7
ATOM      7  C   UNL d   1     -39.462  14.626  21.031  0.00  0.00     0.101 A 
ATOM      8  N   UNL d   1     -39.050  13.925  21.060  0.00  0.00    -0.221 NA
ATOM      9  C   UNL d   1     -38.760  13.826  21.825  0.00  0.00     0.179 A 
ATOM     10  N   UNL d   1     -38.992  14.468  22.277  0.00  0.00    -0.282 N 
ATOM     11  S   UNL d   1     -38.320  13.318  22.310  0.00  0.00    -0.048 SA
ATOM     12  C   UNL d   1     -39.431  14.970  21.782  0.00  0.00     0.101 A 
ATOM     13  C   UNL d   1     -38.701  14.369  23.044  0.00  0.00     0.089 A 
ATOM     14  C   UNL d   1     -38.285  13.654  23.058  0.00  0.00     0.057 A 
ENDBRANCH   1   7
BRANCH   4  15
ATOM     15  N   UNL d   1     -40.937  15.757  18.301  0.00  0.00    -0.208 NA
ATOM     16  C   UNL d   1     -40.737  15.447  17.555  0.00  0.00     0.279 C 
ATOM     17  O   UNL d   1     -41.099  15.721  16.880  0.00  0.00    -0.265 OA
BRANCH  16  18
ATOM     18  C   UNL d   1     -40.165  14.856  17.508  0.00  0.00     0.058 A 
ATOM     19  C   UNL d   1     -39.403  15.029  17.238  0.00  0.00     0.005 A 
ATOM     20  C   UNL d   1     -38.964  14.332  17.255  0.00  0.00     0.000 A 
ATOM     21  C   UNL d   1     -39.438  13.729  17.531  0.00  0.00     0.000 A 
ATOM     22  C   UNL d   1     -40.189  14.048  17.691  0.00  0.00     0.005 A 
ENDBRANCH  16  18
ENDBRANCH   4  15
TORSDOF 3
ENDMDL
MODEL 5
REMARK VINA RESULT:      -5.9      8.016      9.128
REMARK  3 active torsions:
REMARK  status: ('A' for Active; 'I' for Inactive)
REMARK    1  A    between atoms: C_9  and  C_4 
REMARK       I    between atoms: C_6  and  N_8 
REMARK    2  A    between atoms: C_13  and  C_6 
REMARK    3  A    between atoms: N_8  and  C_16 
ROOT
ATOM      1  C   UNL d   1     -39.792  14.755  18.069  0.00  0.00     0.019 A 
ATOM      2  C   UNL d   1     -39.597  15.489  18.372  0.00  0.00     0.003 A 
ATOM      3  C   UNL d   1     -40.436  14.341  18.357  0.00  0.00     0.003 A 
ATOM      4  C   UNL d   1     -40.705  15.402  19.267  0.00  0.00     0.085 A 
ATOM      5  C   UNL d   1     -40.896  14.668  18.960  0.00  0.00     0.019 A 
ATOM      6  C   UNL d   1     -40.054  15.815  18.973  0.00  0.00     0.019 A 
ENDROOT
BRANCH   1   7
ATOM      7  C   UNL d   1     -39.331  14.424  17.462  0.00  0.00     0.101 A 
ATOM      8  N   UNL d   1     -39.168  14.808  16.763  0.00  0.00    -0.221 NA
ATOM      9  C   UNL d   1     -38.699  14.315  16.298  0.00  0.00     0.179 A 
ATOM     10  N   UNL d   1     -38.568  13.618  16.708  0.00  0.00    -0.282 N 
ATOM     11  S   UNL d   1     -38.310  14.260  15.569  0.00  0.00    -0.048 SA
ATOM     12  C   UNL d   1     -38.963  13.684  17.436  0.00  0.00     0.101 A 
ATOM     13  C   UNL d   1     -38.099  13.123  16.242  0.00  0.00     0.089 A 
ATOM     14  C   UNL d   1     -37.942  13.527  15.537  0.00  0.00     0.057 A 
ENDBRANCH   1   7
BRANCH   4  15
ATOM     15  N   UNL d   1     -41.166  15.733  19.875  0.00  0.00    -0.208 NA
ATOM     16  C   UNL d   1     -40.973  15.596  20.673  0.00  0.00     0.279 C 
ATOM     17  O   UNL d   1     -41.422  15.918  21.270  0.00  0.00    -0.265 OA
BRANCH  16  18
ATOM     18  C   UNL d   1     -40.319  15.128  20.850  0.00  0.00     0.058 A 
ATOM     19  C   UNL d   1     -39.617  15.473  21.118  0.00  0.00     0.005 A 
ATOM     20  C   UNL d   1     -39.071  14.868  21.247  0.00  0.00     0.000 A 
ATOM     21  C   UNL d   1     -39.422  14.155  21.064  0.00  0.00     0.000 A 
ATOM     22  C   UNL d   1     -40.200  14.309  20.816  0.00  0.00     0.005 A 
ENDBRANCH  16  18
ENDBRANCH   4  15
TORSDOF 3
ENDMDL
MODEL 6
REMARK VINA RESULT:      -5.7      8.012      9.074
REMARK  3 active torsions:
REMARK  status: ('A' for Active; 'I' for Inactive)
REMARK    1  A    between atoms: C_9  and  C_4 
REMARK       I    between atoms: C_6  and  N_8 
REMARK    2  A    between atoms: C_13  and  C_6 
REMARK    3  A    between atoms: N_8  and  C_16 
ROOT
ATOM      1  C   UNL d   1     -39.794  15.533  20.062  0.00  0.00     0.019 A 
ATOM      2  C   UNL d   1     -39.053  15.811  20.269  0.00  0.00     0.003 A 
ATOM      3  C   UNL d   1     -40.353  15.364  20.636  0.00  0.00     0.003 A 
ATOM      4  C   UNL d   1     -39.427  15.753  21.645  0.00  0.00     0.085 A 
ATOM      5  C   UNL d   1     -40.166  15.475  21.433  0.00  0.00     0.019 A 
ATOM      6  C   UNL d   1     -38.867  15.922  21.062  0.00  0.00     0.019 A 
ENDROOT
BRANCH   1   7
ATOM      7  C   UNL d   1     -39.984  15.420  19.261  0.00  0.00     0.101 A 
ATOM      8  N   UNL d   1     -40.584  15.818  18.883  0.00  0.00    -0.221 NA
ATOM      9  C   UNL d   1     -40.609  15.566  18.098  0.00  0.00     0.179 A 
ATOM     10  N   UNL d   1     -40.021  15.008  17.985  0.00  0.00    -0.282 N 
ATOM     11  S   UNL d   1     -41.008  15.666  17.379  0.00  0.00    -0.048 SA
ATOM     12  C   UNL d   1     -39.628  14.915  18.712  0.00  0.00     0.101 A 
ATOM     13  C   UNL d   1     -40.045  14.755  17.199  0.00  0.00     0.089 A 
ATOM     14  C   UNL d   1     -40.659  15.167  16.828  0.00  0.00     0.057 A 
ENDBRANCH   1   7
BRANCH   4  15
ATOM     15  N   UNL d   1     -39.237  15.866  22.447  0.00  0.00    -0.208 NA
ATOM     16  C   UNL d   1     -38.849  15.268  22.877  0.00  0.00     0.279 C 
ATOM     17  O   UNL d   1     -38.661  15.374  23.661  0.00  0.00    -0.265 OA
BRANCH  16  18
ATOM     18  C   UNL d   1     -38.655  14.564  22.495  0.00  0.00     0.058 A 
ATOM     19  C   UNL d   1     -39.109  13.883  22.616  0.00  0.00     0.005 A 
ATOM     20  C   UNL d   1     -38.781  13.277  22.164  0.00  0.00     0.000 A 
ATOM     21  C   UNL d   1     -38.133  13.569  21.764  0.00  0.00     0.000 A 
ATOM     22  C   UNL d   1     -38.048  14.370  21.966  0.00  0.00     0.005 A 
ENDBRANCH  16  18
ENDBRANCH   4  15
TORSDOF 3
ENDMDL
MODEL 7
REMARK VINA RESULT:      -5.4      1.442      2.146
REMARK  3 active torsions:
REMARK  status: ('A' for Active; 'I' for Inactive)
REMARK    1  A    between atoms: C_9  and  C_4 
REMARK       I    between atoms: C_6  and  N_8 
REMARK    2  A    between atoms: C_13  and  C_6 
REMARK    3  A    between atoms: N_8  and  C_16 
ROOT
ATOM      1  C   UNL d   1     -47.935  13.426  22.771  0.00  0.00     0.019 A 
ATOM      2  C   UNL d   1     -48.308  13.405  22.043  0.00  0.00     0.003 A 
ATOM      3  C   UNL d   1     -48.134  13.992  23.328  0.00  0.00     0.003 A 
ATOM      4  C   UNL d   1     -49.094  14.533  22.427  0.00  0.00     0.085 A 
ATOM      5  C   UNL d   1     -48.718  14.549  23.154  0.00  0.00     0.019 A 
ATOM      6  C   UNL d   1     -48.890  13.960  21.870  0.00  0.00     0.019 A 
ENDROOT
BRANCH   1   7
ATOM      7  C   UNL d   1     -47.347  12.866  22.948  0.00  0.00     0.101 A 
ATOM      8  N   UNL d   1     -47.499  12.161  23.326  0.00  0.00    -0.221 NA
ATOM      9  C   UNL d   1     -46.788  11.751  23.407  0.00  0.00     0.179 A 
ATOM     10  N   UNL d   1     -46.189  12.202  23.079  0.00  0.00    -0.282 N 
ATOM     11  S   UNL d   1     -46.453  11.052  23.698  0.00  0.00    -0.048 SA
ATOM     12  C   UNL d   1     -46.536  12.900  22.791  0.00  0.00     0.101 A 
ATOM     13  C   UNL d   1     -45.477  11.791  23.160  0.00  0.00     0.089 A 
ATOM     14  C   UNL d   1     -45.647  11.079  23.545  0.00  0.00     0.057 A 
ENDBRANCH   1   7
BRANCH   4  15
ATOM     15  N   UNL d   1     -49.683  15.093  22.250  0.00  0.00    -0.208 NA
ATOM     16  C   UNL d   1     -50.486  14.918  22.382  0.00  0.00     0.279 C 
ATOM     17  O   UNL d   1     -51.064  15.463  22.210  0.00  0.00    -0.265 OA
BRANCH  16  18
ATOM     18  C   UNL d   1     -50.687  14.181  22.691  0.00  0.00     0.058 A 
ATOM     19  C   UNL d   1     -50.877  14.100  23.491  0.00  0.00     0.005 A 
ATOM     20  C   UNL d   1     -51.052  13.306  23.630  0.00  0.00     0.000 A 
ATOM     21  C   UNL d   1     -50.974  12.894  22.932  0.00  0.00     0.000 A 
ATOM     22  C   UNL d   1     -50.747  13.432  22.341  0.00  0.00     0.005 A 
ENDBRANCH  16  18
ENDBRANCH   4  15
TORSDOF 3
ENDMDL
MODEL 8
REMARK VINA RESULT:      -5.2      8.656      9.507
REMARK  3 active torsions:
REMARK  status: ('A' for Active; 'I' for Inactive)
REMARK    1  A    between atoms: C_9  and  C_4 
REMARK       I    between atoms: C_6  and  N_8 
REMARK    2  A    between atoms: C_13  and  C_6 
REMARK    3  A    between atoms: N_8  and  C_16 
ROOT
ATOM      1  C   UNL d   1     -38.508  14.938  19.722  0.00  0.00     0.019 A 
ATOM      2  C   UNL d   1     -38.191  15.445  19.163  0.00  0.00     0.003 A 
ATOM      3  C   UNL d   1     -38.788  14.199  19.505  0.00  0.00     0.003 A 
ATOM      4  C   UNL d   1     -38.434  14.466  18.153  0.00  0.00     0.085 A 
ATOM      5  C   UNL d   1     -38.750  13.963  18.715  0.00  0.00     0.019 A 
ATOM      6  C   UNL d   1     -38.153  15.210  18.376  0.00  0.00     0.019 A 
ENDROOT
BRANCH   1   7
ATOM      7  C   UNL d   1     -38.547  15.173  20.517  0.00  0.00     0.101 A 
ATOM      8  N   UNL d   1     -39.227  15.449  20.870  0.00  0.00    -0.221 NA
ATOM      9  C   UNL d   1     -39.057  15.628  21.657  0.00  0.00     0.179 A 
ATOM     10  N   UNL d   1     -38.267  15.464  21.797  0.00  0.00    -0.282 N 
ATOM     11  S   UNL d   1     -39.388  15.914  22.361  0.00  0.00    -0.048 SA
ATOM     12  C   UNL d   1     -37.947  15.179  21.085  0.00  0.00     0.101 A 
ATOM     13  C   UNL d   1     -38.098  15.644  22.584  0.00  0.00     0.089 A 
ATOM     14  C   UNL d   1     -38.796  15.922  22.929  0.00  0.00     0.057 A 
ENDBRANCH   1   7
BRANCH   4  15
ATOM     15  N   UNL d   1     -38.395  14.231  17.356  0.00  0.00    -0.208 NA
ATOM     16  C   UNL d   1     -39.037  14.367  16.844  0.00  0.00     0.279 C 
ATOM     17  O   UNL d   1     -39.003  14.138  16.064  0.00  0.00    -0.265 OA
BRANCH  16  18
ATOM     18  C   UNL d   1     -39.711  14.739  17.139  0.00  0.00     0.058 A 
ATOM     19  C   UNL d   1     -39.858  15.534  16.970  0.00  0.00     0.005 A 
ATOM     20  C   UNL d   1     -40.565  15.744  17.339  0.00  0.00     0.000 A 
ATOM     21  C   UNL d   1     -40.859  15.094  17.732  0.00  0.00     0.000 A 
ATOM     22  C   UNL d   1     -40.332  14.463  17.613  0.00  0.00     0.005 A 
ENDBRANCH  16  18
ENDBRANCH   4  15
TORSDOF 3
ENDMDL
