MODEL 1
REMARK VINA RESULT:      33.8      0.000      0.000
REMARK  5 active torsions:
REMARK  status: ('A' for Active; 'I' for Inactive)
REMARK    1  A    between atoms: C_5  and  C_1 
REMARK       I    between atoms: N_7  and  C_5 
REMARK    2  A    between atoms: C_10  and  N_7 
REMARK    3  A    between atoms: S_15  and  C_14 
REMARK    4  A    between atoms: C_20  and  S_15 
REMARK    5  A    between atoms: C_16  and  C_20 
ROOT
ATOM      1  N   UNL d   1      44.596 -17.140  39.707  0.00  0.00    -0.191 NA
ATOM      2  C   UNL d   1      45.252 -17.383  40.163  0.00  0.00     0.102 C 
ATOM      3  C   UNL d   1      45.896 -17.628  40.616  0.00  0.00     0.085 C 
ENDROOT
BRANCH   3   4
ATOM      4  C   UNL d   1      45.816 -18.243  41.154  0.00  0.00     0.046 C 
BRANCH   4   5
ATOM      5  S   UNL d   1      45.645 -18.077  41.949  0.00  0.00    -0.084 SA
BRANCH   5   6
ATOM      6  C   UNL d   1      45.871 -18.614  42.540  0.00  0.00     0.047 A 
ATOM      7  C   UNL d   1      45.845 -18.387  43.329  0.00  0.00     0.091 A 
ATOM      8  C   UNL d   1      46.069 -18.917  43.924  0.00  0.00     0.020 A 
ATOM      9  C   UNL d   1      46.319 -19.675  43.726  0.00  0.00     0.002 A 
ATOM     10  C   UNL d   1      46.346 -19.906  42.929  0.00  0.00     0.001 A 
ATOM     11  C   UNL d   1      46.121 -19.373  42.342  0.00  0.00     0.008 A 
BRANCH   7  12
ATOM     12  N   UNL d   1      45.594 -17.627  43.531  0.00  0.00    -0.206 NA
ATOM     13  C   UNL d   1      45.986 -17.213  44.118  0.00  0.00     0.302 C 
ATOM     14  O   UNL d   1      46.627 -17.547  44.510  0.00  0.00    -0.263 OA
BRANCH  13  15
ATOM     15  C   UNL d   1      45.735 -16.445  44.324  0.00  0.00     0.161 A 
ATOM     16  C   UNL d   1      44.950 -16.296  44.498  0.00  0.00     0.072 A 
ATOM     17  C   UNL d   1      44.712 -15.530  44.701  0.00  0.00     0.200 A 
ATOM     18  O   UNL d   1      43.917 -15.373  44.878  0.00  0.00    -0.286 OA
ATOM     19  C   UNL d   1      45.265 -14.924  44.726  0.00  0.00     0.062 A 
ATOM     20  C   UNL d   1      46.052 -15.068  44.553  0.00  0.00     0.103 A 
ATOM     21  C   UNL d   1      45.029 -14.154  44.930  0.00  0.00     0.005 A 
ATOM     22  O   UNL d   1      46.288 -15.838  44.349  0.00  0.00    -0.302 OA
ATOM     23  C   UNL d   1      46.615 -14.463  44.576  0.00  0.00     0.025 A 
ATOM     24  C   UNL d   1      46.375 -13.699  44.779  0.00  0.00     0.002 A 
ATOM     25  C   UNL d   1      45.583 -13.548  44.955  0.00  0.00     0.000 A 
ENDBRANCH  13  15
ENDBRANCH   7  12
ENDBRANCH   5   6
ENDBRANCH   4   5
ENDBRANCH   3   4
TORSDOF 5
ENDMDL
