MODEL 1
REMARK VINA RESULT:      -9.1      0.000      0.000
REMARK  5 active torsions:
REMARK  status: ('A' for Active; 'I' for Inactive)
REMARK    1  A    between atoms: N_6  and  C_1 
REMARK    2  A    between atoms: C_7  and  C_2 
REMARK       I    between atoms: C_8  and  N_6 
REMARK       I    between atoms: N_13  and  C_7 
REMARK    3  A    between atoms: C_9  and  C_8 
REMARK    4  A    between atoms: C_10  and  C_9 
REMARK    5  A    between atoms: C_15  and  C_10 
ROOT
ATOM      1  C   UNL d   1      52.269  33.008  53.574  0.00  0.00     0.119 A 
ATOM      2  C   UNL d   1      52.873  32.535  53.459  0.00  0.00     0.082 A 
ATOM      3  S   UNL d   1      52.517  33.628  54.000  0.00  0.00    -0.068 SA
ATOM      4  C   UNL d   1      53.508  32.849  53.810  0.00  0.00     0.013 A 
ATOM      5  C   UNL d   1      53.282  33.530  54.146  0.00  0.00     0.031 A 
ATOM      6  C   UNL d   1      54.259  32.609  53.869  0.00  0.00     0.001 A 
ATOM      7  C   UNL d   1      54.558  33.725  54.597  0.00  0.00     0.006 A 
ATOM      8  C   UNL d   1      54.781  33.049  54.263  0.00  0.00     0.001 A 
ENDROOT
BRANCH   1   9
ATOM      9  N   UNL d   1      51.551  33.127  53.453  0.00  0.00    -0.201 NA
ATOM     10  C   UNL d   1      51.454  33.904  52.893  0.00  0.00     0.280 C 
ATOM     11  O   UNL d   1      51.877  34.350  52.595  0.00  0.00    -0.265 OA
BRANCH  10  12
ATOM     12  C   UNL d   1      50.663  34.075  52.732  0.00  0.00     0.062 C 
BRANCH  12  13
ATOM     13  C   UNL d   1      50.451  34.414  52.003  0.00  0.00     0.005 C 
BRANCH  13  14
ATOM     14  C   UNL d   1      49.667  34.626  51.859  0.00  0.00     0.000 A 
ATOM     15  C   UNL d   1      49.314  34.447  51.131  0.00  0.00     0.000 A 
ATOM     16  C   UNL d   1      48.531  34.655  50.979  0.00  0.00     0.000 A 
ATOM     17  C   UNL d   1      48.088  35.048  51.557  0.00  0.00     0.000 A 
ATOM     18  C   UNL d   1      48.441  35.230  52.291  0.00  0.00     0.000 A 
ATOM     19  C   UNL d   1      49.225  35.018  52.436  0.00  0.00     0.000 A 
ENDBRANCH  13  14
ENDBRANCH  12  13
ENDBRANCH  10  12
ENDBRANCH   1   9
BRANCH   2  20
ATOM     20  C   UNL d   1      52.858  31.854  53.059  0.00  0.00     0.281 C 
ATOM     21  O   UNL d   1      53.033  31.848  52.287  0.00  0.00    -0.265 OA
ATOM     22  N   UNL d   1      52.669  31.180  53.427  0.00  0.00    -0.205 NA
ATOM     23  C   UNL d   1      52.655  30.471  53.006  0.00  0.00     0.123 C 
ENDBRANCH   2  20
TORSDOF 5
ENDMDL
MODEL 2
REMARK VINA RESULT:      -8.2      1.285      2.195
REMARK  5 active torsions:
REMARK  status: ('A' for Active; 'I' for Inactive)
REMARK    1  A    between atoms: N_6  and  C_1 
REMARK    2  A    between atoms: C_7  and  C_2 
REMARK       I    between atoms: C_8  and  N_6 
REMARK       I    between atoms: N_13  and  C_7 
REMARK    3  A    between atoms: C_9  and  C_8 
REMARK    4  A    between atoms: C_10  and  C_9 
REMARK    5  A    between atoms: C_15  and  C_10 
ROOT
ATOM      1  C   UNL d   1      52.488  34.170  53.308  0.00  0.00     0.119 A 
ATOM      2  C   UNL d   1      52.957  34.209  53.924  0.00  0.00     0.082 A 
ATOM      3  S   UNL d   1      52.590  33.465  52.961  0.00  0.00    -0.068 SA
ATOM      4  C   UNL d   1      53.361  33.530  53.975  0.00  0.00     0.013 A 
ATOM      5  C   UNL d   1      53.129  33.070  53.374  0.00  0.00     0.031 A 
ATOM      6  C   UNL d   1      53.905  33.270  54.486  0.00  0.00     0.001 A 
ATOM      7  C   UNL d   1      53.988  32.094  53.797  0.00  0.00     0.006 A 
ATOM      8  C   UNL d   1      54.217  32.552  54.394  0.00  0.00     0.001 A 
ENDROOT
BRANCH   1   9
ATOM      9  N   UNL d   1      51.980  34.516  52.901  0.00  0.00    -0.201 NA
ATOM     10  C   UNL d   1      51.139  34.056  52.994  0.00  0.00     0.280 C 
ATOM     11  O   UNL d   1      50.915  33.509  53.335  0.00  0.00    -0.265 OA
BRANCH  10  12
ATOM     12  C   UNL d   1      50.539  34.411  52.554  0.00  0.00     0.062 C 
BRANCH  12  13
ATOM     13  C   UNL d   1      49.747  34.336  52.794  0.00  0.00     0.005 C 
BRANCH  13  14
ATOM     14  C   UNL d   1      49.151  34.732  52.382  0.00  0.00     0.000 A 
ATOM     15  C   UNL d   1      48.720  35.337  52.751  0.00  0.00     0.000 A 
ATOM     16  C   UNL d   1      48.124  35.737  52.347  0.00  0.00     0.000 A 
ATOM     17  C   UNL d   1      47.949  35.537  51.564  0.00  0.00     0.000 A 
ATOM     18  C   UNL d   1      48.381  34.929  51.189  0.00  0.00     0.000 A 
ATOM     19  C   UNL d   1      48.976  34.533  51.601  0.00  0.00     0.000 A 
ENDBRANCH  13  14
ENDBRANCH  12  13
ENDBRANCH  10  12
ENDBRANCH   1   9
BRANCH   2  20
ATOM     20  C   UNL d   1      53.022  34.821  54.418  0.00  0.00     0.281 C 
ATOM     21  O   UNL d   1      52.759  34.756  55.162  0.00  0.00    -0.265 OA
ATOM     22  N   UNL d   1      53.349  35.498  54.173  0.00  0.00    -0.205 NA
ATOM     23  C   UNL d   1      53.416  36.136  54.692  0.00  0.00     0.123 C 
ENDBRANCH   2  20
TORSDOF 5
ENDMDL
MODEL 3
REMARK VINA RESULT:      -7.7      1.304      4.477
REMARK  5 active torsions:
REMARK  status: ('A' for Active; 'I' for Inactive)
REMARK    1  A    between atoms: N_6  and  C_1 
REMARK    2  A    between atoms: C_7  and  C_2 
REMARK       I    between atoms: C_8  and  N_6 
REMARK       I    between atoms: N_13  and  C_7 
REMARK    3  A    between atoms: C_9  and  C_8 
REMARK    4  A    between atoms: C_10  and  C_9 
REMARK    5  A    between atoms: C_15  and  C_10 
ROOT
ATOM      1  C   UNL d   1      52.256  33.350  53.542  0.00  0.00     0.119 A 
ATOM      2  C   UNL d   1      52.070  34.067  53.312  0.00  0.00     0.082 A 
ATOM      3  S   UNL d   1      52.809  33.405  54.107  0.00  0.00    -0.068 SA
ATOM      4  C   UNL d   1      52.502  34.583  53.727  0.00  0.00     0.013 A 
ATOM      5  C   UNL d   1      52.961  34.167  54.221  0.00  0.00     0.031 A 
ATOM      6  C   UNL d   1      52.540  35.373  53.723  0.00  0.00     0.001 A 
ATOM      7  C   UNL d   1      53.491  35.332  54.701  0.00  0.00     0.006 A 
ATOM      8  C   UNL d   1      53.035  35.744  54.211  0.00  0.00     0.001 A 
ENDROOT
BRANCH   1   9
ATOM      9  N   UNL d   1      52.134  32.627  53.457  0.00  0.00    -0.201 NA
ATOM     10  C   UNL d   1      52.953  32.204  53.179  0.00  0.00     0.280 C 
ATOM     11  O   UNL d   1      53.591  32.408  53.048  0.00  0.00    -0.265 OA
BRANCH  10  12
ATOM     12  C   UNL d   1      52.863  31.391  53.071  0.00  0.00     0.062 C 
BRANCH  12  13
ATOM     13  C   UNL d   1      53.484  30.874  53.266  0.00  0.00     0.005 C 
BRANCH  13  14
ATOM     14  C   UNL d   1      53.318  30.124  53.567  0.00  0.00     0.000 A 
ATOM     15  C   UNL d   1      53.688  29.860  54.260  0.00  0.00     0.000 A 
ATOM     16  C   UNL d   1      53.528  29.112  54.566  0.00  0.00     0.000 A 
ATOM     17  C   UNL d   1      52.992  28.614  54.181  0.00  0.00     0.000 A 
ATOM     18  C   UNL d   1      52.617  28.876  53.482  0.00  0.00     0.000 A 
ATOM     19  C   UNL d   1      52.783  29.626  53.182  0.00  0.00     0.000 A 
ENDBRANCH  13  14
ENDBRANCH  12  13
ENDBRANCH  10  12
ENDBRANCH   1   9
BRANCH   2  20
ATOM     20  C   UNL d   1      51.540  34.251  52.758  0.00  0.00     0.281 C 
ATOM     21  O   UNL d   1      51.782  34.439  52.028  0.00  0.00    -0.265 OA
ATOM     22  N   UNL d   1      50.767  34.250  52.928  0.00  0.00    -0.205 NA
ATOM     23  C   UNL d   1      50.216  34.444  52.346  0.00  0.00     0.123 C 
ENDBRANCH   2  20
TORSDOF 5
ENDMDL
MODEL 4
REMARK VINA RESULT:      -7.4      1.351      4.780
REMARK  5 active torsions:
REMARK  status: ('A' for Active; 'I' for Inactive)
REMARK    1  A    between atoms: N_6  and  C_1 
REMARK    2  A    between atoms: C_7  and  C_2 
REMARK       I    between atoms: C_8  and  N_6 
REMARK       I    between atoms: N_13  and  C_7 
REMARK    3  A    between atoms: C_9  and  C_8 
REMARK    4  A    between atoms: C_10  and  C_9 
REMARK    5  A    between atoms: C_15  and  C_10 
ROOT
ATOM      1  C   UNL d   1      51.917  33.379  53.455  0.00  0.00     0.119 A 
ATOM      2  C   UNL d   1      51.852  34.134  53.290  0.00  0.00     0.082 A 
ATOM      3  S   UNL d   1      51.240  33.020  53.255  0.00  0.00    -0.068 SA
ATOM      4  C   UNL d   1      51.133  34.261  52.984  0.00  0.00     0.013 A 
ATOM      5  C   UNL d   1      50.756  33.565  52.963  0.00  0.00     0.031 A 
ATOM      6  C   UNL d   1      50.774  34.915  52.721  0.00  0.00     0.001 A 
ATOM      7  C   UNL d   1      49.663  34.180  52.419  0.00  0.00     0.006 A 
ATOM      8  C   UNL d   1      50.039  34.870  52.440  0.00  0.00     0.001 A 
ENDROOT
BRANCH   1   9
ATOM      9  N   UNL d   1      52.350  32.845  53.724  0.00  0.00    -0.201 NA
ATOM     10  C   UNL d   1      52.577  32.239  53.011  0.00  0.00     0.280 C 
ATOM     11  O   UNL d   1      52.437  32.191  52.345  0.00  0.00    -0.265 OA
BRANCH  10  12
ATOM     12  C   UNL d   1      53.062  31.623  53.268  0.00  0.00     0.062 C 
BRANCH  12  13
ATOM     13  C   UNL d   1      52.988  30.867  52.931  0.00  0.00     0.005 C 
BRANCH  13  14
ATOM     14  C   UNL d   1      53.144  30.195  53.385  0.00  0.00     0.000 A 
ATOM     15  C   UNL d   1      52.551  29.631  53.513  0.00  0.00     0.000 A 
ATOM     16  C   UNL d   1      52.699  28.958  53.965  0.00  0.00     0.000 A 
ATOM     17  C   UNL d   1      53.448  28.839  54.296  0.00  0.00     0.000 A 
ATOM     18  C   UNL d   1      54.048  29.405  54.168  0.00  0.00     0.000 A 
ATOM     19  C   UNL d   1      53.892  30.077  53.715  0.00  0.00     0.000 A 
ENDBRANCH  13  14
ENDBRANCH  12  13
ENDBRANCH  10  12
ENDBRANCH   1   9
BRANCH   2  20
ATOM     20  C   UNL d   1      52.406  34.683  53.407  0.00  0.00     0.281 C 
ATOM     21  O   UNL d   1      52.834  34.946  52.795  0.00  0.00    -0.265 OA
ATOM     22  N   UNL d   1      52.535  34.971  54.132  0.00  0.00    -0.205 NA
ATOM     23  C   UNL d   1      53.115  35.545  54.251  0.00  0.00     0.123 C 
ENDBRANCH   2  20
TORSDOF 5
ENDMDL
MODEL 5
REMARK VINA RESULT:      -7.0      2.132      4.963
REMARK  5 active torsions:
REMARK  status: ('A' for Active; 'I' for Inactive)
REMARK    1  A    between atoms: N_6  and  C_1 
REMARK    2  A    between atoms: C_7  and  C_2 
REMARK       I    between atoms: C_8  and  N_6 
REMARK       I    between atoms: N_13  and  C_7 
REMARK    3  A    between atoms: C_9  and  C_8 
REMARK    4  A    between atoms: C_10  and  C_9 
REMARK    5  A    between atoms: C_15  and  C_10 
ROOT
ATOM      1  C   UNL d   1      53.528  32.687  53.572  0.00  0.00     0.119 A 
ATOM      2  C   UNL d   1      53.530  33.362  53.954  0.00  0.00     0.082 A 
ATOM      3  S   UNL d   1      53.072  32.766  52.929  0.00  0.00    -0.068 SA
ATOM      4  C   UNL d   1      53.076  33.875  53.558  0.00  0.00     0.013 A 
ATOM      5  C   UNL d   1      52.792  33.500  52.921  0.00  0.00     0.031 A 
ATOM      6  C   UNL d   1      52.883  34.630  53.691  0.00  0.00     0.001 A 
ATOM      7  C   UNL d   1      52.126  34.636  52.555  0.00  0.00     0.006 A 
ATOM      8  C   UNL d   1      52.408  35.008  53.188  0.00  0.00     0.001 A 
ENDROOT
BRANCH   1   9
ATOM      9  N   UNL d   1      53.775  31.992  53.553  0.00  0.00    -0.201 NA
ATOM     10  C   UNL d   1      53.028  31.400  53.420  0.00  0.00     0.280 C 
ATOM     11  O   UNL d   1      52.353  31.471  53.343  0.00  0.00    -0.265 OA
BRANCH  10  12
ATOM     12  C   UNL d   1      53.258  30.608  53.392  0.00  0.00     0.062 C 
BRANCH  12  13
ATOM     13  C   UNL d   1      52.765  30.020  53.710  0.00  0.00     0.005 C 
BRANCH  13  14
ATOM     14  C   UNL d   1      53.086  29.416  54.172  0.00  0.00     0.000 A 
ATOM     15  C   UNL d   1      52.907  29.369  54.979  0.00  0.00     0.000 A 
ATOM     16  C   UNL d   1      53.224  28.769  55.448  0.00  0.00     0.000 A 
ATOM     17  C   UNL d   1      53.728  28.205  55.112  0.00  0.00     0.000 A 
ATOM     18  C   UNL d   1      53.911  28.250  54.299  0.00  0.00     0.000 A 
ATOM     19  C   UNL d   1      53.589  28.853  53.837  0.00  0.00     0.000 A 
ENDBRANCH  13  14
ENDBRANCH  12  13
ENDBRANCH  10  12
ENDBRANCH   1   9
BRANCH   2  20
ATOM     20  C   UNL d   1      53.919  33.514  54.623  0.00  0.00     0.281 C 
ATOM     21  O   UNL d   1      53.521  33.567  55.306  0.00  0.00    -0.265 OA
ATOM     22  N   UNL d   1      54.704  33.613  54.615  0.00  0.00    -0.205 NA
ATOM     23  C   UNL d   1      55.107  33.771  55.317  0.00  0.00     0.123 C 
ENDBRANCH   2  20
TORSDOF 5
ENDMDL
MODEL 6
REMARK VINA RESULT:      -6.6      2.642      5.963
REMARK  5 active torsions:
REMARK  status: ('A' for Active; 'I' for Inactive)
REMARK    1  A    between atoms: N_6  and  C_1 
REMARK    2  A    between atoms: C_7  and  C_2 
REMARK       I    between atoms: C_8  and  N_6 
REMARK       I    between atoms: N_13  and  C_7 
REMARK    3  A    between atoms: C_9  and  C_8 
REMARK    4  A    between atoms: C_10  and  C_9 
REMARK    5  A    between atoms: C_15  and  C_10 
ROOT
ATOM      1  C   UNL d   1      48.096  35.890  52.934  0.00  0.00     0.119 A 
ATOM      2  C   UNL d   1      47.373  35.977  53.201  0.00  0.00     0.082 A 
ATOM      3  S   UNL d   1      48.069  35.868  52.143  0.00  0.00    -0.068 SA
ATOM      4  C   UNL d   1      46.881  36.012  52.582  0.00  0.00     0.013 A 
ATOM      5  C   UNL d   1      47.318  35.944  51.925  0.00  0.00     0.031 A 
ATOM      6  C   UNL d   1      46.096  36.097  52.529  0.00  0.00     0.001 A 
ATOM      7  C   UNL d   1      46.185  36.045  51.167  0.00  0.00     0.006 A 
ATOM      8  C   UNL d   1      45.752  36.112  51.820  0.00  0.00     0.001 A 
ENDROOT
BRANCH   1   9
ATOM      9  N   UNL d   1      48.809  35.817  53.107  0.00  0.00    -0.201 NA
ATOM     10  C   UNL d   1      49.139  34.995  52.730  0.00  0.00     0.280 C 
ATOM     11  O   UNL d   1      48.878  34.487  52.357  0.00  0.00    -0.265 OA
BRANCH  10  12
ATOM     12  C   UNL d   1      49.937  34.872  52.900  0.00  0.00     0.062 C 
BRANCH  12  13
ATOM     13  C   UNL d   1      50.329  34.204  52.601  0.00  0.00     0.005 C 
BRANCH  13  14
ATOM     14  C   UNL d   1      51.099  34.032  52.842  0.00  0.00     0.000 A 
ATOM     15  C   UNL d   1      51.733  34.496  52.577  0.00  0.00     0.000 A 
ATOM     16  C   UNL d   1      52.505  34.331  52.814  0.00  0.00     0.000 A 
ATOM     17  C   UNL d   1      52.655  33.696  53.323  0.00  0.00     0.000 A 
ATOM     18  C   UNL d   1      52.018  33.227  53.591  0.00  0.00     0.000 A 
ATOM     19  C   UNL d   1      51.248  33.398  53.350  0.00  0.00     0.000 A 
ENDBRANCH  13  14
ENDBRANCH  12  13
ENDBRANCH  10  12
ENDBRANCH   1   9
BRANCH   2  20
ATOM     20  C   UNL d   1      47.162  36.024  53.960  0.00  0.00     0.281 C 
ATOM     21  O   UNL d   1      46.761  35.429  54.294  0.00  0.00    -0.265 OA
ATOM     22  N   UNL d   1      47.350  36.662  54.387  0.00  0.00    -0.205 NA
ATOM     23  C   UNL d   1      47.128  36.708  55.180  0.00  0.00     0.123 C 
ENDBRANCH   2  20
TORSDOF 5
ENDMDL
