MODEL 1
REMARK VINA RESULT:      -0.6      0.000      0.000
REMARK  7 active torsions:
REMARK  status: ('A' for Active; 'I' for Inactive)
REMARK    1  A    between atoms: N_4  and  S_1 
REMARK    2  A    between atoms: C_2  and  N_4 
REMARK    3  A    between atoms: C_3  and  C_2 
REMARK    4  A    between atoms: N_5  and  C_3 
REMARK    5  A    between atoms: C_7  and  C_3 
REMARK    6  A    between atoms: C_9  and  N_6 
REMARK    7  A    between atoms: O_26  and  C_22 
ROOT
ATOM      1  N   UNL d   1      58.275  -0.881  30.267  0.00  0.00    -0.300 N 
ATOM      2  N   UNL d   1      57.265  -0.492  31.533  0.00  0.00    -0.301 N 
ATOM      3  C   UNL d   1      57.488  -0.649  30.126  0.00  0.00     0.100 A 
ATOM      4  C   UNL d   1      58.540  -0.913  31.043  0.00  0.00     0.100 A 
ATOM      5  C   UNL d   1      56.985  -0.456  30.750  0.00  0.00     0.100 A 
ATOM      6  C   UNL d   1      58.048  -0.722  31.673  0.00  0.00     0.100 A 
ENDROOT
BRANCH   1   7
ATOM      7  C   UNL d   1      58.773  -1.073  29.645  0.00  0.00     0.089 C 
BRANCH   7   8
ATOM      8  C   UNL d   1      59.288  -0.510  29.337  0.00  0.00     0.110 C 
ATOM      9  C   UNL d   1      59.344  -0.404  28.521  0.00  0.00     0.023 C 
BRANCH   8  10
ATOM     10  N   UNL d   1      59.746  -0.056  29.841  0.00  0.00    -0.161 NA
BRANCH  10  11
ATOM     11  S   UNL d   1      60.374   0.390  29.553  0.00  0.00     0.266 S 
ATOM     12  O   UNL d   1      60.753   0.217  30.271  0.00  0.00    -0.203 OA
ATOM     13  O   UNL d   1      61.133   0.682  29.703  0.00  0.00    -0.203 OA
ATOM     14  C   UNL d   1      60.057   0.598  28.825  0.00  0.00     0.165 C 
ENDBRANCH  10  11
ENDBRANCH   8  10
ENDBRANCH   7   8
BRANCH   7  15
ATOM     15  C   UNL d   1      58.757  -1.832  29.325  0.00  0.00     0.047 A 
ATOM     16  S   UNL d   1      59.201  -2.481  29.585  0.00  0.00    -0.085 SA
ATOM     17  C   UNL d   1      59.008  -3.125  29.104  0.00  0.00     0.035 A 
ATOM     18  C   UNL d   1      58.455  -2.888  28.551  0.00  0.00     0.007 A 
ATOM     19  C   UNL d   1      58.296  -2.082  28.686  0.00  0.00     0.009 A 
ENDBRANCH   7  15
ENDBRANCH   1   7
BRANCH   2  20
ATOM     20  C   UNL d   1      56.759  -0.297  32.158  0.00  0.00     0.064 A 
ATOM     21  C   UNL d   1      56.652   0.488  32.369  0.00  0.00     0.020 A 
ATOM     22  C   UNL d   1      56.146   0.679  32.995  0.00  0.00     0.026 A 
ATOM     23  C   UNL d   1      55.750   0.078  33.406  0.00  0.00     0.094 A 
ATOM     24  C   UNL d   1      55.870  -0.711  33.180  0.00  0.00     0.026 A 
ATOM     25  C   UNL d   1      56.377  -0.903  32.553  0.00  0.00     0.020 A 
BRANCH  23  26
ATOM     26  O   UNL d   1      55.241   0.263  34.036  0.00  0.00    -0.328 OA
ATOM     27  C   UNL d   1      54.506   0.594  33.865  0.00  0.00     0.181 C 
ENDBRANCH  23  26
ENDBRANCH   2  20
TORSDOF 7
ENDMDL
MODEL 2
REMARK VINA RESULT:      -0.6      1.132      2.000
REMARK  7 active torsions:
REMARK  status: ('A' for Active; 'I' for Inactive)
REMARK    1  A    between atoms: N_4  and  S_1 
REMARK    2  A    between atoms: C_2  and  N_4 
REMARK    3  A    between atoms: C_3  and  C_2 
REMARK    4  A    between atoms: N_5  and  C_3 
REMARK    5  A    between atoms: C_7  and  C_3 
REMARK    6  A    between atoms: C_9  and  N_6 
REMARK    7  A    between atoms: O_26  and  C_22 
ROOT
ATOM      1  N   UNL d   1      58.223  -0.951  30.250  0.00  0.00    -0.300 N 
ATOM      2  N   UNL d   1      57.230  -0.642  31.550  0.00  0.00    -0.301 N 
ATOM      3  C   UNL d   1      57.488  -1.338  30.324  0.00  0.00     0.100 A 
ATOM      4  C   UNL d   1      58.444  -0.417  30.831  0.00  0.00     0.100 A 
ATOM      5  C   UNL d   1      56.994  -1.187  30.967  0.00  0.00     0.100 A 
ATOM      6  C   UNL d   1      57.960  -0.259  31.476  0.00  0.00     0.100 A 
ENDROOT
BRANCH   1   7
ATOM      7  C   UNL d   1      58.712  -1.104  29.609  0.00  0.00     0.089 C 
BRANCH   7   8
ATOM      8  C   UNL d   1      58.912  -1.878  29.415  0.00  0.00     0.110 C 
ATOM      9  C   UNL d   1      58.526  -2.260  28.795  0.00  0.00     0.023 C 
BRANCH   8  10
ATOM     10  N   UNL d   1      59.494  -2.268  29.838  0.00  0.00    -0.161 NA
BRANCH  10  11
ATOM     11  S   UNL d   1      59.876  -2.925  29.522  0.00  0.00     0.266 S 
ATOM     12  O   UNL d   1      60.571  -2.607  29.846  0.00  0.00    -0.203 OA
ATOM     13  O   UNL d   1      60.596  -3.319  29.428  0.00  0.00    -0.203 OA
ATOM     14  C   UNL d   1      59.227  -3.293  29.177  0.00  0.00     0.165 C 
ENDBRANCH  10  11
ENDBRANCH   8  10
ENDBRANCH   7   8
BRANCH   7  15
ATOM     15  C   UNL d   1      59.005  -0.480  29.158  0.00  0.00     0.047 A 
ATOM     16  S   UNL d   1      58.573   0.175  28.892  0.00  0.00    -0.085 SA
ATOM     17  C   UNL d   1      59.089   0.657  28.462  0.00  0.00     0.035 A 
ATOM     18  C   UNL d   1      59.831   0.314  28.457  0.00  0.00     0.007 A 
ATOM     19  C   UNL d   1      59.782  -0.395  28.890  0.00  0.00     0.009 A 
ENDBRANCH   7  15
ENDBRANCH   1   7
BRANCH   2  20
ATOM     20  C   UNL d   1      56.733  -0.492  32.195  0.00  0.00     0.064 A 
ATOM     21  C   UNL d   1      56.247   0.168  32.191  0.00  0.00     0.020 A 
ATOM     22  C   UNL d   1      55.751   0.317  32.837  0.00  0.00     0.026 A 
ATOM     23  C   UNL d   1      55.748  -0.202  33.485  0.00  0.00     0.094 A 
ATOM     24  C   UNL d   1      56.247  -0.864  33.472  0.00  0.00     0.026 A 
ATOM     25  C   UNL d   1      56.743  -1.013  32.825  0.00  0.00     0.020 A 
BRANCH  23  26
ATOM     26  O   UNL d   1      55.253  -0.059  34.136  0.00  0.00    -0.328 OA
ATOM     27  C   UNL d   1      54.840   0.652  34.170  0.00  0.00     0.181 C 
ENDBRANCH  23  26
ENDBRANCH   2  20
TORSDOF 7
ENDMDL
