MODEL 1
REMARK VINA RESULT:      20.8      0.000      0.000
REMARK  2 active torsions:
REMARK  status: ('A' for Active; 'I' for Inactive)
REMARK    1  A    between atoms: C_7  and  C_1 
REMARK    2  A    between atoms: O_15  and  C_11 
ROOT
ATOM      1  C   UNL d   1     -54.740-101.792 -38.259  0.00  0.00     0.103 A 
ATOM      2  C   UNL d   1     -54.723-101.013 -37.987  0.00  0.00     0.067 A 
ATOM      3  O   UNL d   1     -54.762-102.397 -37.729  0.00  0.00    -0.307 OA
ATOM      4  C   UNL d   1     -54.729-100.840 -37.185  0.00  0.00     0.200 A 
ATOM      5  C   UNL d   1     -54.753-101.483 -36.641  0.00  0.00     0.062 A 
ATOM      6  C   UNL d   1     -54.770-102.261 -36.913  0.00  0.00     0.103 A 
ATOM      7  O   UNL d   1     -54.712-100.052 -36.938  0.00  0.00    -0.286 OA
ATOM      8  C   UNL d   1     -54.759-101.311 -35.834  0.00  0.00     0.005 A 
ATOM      9  C   UNL d   1     -54.793-102.868 -36.378  0.00  0.00     0.025 A 
ATOM     10  C   UNL d   1     -54.783-101.945 -35.316  0.00  0.00     0.000 A 
ATOM     11  C   UNL d   1     -54.800-102.724 -35.588  0.00  0.00     0.002 A 
ENDROOT
BRANCH   1  12
ATOM     12  C   UNL d   1     -54.733-101.934 -39.056  0.00  0.00     0.023 A 
ATOM     13  C   UNL d   1     -54.739-102.712 -39.349  0.00  0.00     0.004 A 
ATOM     14  C   UNL d   1     -54.733-102.879 -40.154  0.00  0.00     0.024 A 
ATOM     15  C   UNL d   1     -54.718-102.222 -40.688  0.00  0.00     0.094 A 
ATOM     16  C   UNL d   1     -54.712-101.445 -40.394  0.00  0.00     0.024 A 
ATOM     17  C   UNL d   1     -54.718-101.295 -39.601  0.00  0.00     0.004 A 
BRANCH  15  18
ATOM     18  O   UNL d   1     -54.711-102.374 -41.537  0.00  0.00    -0.328 OA
ATOM     19  C   UNL d   1     -54.719-101.718 -42.055  0.00  0.00     0.181 C 
ENDBRANCH  15  18
ENDBRANCH   1  12
TORSDOF 2
ENDMDL
