MODEL 1
REMARK VINA RESULT:       8.0      0.000      0.000
REMARK  7 active torsions:
REMARK  status: ('A' for Active; 'I' for Inactive)
REMARK    1  A    between atoms: C_2  and  N_1 
REMARK    2  A    between atoms: C_4  and  O_6 
REMARK    3  A    between atoms: C_11  and  C_4 
REMARK    4  A    between atoms: O_6  and  C_12 
REMARK    5  A    between atoms: O_10  and  C_11 
REMARK    6  A    between atoms: C_13  and  O_10 
REMARK    7  A    between atoms: C_21  and  C_16 
ROOT
ATOM      1  C   UNL d   1      45.730 -16.523  44.474  0.00  0.00     0.325 C 
ATOM      2  O   UNL d   1      45.059 -16.667  44.006  0.00  0.00    -0.256 OA
ENDROOT
BRANCH   1   3
ATOM      3  O   UNL d   1      46.363 -17.054  44.472  0.00  0.00    -0.272 OA
BRANCH   3   4
ATOM      4  C   UNL d   1      46.372 -17.681  43.936  0.00  0.00     0.103 A 
ATOM      5  C   UNL d   1      46.349 -18.457  44.207  0.00  0.00     0.026 A 
ATOM      6  C   UNL d   1      46.359 -19.085  43.646  0.00  0.00     0.026 A 
ATOM      7  C   UNL d   1      46.391 -18.937  42.839  0.00  0.00     0.127 A 
ATOM      8  C   UNL d   1      46.414 -18.134  42.562  0.00  0.00     0.026 A 
ATOM      9  C   UNL d   1      46.404 -17.520  43.132  0.00  0.00     0.026 A 
BRANCH   7  10
ATOM     10  N   UNL d   1      46.400 -19.564  42.304  0.00  0.00    -0.114 N 
ATOM     11  O   UNL d   1      46.638 -19.495  41.512  0.00  0.00    -0.532 OA
ATOM     12  O   UNL d   1      46.176 -20.329  42.479  0.00  0.00    -0.532 OA
ENDBRANCH   7  10
ENDBRANCH   3   4
ENDBRANCH   1   3
BRANCH   1  13
ATOM     13  C   UNL d   1      45.764 -15.845  44.944  0.00  0.00     0.191 C 
BRANCH  13  14
ATOM     14  O   UNL d   1      45.127 -15.318  44.955  0.00  0.00    -0.300 OA
BRANCH  14  15
ATOM     15  C   UNL d   1      45.223 -14.527  44.651  0.00  0.00     0.100 A 
ATOM     16  C   UNL d   1      45.822 -14.044  44.940  0.00  0.00     0.025 A 
ATOM     17  C   UNL d   1      45.915 -13.278  44.646  0.00  0.00     0.002 A 
ATOM     18  C   UNL d   1      45.409 -12.996  44.063  0.00  0.00     0.000 A 
ATOM     19  C   UNL d   1      44.806 -13.480  43.771  0.00  0.00     0.002 A 
ATOM     20  C   UNL d   1      44.713 -14.245  44.064  0.00  0.00     0.025 A 
BRANCH  18  21
ATOM     21  C   UNL d   1      45.505 -12.210  43.761  0.00  0.00     0.000 C 
ATOM     22  C   UNL d   1      45.539 -12.082  42.945  0.00  0.00     0.000 C 
ENDBRANCH  18  21
ENDBRANCH  14  15
ENDBRANCH  13  14
ENDBRANCH   1  13
TORSDOF 7
ENDMDL
