MODEL 1
REMARK VINA RESULT:      16.1      0.000      0.000
REMARK  3 active torsions:
REMARK  status: ('A' for Active; 'I' for Inactive)
REMARK    1  A    between atoms: S_6  and  C_2 
REMARK    2  A    between atoms: C_8  and  S_6 
REMARK    3  A    between atoms: C_9  and  C_8 
ROOT
ATOM      1  S   UNL d   1     -50.888  25.198  33.313  0.00  0.00    -0.048 SA
ENDROOT
BRANCH   1   2
ATOM      2  C   UNL d   1     -51.319  24.487  33.313  0.00  0.00     0.203 A 
ATOM      3  N   UNL d   1     -52.141  24.421  33.319  0.00  0.00    -0.193 NA
ATOM      4  C   UNL d   1     -52.331  23.616  33.316  0.00  0.00     0.234 A 
ATOM      5  S   UNL d   1     -51.629  23.188  33.308  0.00  0.00     0.056 SA
ATOM      6  N   UNL d   1     -53.092  23.305  33.320  0.00  0.00    -0.118 N 
ATOM      7  N   UNL d   1     -51.000  23.723  33.306  0.00  0.00    -0.181 NA
ENDBRANCH   1   2
BRANCH   1   8
ATOM      8  C   UNL d   1     -51.156  25.839  33.760  0.00  0.00     0.038 C 
BRANCH   8   9
ATOM      9  C   UNL d   1     -50.871  26.595  33.611  0.00  0.00     0.007 A 
ATOM     10  C   UNL d   1     -51.411  27.206  33.458  0.00  0.00     0.001 A 
ATOM     11  C   UNL d   1     -51.128  27.971  33.307  0.00  0.00     0.000 A 
ATOM     12  C   UNL d   1     -50.316  28.117  33.311  0.00  0.00     0.000 A 
ATOM     13  C   UNL d   1     -49.782  27.496  33.466  0.00  0.00     0.000 A 
ATOM     14  C   UNL d   1     -50.067  26.740  33.615  0.00  0.00     0.001 A 
ENDBRANCH   8   9
ENDBRANCH   1   8
TORSDOF 3
ENDMDL
MODEL 2
REMARK VINA RESULT:      17.0      1.050      1.488
REMARK  3 active torsions:
REMARK  status: ('A' for Active; 'I' for Inactive)
REMARK    1  A    between atoms: S_6  and  C_2 
REMARK    2  A    between atoms: C_8  and  S_6 
REMARK    3  A    between atoms: C_9  and  C_8 
ROOT
ATOM      1  S   UNL d   1     -52.344  24.989  33.306  0.00  0.00    -0.048 SA
ENDROOT
BRANCH   1   2
ATOM      2  C   UNL d   1     -52.795  24.344  33.578  0.00  0.00     0.203 A 
ATOM      3  N   UNL d   1     -53.597  24.222  33.434  0.00  0.00    -0.193 NA
ATOM      4  C   UNL d   1     -53.817  23.517  33.806  0.00  0.00     0.234 A 
ATOM      5  S   UNL d   1     -53.152  23.207  34.178  0.00  0.00     0.056 SA
ATOM      6  N   UNL d   1     -54.570  23.188  33.802  0.00  0.00    -0.118 N 
ATOM      7  N   UNL d   1     -52.517  23.716  34.040  0.00  0.00    -0.181 NA
ENDBRANCH   1   2
BRANCH   1   8
ATOM      8  C   UNL d   1     -51.554  25.061  33.533  0.00  0.00     0.038 C 
BRANCH   8   9
ATOM      9  C   UNL d   1     -51.170  25.785  33.474  0.00  0.00     0.007 A 
ATOM     10  C   UNL d   1     -50.341  25.804  33.494  0.00  0.00     0.001 A 
ATOM     11  C   UNL d   1     -49.950  26.534  33.436  0.00  0.00     0.000 A 
ATOM     12  C   UNL d   1     -50.387  27.229  33.359  0.00  0.00     0.000 A 
ATOM     13  C   UNL d   1     -51.219  27.198  33.340  0.00  0.00     0.000 A 
ATOM     14  C   UNL d   1     -51.603  26.474  33.398  0.00  0.00     0.001 A 
ENDBRANCH   8   9
ENDBRANCH   1   8
TORSDOF 3
ENDMDL
