MODEL 1
REMARK VINA RESULT:      -6.0      0.000      0.000
REMARK  5 active torsions:
REMARK  status: ('A' for Active; 'I' for Inactive)
REMARK    1  A    between atoms: C_2  and  N_1 
REMARK    2  A    between atoms: C_5  and  N_1 
REMARK    3  A    between atoms: C_7  and  C_2 
REMARK    4  A    between atoms: C_4  and  O_6 
REMARK    5  A    between atoms: O_6  and  C_8 
ROOT
ATOM      1  C   UNL d   1     -41.218-122.903 -51.773  0.00  0.00     0.020 A 
ATOM      2  C   UNL d   1     -41.171-122.723 -53.414  0.00  0.00     0.105 A 
ATOM      3  C   UNL d   1     -41.145-122.148 -52.100  0.00  0.00     0.004 A 
ATOM      4  C   UNL d   1     -41.268-123.568 -52.249  0.00  0.00     0.004 A 
ATOM      5  C   UNL d   1     -41.123-122.064 -52.915  0.00  0.00     0.025 A 
ATOM      6  C   UNL d   1     -41.245-123.484 -53.064  0.00  0.00     0.025 A 
ENDROOT
BRANCH   1   7
ATOM      7  C   UNL d   1     -41.242-122.989 -50.936  0.00  0.00     0.108 C 
BRANCH   7   8
ATOM      8  N   UNL d   1     -41.929-122.762 -50.529  0.00  0.00    -0.184 N 
ATOM      9  O   UNL d   1     -42.523-122.334 -50.907  0.00  0.00    -0.080 OA
BRANCH   8  10
ATOM     10  C   UNL d   1     -42.009-122.972 -49.738  0.00  0.00     0.090 A 
ATOM     11  C   UNL d   1     -42.768-122.985 -49.402  0.00  0.00     0.020 A 
ATOM     12  C   UNL d   1     -42.849-123.195 -48.608  0.00  0.00     0.002 A 
ATOM     13  C   UNL d   1     -42.171-123.394 -48.148  0.00  0.00     0.000 A 
ATOM     14  C   UNL d   1     -41.424-123.372 -48.510  0.00  0.00     0.002 A 
ATOM     15  C   UNL d   1     -41.344-123.162 -49.304  0.00  0.00     0.020 A 
ENDBRANCH   8  10
ENDBRANCH   7   8
ENDBRANCH   1   7
BRANCH   2  16
ATOM     16  O   UNL d   1     -41.147-122.631 -54.226  0.00  0.00    -0.260 OA
BRANCH  16  17
ATOM     17  C   UNL d   1     -41.828-122.437 -54.635  0.00  0.00     0.391 C 
ATOM     18  F   UNL d   1     -42.339-123.039 -54.874  0.00  0.00    -0.145 F 
ATOM     19  F   UNL d   1     -41.998-121.653 -54.803  0.00  0.00    -0.145 F 
ENDBRANCH  16  17
ENDBRANCH   2  16
TORSDOF 5
ENDMDL
MODEL 2
REMARK VINA RESULT:      -6.0      2.157      4.538
REMARK  5 active torsions:
REMARK  status: ('A' for Active; 'I' for Inactive)
REMARK    1  A    between atoms: C_2  and  N_1 
REMARK    2  A    between atoms: C_5  and  N_1 
REMARK    3  A    between atoms: C_7  and  C_2 
REMARK    4  A    between atoms: C_4  and  O_6 
REMARK    5  A    between atoms: O_6  and  C_8 
ROOT
ATOM      1  C   UNL d   1     -41.310-122.553 -51.979  0.00  0.00     0.020 A 
ATOM      2  C   UNL d   1     -41.588-122.787 -50.368  0.00  0.00     0.105 A 
ATOM      3  C   UNL d   1     -41.635-121.942 -51.527  0.00  0.00     0.004 A 
ATOM      4  C   UNL d   1     -41.123-123.276 -51.642  0.00  0.00     0.004 A 
ATOM      5  C   UNL d   1     -41.771-122.064 -50.728  0.00  0.00     0.025 A 
ATOM      6  C   UNL d   1     -41.259-123.397 -50.844  0.00  0.00     0.025 A 
ENDROOT
BRANCH   1   7
ATOM      7  C   UNL d   1     -41.170-122.428 -52.800  0.00  0.00     0.108 C 
BRANCH   7   8
ATOM      8  N   UNL d   1     -41.603-122.872 -53.352  0.00  0.00    -0.184 N 
ATOM      9  O   UNL d   1     -41.905-123.613 -53.157  0.00  0.00    -0.080 OA
BRANCH   8  10
ATOM     10  C   UNL d   1     -41.728-122.558 -54.102  0.00  0.00     0.090 A 
ATOM     11  C   UNL d   1     -41.206-122.763 -54.714  0.00  0.00     0.020 A 
ATOM     12  C   UNL d   1     -41.331-122.449 -55.466  0.00  0.00     0.002 A 
ATOM     13  C   UNL d   1     -41.979-121.929 -55.609  0.00  0.00     0.000 A 
ATOM     14  C   UNL d   1     -42.485-121.741 -54.979  0.00  0.00     0.002 A 
ATOM     15  C   UNL d   1     -42.360-122.056 -54.226  0.00  0.00     0.020 A 
ENDBRANCH   8  10
ENDBRANCH   7   8
ENDBRANCH   1   7
BRANCH   2  16
ATOM     16  O   UNL d   1     -41.728-122.900 -49.570  0.00  0.00    -0.260 OA
BRANCH  16  17
ATOM     17  C   UNL d   1     -42.493-123.000 -49.299  0.00  0.00     0.391 C 
ATOM     18  F   UNL d   1     -42.886-122.359 -48.962  0.00  0.00    -0.145 F 
ATOM     19  F   UNL d   1     -42.860-123.729 -49.364  0.00  0.00    -0.145 F 
ENDBRANCH  16  17
ENDBRANCH   2  16
TORSDOF 5
ENDMDL
