MODEL 1
REMARK VINA RESULT:      22.7      0.000      0.000
REMARK  2 active torsions:
REMARK  status: ('A' for Active; 'I' for Inactive)
REMARK       I    between atoms: C_9  and  N_1 
REMARK    1  A    between atoms: C_5  and  C_3 
REMARK    2  A    between atoms: C_8  and  C_4 
ROOT
ATOM      1  N   UNL d   1     -58.132 -98.828 -44.627  0.00  0.00    -0.193 N 
ATOM      2  N   UNL d   1     -57.383 -98.827 -44.932  0.00  0.00    -0.162 NA
ATOM      3  C   UNL d   1     -58.072 -98.815 -43.803  0.00  0.00     0.110 A 
ATOM      4  C   UNL d   1     -56.842 -98.812 -44.306  0.00  0.00     0.109 A 
ATOM      5  C   UNL d   1     -57.288 -98.805 -43.619  0.00  0.00     0.043 A 
ATOM      6  C   UNL d   1     -58.967 -98.843 -45.065  0.00  0.00     0.281 C 
ATOM      7  O   UNL d   1     -59.623 -98.841 -44.605  0.00  0.00    -0.265 OA
ATOM      8  C   UNL d   1     -59.026 -98.856 -45.889  0.00  0.00     0.068 C 
ENDROOT
BRANCH   3   9
ATOM      9  C   UNL d   1     -58.700 -98.812 -43.294  0.00  0.00     0.118 A 
ATOM     10  O   UNL d   1     -58.641 -98.776 -42.472  0.00  0.00    -0.306 OA
ATOM     11  C   UNL d   1     -59.417 -98.787 -42.167  0.00  0.00     0.100 A 
ATOM     12  C   UNL d   1     -59.607 -98.758 -41.353  0.00  0.00     0.027 C 
ATOM     13  C   UNL d   1     -59.957 -98.829 -42.790  0.00  0.00     0.027 A 
ATOM     14  C   UNL d   1     -59.511 -98.844 -43.482  0.00  0.00     0.028 A 
ENDBRANCH   3   9
BRANCH   4  15
ATOM     15  C   UNL d   1     -56.019 -98.806 -44.366  0.00  0.00     0.049 A 
ATOM     16  S   UNL d   1     -55.503 -98.830 -43.749  0.00  0.00    -0.085 SA
ATOM     17  C   UNL d   1     -54.754 -98.814 -44.044  0.00  0.00     0.035 A 
ATOM     18  C   UNL d   1     -54.814 -98.779 -44.867  0.00  0.00     0.007 A 
ATOM     19  C   UNL d   1     -55.599 -98.774 -45.060  0.00  0.00     0.009 A 
ENDBRANCH   4  15
TORSDOF 2
ENDMDL
