MODEL 1
REMARK VINA RESULT:      -2.1      0.000      0.000
REMARK  7 active torsions:
REMARK  status: ('A' for Active; 'I' for Inactive)
REMARK    1  A    between atoms: C_4  and  C_1 
REMARK    2  A    between atoms: N_5  and  C_3 
REMARK    3  A    between atoms: C_9  and  C_4 
REMARK       I    between atoms: C_7  and  N_5 
REMARK    4  A    between atoms: C_10  and  C_7 
REMARK       I    between atoms: N_14  and  C_9 
REMARK    5  A    between atoms: C_20  and  N_14 
REMARK    6  A    between atoms: C_21  and  C_20 
REMARK    7  A    between atoms: O_29  and  C_22 
ROOT
ATOM      1  C   UNL d   1      58.649  -0.128  29.250  0.00  0.00     0.144 C 
ATOM      2  C   UNL d   1      59.273   0.269  28.887  0.00  0.00     0.107 C 
ATOM      3  N   UNL d   1      59.894   0.667  28.532  0.00  0.00    -0.191 NA
ENDROOT
BRANCH   1   4
ATOM      4  C   UNL d   1      58.465   0.015  30.051  0.00  0.00     0.097 A 
ATOM      5  N   UNL d   1      57.740  -0.027  30.444  0.00  0.00    -0.226 NA
ATOM      6  C   UNL d   1      57.866   0.169  31.237  0.00  0.00     0.166 A 
ATOM      7  C   UNL d   1      58.669   0.332  31.336  0.00  0.00     0.037 A 
ATOM      8  C   UNL d   1      59.047   0.238  30.605  0.00  0.00     0.021 A 
ATOM      9  C   UNL d   1      59.110   0.554  31.996  0.00  0.00     0.003 A 
ATOM     10  C   UNL d   1      59.855   0.366  30.537  0.00  0.00     0.002 A 
ATOM     11  C   UNL d   1      60.297   0.588  31.197  0.00  0.00     0.000 A 
ATOM     12  C   UNL d   1      59.919   0.681  31.928  0.00  0.00     0.000 A 
BRANCH   6  13
ATOM     13  N   UNL d   1      57.325   0.207  31.847  0.00  0.00    -0.189 NA
ATOM     14  C   UNL d   1      56.582  -0.169  31.911  0.00  0.00     0.286 C 
ATOM     15  O   UNL d   1      56.331  -0.650  31.291  0.00  0.00    -0.265 OA
BRANCH  14  16
ATOM     16  C   UNL d   1      56.101  -0.069  32.572  0.00  0.00     0.087 A 
ATOM     17  S   UNL d   1      56.046  -0.667  33.139  0.00  0.00    -0.082 SA
ATOM     18  C   UNL d   1      55.527  -0.407  33.729  0.00  0.00     0.036 A 
ATOM     19  C   UNL d   1      55.264   0.351  33.525  0.00  0.00     0.008 A 
ATOM     20  C   UNL d   1      55.618   0.559  32.811  0.00  0.00     0.012 A 
ENDBRANCH  14  16
ENDBRANCH   6  13
ENDBRANCH   1   4
BRANCH   1  21
ATOM     21  C   UNL d   1      58.201  -0.674  28.818  0.00  0.00     0.290 C 
ATOM     22  N   UNL d   1      58.520  -1.402  28.617  0.00  0.00    -0.206 NA
ATOM     23  O   UNL d   1      57.432  -0.487  28.589  0.00  0.00    -0.264 OA
BRANCH  22  24
ATOM     24  C   UNL d   1      59.296  -1.590  28.849  0.00  0.00     0.102 C 
BRANCH  24  25
ATOM     25  C   UNL d   1      59.761  -2.276  28.837  0.00  0.00     0.019 A 
ATOM     26  C   UNL d   1      59.444  -2.973  28.534  0.00  0.00     0.004 A 
ATOM     27  C   UNL d   1      59.898  -3.655  28.519  0.00  0.00     0.024 A 
ATOM     28  C   UNL d   1      60.677  -3.645  28.809  0.00  0.00     0.094 A 
ATOM     29  C   UNL d   1      60.992  -2.948  29.112  0.00  0.00     0.024 A 
ATOM     30  C   UNL d   1      60.528  -2.262  29.124  0.00  0.00     0.004 A 
BRANCH  28  31
ATOM     31  O   UNL d   1      61.133  -4.328  28.795  0.00  0.00    -0.328 OA
ATOM     32  C   UNL d   1      60.778  -5.067  28.694  0.00  0.00     0.181 C 
ENDBRANCH  28  31
ENDBRANCH  24  25
ENDBRANCH  22  24
ENDBRANCH   1  21
TORSDOF 7
ENDMDL
