MODEL 1
REMARK VINA RESULT:      -4.2      0.000      0.000
REMARK  2 active torsions:
REMARK  status: ('A' for Active; 'I' for Inactive)
REMARK    1  A    between atoms: C_11  and  N_1 
REMARK    2  A    between atoms: C_15  and  C_11 
ROOT
ATOM      1  N   UNL d   1      30.975  16.618 -24.154  0.00  0.00    -0.244 N 
ATOM      2  C   UNL d   1      30.257  16.959 -24.383  0.00  0.00     0.246 A 
ATOM      3  C   UNL d   1      29.641  16.561 -23.996  0.00  0.00     0.095 A 
ATOM      4  C   UNL d   1      30.805  16.002 -23.619  0.00  0.00     0.260 A 
ATOM      5  C   UNL d   1      29.981  15.966 -23.522  0.00  0.00     0.024 A 
ATOM      6  C   UNL d   1      28.827  16.657 -24.012  0.00  0.00     0.034 A 
ATOM      7  C   UNL d   1      29.501  15.478 -23.070  0.00  0.00     0.045 A 
ATOM      8  C   UNL d   1      28.346  16.169 -23.560  0.00  0.00    -0.030 A 
ATOM      9  C   UNL d   1      28.683  15.580 -23.090  0.00  0.00    -0.027 A 
ATOM     10  C   UNL d   1      29.347  16.145 -23.622  0.00  0.00     0.014 A 
ATOM     11  O   UNL d   1      30.164  17.594 -24.913  0.00  0.00    -0.271 OA
ATOM     12  O   UNL d   1      31.357  15.508 -23.246  0.00  0.00    -0.267 OA
ATOM     13  C   UNL d   1      29.512  17.193 -24.521  0.00  0.00     0.014 C 
ENDROOT
BRANCH   1  14
ATOM     14  C   UNL d   1      31.724  16.848 -24.409  0.00  0.00     0.086 C 
BRANCH  14  15
ATOM     15  C   UNL d   1      32.187  17.332 -23.933  0.00  0.00     0.018 A 
ATOM     16  C   UNL d   1      32.707  17.001 -23.397  0.00  0.00     0.002 A 
ATOM     17  C   UNL d   1      33.169  17.483 -22.921  0.00  0.00     0.000 A 
ATOM     18  C   UNL d   1      33.108  18.309 -22.984  0.00  0.00     0.000 A 
ATOM     19  C   UNL d   1      32.581  18.639 -23.527  0.00  0.00     0.000 A 
ATOM     20  C   UNL d   1      32.123  18.149 -23.999  0.00  0.00     0.002 A 
ENDBRANCH  14  15
ENDBRANCH   1  14
TORSDOF 2
ENDMDL
MODEL 2
REMARK VINA RESULT:      -4.1      0.539      3.293
REMARK  2 active torsions:
REMARK  status: ('A' for Active; 'I' for Inactive)
REMARK    1  A    between atoms: C_11  and  N_1 
REMARK    2  A    between atoms: C_15  and  C_11 
ROOT
ATOM      1  N   UNL d   1      31.115  16.688 -24.192  0.00  0.00    -0.244 N 
ATOM      2  C   UNL d   1      31.294  17.452 -24.454  0.00  0.00     0.246 A 
ATOM      3  C   UNL d   1      31.953  17.728 -24.032  0.00  0.00     0.095 A 
ATOM      4  C   UNL d   1      31.667  16.486 -23.600  0.00  0.00     0.260 A 
ATOM      5  C   UNL d   1      32.184  17.128 -23.502  0.00  0.00     0.024 A 
ATOM      6  C   UNL d   1      32.368  18.434 -24.059  0.00  0.00     0.034 A 
ATOM      7  C   UNL d   1      32.827  17.245 -23.007  0.00  0.00     0.045 A 
ATOM      8  C   UNL d   1      33.012  18.551 -23.563  0.00  0.00    -0.030 A 
ATOM      9  C   UNL d   1      33.241  17.958 -23.038  0.00  0.00    -0.027 A 
ATOM     10  C   UNL d   1      32.432  17.735 -23.620  0.00  0.00     0.014 A 
ATOM     11  O   UNL d   1      30.886  17.876 -25.043  0.00  0.00    -0.271 OA
ATOM     12  O   UNL d   1      31.698  15.771 -23.181  0.00  0.00    -0.267 OA
ATOM     13  C   UNL d   1      31.568  18.179 -24.615  0.00  0.00     0.014 C 
ENDROOT
BRANCH   1  14
ATOM     14  C   UNL d   1      30.500  16.213 -24.467  0.00  0.00     0.086 C 
BRANCH  14  15
ATOM     15  C   UNL d   1      29.791  16.185 -24.053  0.00  0.00     0.018 A 
ATOM     16  C   UNL d   1      29.695  15.652 -23.441  0.00  0.00     0.002 A 
ATOM     17  C   UNL d   1      28.987  15.623 -23.028  0.00  0.00     0.000 A 
ATOM     18  C   UNL d   1      28.367  16.137 -23.232  0.00  0.00     0.000 A 
ATOM     19  C   UNL d   1      28.467  16.674 -23.850  0.00  0.00     0.000 A 
ATOM     20  C   UNL d   1      29.179  16.696 -24.258  0.00  0.00     0.002 A 
ENDBRANCH  14  15
ENDBRANCH   1  14
TORSDOF 2
ENDMDL
MODEL 3
REMARK VINA RESULT:      -4.1      0.517      3.589
REMARK  2 active torsions:
REMARK  status: ('A' for Active; 'I' for Inactive)
REMARK    1  A    between atoms: C_11  and  N_1 
REMARK    2  A    between atoms: C_15  and  C_11 
ROOT
ATOM      1  N   UNL d   1      31.003  16.728 -24.253  0.00  0.00    -0.244 N 
ATOM      2  C   UNL d   1      31.608  16.451 -23.760  0.00  0.00     0.246 A 
ATOM      3  C   UNL d   1      32.137  17.074 -23.616  0.00  0.00     0.095 A 
ATOM      4  C   UNL d   1      31.157  17.531 -24.417  0.00  0.00     0.260 A 
ATOM      5  C   UNL d   1      31.857  17.744 -24.024  0.00  0.00     0.024 A 
ATOM      6  C   UNL d   1      32.826  17.121 -23.175  0.00  0.00     0.034 A 
ATOM      7  C   UNL d   1      32.271  18.451 -23.983  0.00  0.00     0.045 A 
ATOM      8  C   UNL d   1      33.241  17.828 -23.134  0.00  0.00    -0.030 A 
ATOM      9  C   UNL d   1      32.964  18.492 -23.538  0.00  0.00    -0.027 A 
ATOM     10  C   UNL d   1      32.392  17.651 -23.638  0.00  0.00     0.014 A 
ATOM     11  O   UNL d   1      31.678  15.679 -23.458  0.00  0.00    -0.271 OA
ATOM     12  O   UNL d   1      30.695  18.033 -24.889  0.00  0.00    -0.267 OA
ATOM     13  C   UNL d   1      32.237  16.313 -23.298  0.00  0.00     0.014 C 
ENDROOT
BRANCH   1  14
ATOM     14  C   UNL d   1      30.365  16.288 -24.530  0.00  0.00     0.086 C 
BRANCH  14  15
ATOM     15  C   UNL d   1      29.643  16.325 -24.140  0.00  0.00     0.018 A 
ATOM     16  C   UNL d   1      29.110  16.918 -24.320  0.00  0.00     0.002 A 
ATOM     17  C   UNL d   1      28.390  16.955 -23.930  0.00  0.00     0.000 A 
ATOM     18  C   UNL d   1      28.202  16.391 -23.351  0.00  0.00     0.000 A 
ATOM     19  C   UNL d   1      28.743  15.794 -23.171  0.00  0.00     0.000 A 
ATOM     20  C   UNL d   1      29.461  15.764 -23.566  0.00  0.00     0.002 A 
ENDBRANCH  14  15
ENDBRANCH   1  14
TORSDOF 2
ENDMDL
MODEL 4
REMARK VINA RESULT:      -3.2      2.101      4.358
REMARK  2 active torsions:
REMARK  status: ('A' for Active; 'I' for Inactive)
REMARK    1  A    between atoms: C_11  and  N_1 
REMARK    2  A    between atoms: C_15  and  C_11 
ROOT
ATOM      1  N   UNL d   1      33.232  18.882 -23.350  0.00  0.00    -0.244 N 
ATOM      2  C   UNL d   1      33.233  19.689 -23.533  0.00  0.00     0.246 A 
ATOM      3  C   UNL d   1      33.235  20.121 -22.825  0.00  0.00     0.095 A 
ATOM      4  C   UNL d   1      33.234  18.811 -22.519  0.00  0.00     0.260 A 
ATOM      5  C   UNL d   1      33.236  19.576 -22.195  0.00  0.00     0.024 A 
ATOM      6  C   UNL d   1      33.237  20.926 -22.671  0.00  0.00     0.034 A 
ATOM      7  C   UNL d   1      33.239  19.845 -21.421  0.00  0.00     0.045 A 
ATOM      8  C   UNL d   1      33.240  21.196 -21.895  0.00  0.00    -0.030 A 
ATOM      9  C   UNL d   1      33.241  20.656 -21.271  0.00  0.00    -0.027 A 
ATOM     10  C   UNL d   1      33.238  20.242 -22.205  0.00  0.00     0.014 A 
ATOM     11  O   UNL d   1      33.231  20.017 -24.299  0.00  0.00    -0.271 OA
ATOM     12  O   UNL d   1      33.234  18.103 -22.087  0.00  0.00    -0.267 OA
ATOM     13  C   UNL d   1      33.234  20.481 -23.574  0.00  0.00     0.014 C 
ENDROOT
BRANCH   1  14
ATOM     14  C   UNL d   1      33.229  18.262 -23.892  0.00  0.00     0.086 C 
BRANCH  14  15
ATOM     15  C   UNL d   1      32.529  17.864 -24.052  0.00  0.00     0.018 A 
ATOM     16  C   UNL d   1      32.315  17.217 -23.601  0.00  0.00     0.002 A 
ATOM     17  C   UNL d   1      31.615  16.818 -23.760  0.00  0.00     0.000 A 
ATOM     18  C   UNL d   1      31.126  17.073 -24.380  0.00  0.00     0.000 A 
ATOM     19  C   UNL d   1      31.346  17.726 -24.833  0.00  0.00     0.000 A 
ATOM     20  C   UNL d   1      32.047  18.119 -24.667  0.00  0.00     0.002 A 
ENDBRANCH  14  15
ENDBRANCH   1  14
TORSDOF 2
ENDMDL
MODEL 5
REMARK VINA RESULT:      -1.8      0.800      1.704
REMARK  2 active torsions:
REMARK  status: ('A' for Active; 'I' for Inactive)
REMARK    1  A    between atoms: C_11  and  N_1 
REMARK    2  A    between atoms: C_15  and  C_11 
ROOT
ATOM      1  N   UNL d   1      30.722  17.099 -23.576  0.00  0.00    -0.244 N 
ATOM      2  C   UNL d   1      30.527  16.307 -23.440  0.00  0.00     0.246 A 
ATOM      3  C   UNL d   1      29.757  16.173 -23.718  0.00  0.00     0.095 A 
ATOM      4  C   UNL d   1      30.068  17.463 -23.943  0.00  0.00     0.260 A 
ATOM      5  C   UNL d   1      29.472  16.891 -24.030  0.00  0.00     0.024 A 
ATOM      6  C   UNL d   1      29.283  15.504 -23.729  0.00  0.00     0.034 A 
ATOM      7  C   UNL d   1      28.717  16.929 -24.349  0.00  0.00     0.045 A 
ATOM      8  C   UNL d   1      28.528  15.541 -24.048  0.00  0.00    -0.030 A 
ATOM      9  C   UNL d   1      28.245  16.252 -24.357  0.00  0.00    -0.027 A 
ATOM     10  C   UNL d   1      29.193  16.288 -23.980  0.00  0.00     0.014 A 
ATOM     11  O   UNL d   1      31.017  15.736 -23.084  0.00  0.00    -0.271 OA
ATOM     12  O   UNL d   1      30.016  18.256 -24.180  0.00  0.00    -0.267 OA
ATOM     13  C   UNL d   1      30.220  15.579 -23.367  0.00  0.00     0.014 C 
ENDROOT
BRANCH   1  14
ATOM     14  C   UNL d   1      31.437  17.462 -23.383  0.00  0.00     0.086 C 
BRANCH  14  15
ATOM     15  C   UNL d   1      32.023  17.537 -23.953  0.00  0.00     0.018 A 
ATOM     16  C   UNL d   1      32.070  18.216 -24.405  0.00  0.00     0.002 A 
ATOM     17  C   UNL d   1      32.656  18.291 -24.975  0.00  0.00     0.000 A 
ATOM     18  C   UNL d   1      33.201  17.675 -25.092  0.00  0.00     0.000 A 
ATOM     19  C   UNL d   1      33.150  16.991 -24.634  0.00  0.00     0.000 A 
ATOM     20  C   UNL d   1      32.561  16.925 -24.067  0.00  0.00     0.002 A 
ENDBRANCH  14  15
ENDBRANCH   1  14
TORSDOF 2
ENDMDL
