MODEL 1
REMARK VINA RESULT:       0.3      0.000      0.000
REMARK  1 active torsions:
REMARK  status: ('A' for Active; 'I' for Inactive)
REMARK    1  A    between atoms: C_5  and  C_1 
ROOT
ATOM      1  C   UNL d   1      46.627 -18.843  42.116  0.00  0.00     0.128 A 
ATOM      2  C   UNL d   1      46.635 -19.690  42.019  0.00  0.00     0.306 A 
ATOM      3  C   UNL d   1      46.617 -18.538  42.871  0.00  0.00     0.013 A 
ATOM      4  O   UNL d   1      46.634 -20.170  42.685  0.00  0.00    -0.273 OA
ATOM      5  C   UNL d   1      46.616 -19.031  43.541  0.00  0.00     0.023 A 
ATOM      6  C   UNL d   1      46.625 -19.853  43.447  0.00  0.00     0.103 A 
ATOM      7  O   UNL d   1      46.645 -20.050  41.257  0.00  0.00    -0.259 OA
ATOM      8  C   UNL d   1      46.607 -18.699  44.271  0.00  0.00     0.002 A 
ATOM      9  C   UNL d   1      46.624 -20.330  44.085  0.00  0.00     0.025 A 
ATOM     10  C   UNL d   1      46.606 -19.168  44.947  0.00  0.00     0.000 A 
ATOM     11  C   UNL d   1      46.615 -20.014  44.850  0.00  0.00     0.002 A 
ENDROOT
BRANCH   1  12
ATOM     12  C   UNL d   1      46.628 -18.378  41.472  0.00  0.00     0.216 C 
ATOM     13  O   UNL d   1      46.646 -17.554  41.521  0.00  0.00    -0.644 OA
ATOM     14  O   UNL d   1      46.612 -18.568  40.684  0.00  0.00    -0.644 OA
ENDBRANCH   1  12
TORSDOF 1
ENDMDL
MODEL 2
REMARK VINA RESULT:       2.2      7.419      7.710
REMARK  1 active torsions:
REMARK  status: ('A' for Active; 'I' for Inactive)
REMARK    1  A    between atoms: C_5  and  C_1 
ROOT
ATOM      1  C   UNL d   1      43.779 -15.509  36.837  0.00  0.00     0.128 A 
ATOM      2  C   UNL d   1      44.219 -16.182  36.554  0.00  0.00     0.306 A 
ATOM      3  C   UNL d   1      44.187 -14.835  37.042  0.00  0.00     0.013 A 
ATOM      4  O   UNL d   1      45.036 -16.131  36.499  0.00  0.00    -0.273 OA
ATOM      5  C   UNL d   1      45.015 -14.791  36.983  0.00  0.00     0.023 A 
ATOM      6  C   UNL d   1      45.443 -15.445  36.709  0.00  0.00     0.103 A 
ATOM      7  O   UNL d   1      43.839 -16.900  36.330  0.00  0.00    -0.259 OA
ATOM      8  C   UNL d   1      45.388 -14.112  37.194  0.00  0.00     0.002 A 
ATOM      9  C   UNL d   1      46.236 -15.409  36.650  0.00  0.00     0.025 A 
ATOM     10  C   UNL d   1      46.206 -14.048  37.143  0.00  0.00     0.000 A 
ATOM     11  C   UNL d   1      46.647 -14.720  36.861  0.00  0.00     0.002 A 
ENDROOT
BRANCH   1  12
ATOM     12  C   UNL d   1      42.987 -15.557  36.891  0.00  0.00     0.216 C 
ATOM     13  O   UNL d   1      42.582 -15.411  37.595  0.00  0.00    -0.644 OA
ATOM     14  O   UNL d   1      42.431 -15.743  36.331  0.00  0.00    -0.644 OA
ENDBRANCH   1  12
TORSDOF 1
ENDMDL
