MODEL 1
REMARK VINA RESULT:      61.2      0.000      0.000
REMARK  4 active torsions:
REMARK  status: ('A' for Active; 'I' for Inactive)
REMARK    1  A    between atoms: C_12  and  C_2 
REMARK       I    between atoms: C_3  and  N_8 
REMARK    2  A    between atoms: C_5  and  C_3 
REMARK    3  A    between atoms: C_9  and  C_4 
REMARK    4  A    between atoms: N_8  and  C_13 
ROOT
ATOM      1  C   UNL d   1      13.451  13.553  -4.055  0.00  0.00     0.018 A 
ATOM      2  C   UNL d   1      13.347  14.736  -5.197  0.00  0.00     0.085 A 
ATOM      3  C   UNL d   1      13.891  13.497  -4.749  0.00  0.00     0.003 A 
ATOM      4  C   UNL d   1      12.951  14.205  -3.924  0.00  0.00     0.003 A 
ATOM      5  C   UNL d   1      12.903  14.800  -4.505  0.00  0.00     0.019 A 
ATOM      6  C   UNL d   1      13.840  14.084  -5.318  0.00  0.00     0.019 A 
ENDROOT
BRANCH   1   7
ATOM      7  C   UNL d   1      13.503  12.955  -3.476  0.00  0.00     0.088 A 
ATOM      8  N   UNL d   1      13.844  13.025  -2.735  0.00  0.00    -0.239 NA
ATOM      9  C   UNL d   1      13.774  12.305  -2.348  0.00  0.00     0.111 A 
ATOM     10  S   UNL d   1      13.385  11.781  -2.856  0.00  0.00    -0.066 SA
ATOM     11  C   UNL d   1      13.219  12.185  -3.549  0.00  0.00     0.056 A 
BRANCH   9  12
ATOM     12  C   UNL d   1      14.044  12.130  -1.584  0.00  0.00     0.024 A 
ATOM     13  C   UNL d   1      14.854  12.114  -1.428  0.00  0.00     0.002 A 
ATOM     14  C   UNL d   1      15.121  11.937  -0.656  0.00  0.00     0.000 A 
ATOM     15  C   UNL d   1      14.576  11.779  -0.057  0.00  0.00     0.000 A 
ATOM     16  C   UNL d   1      13.757  11.795  -0.217  0.00  0.00     0.000 A 
ATOM     17  C   UNL d   1      13.495  11.970  -0.977  0.00  0.00     0.002 A 
ENDBRANCH   9  12
ENDBRANCH   1   7
BRANCH   2  18
ATOM     18  N   UNL d   1      13.296  15.331  -5.775  0.00  0.00    -0.208 NA
ATOM     19  C   UNL d   1      13.728  16.028  -5.689  0.00  0.00     0.280 C 
ATOM     20  O   UNL d   1      13.679  16.623  -6.266  0.00  0.00    -0.265 OA
BRANCH  19  21
ATOM     21  C   UNL d   1      14.219  16.141  -5.023  0.00  0.00     0.069 A 
ATOM     22  C   UNL d   1      15.025  16.226  -5.131  0.00  0.00     0.062 A 
ATOM     23 CL   UNL d   1      15.355  16.202  -5.886  0.00  0.00    -0.082 Cl
ATOM     24  C   UNL d   1      15.509  16.338  -4.475  0.00  0.00     0.012 A 
ATOM     25  C   UNL d   1      15.186  16.363  -3.722  0.00  0.00     0.001 A 
ATOM     26  C   UNL d   1      14.377  16.277  -3.622  0.00  0.00     0.000 A 
ATOM     27  C   UNL d   1      13.887  16.165  -4.275  0.00  0.00     0.006 A 
ENDBRANCH  19  21
ENDBRANCH   2  18
TORSDOF 4
ENDMDL
MODEL 2
REMARK VINA RESULT:      61.7      2.479      4.938
REMARK  4 active torsions:
REMARK  status: ('A' for Active; 'I' for Inactive)
REMARK    1  A    between atoms: C_12  and  C_2 
REMARK       I    between atoms: C_3  and  N_8 
REMARK    2  A    between atoms: C_5  and  C_3 
REMARK    3  A    between atoms: C_9  and  C_4 
REMARK    4  A    between atoms: N_8  and  C_13 
ROOT
ATOM      1  C   UNL d   1      13.841  13.185  -3.226  0.00  0.00     0.018 A 
ATOM      2  C   UNL d   1      14.448  12.297  -1.976  0.00  0.00     0.085 A 
ATOM      3  C   UNL d   1      14.615  13.307  -2.968  0.00  0.00     0.003 A 
ATOM      4  C   UNL d   1      13.361  12.614  -2.858  0.00  0.00     0.003 A 
ATOM      5  C   UNL d   1      13.673  12.168  -2.228  0.00  0.00     0.019 A 
ATOM      6  C   UNL d   1      14.918  12.867  -2.349  0.00  0.00     0.019 A 
ENDROOT
BRANCH   1   7
ATOM      7  C   UNL d   1      13.534  13.633  -3.857  0.00  0.00     0.088 A 
ATOM      8  N   UNL d   1      13.822  14.350  -4.129  0.00  0.00    -0.239 NA
ATOM      9  C   UNL d   1      13.355  14.596  -4.757  0.00  0.00     0.111 A 
ATOM     10  S   UNL d   1      12.769  14.025  -4.877  0.00  0.00    -0.066 SA
ATOM     11  C   UNL d   1      12.883  13.434  -4.321  0.00  0.00     0.056 A 
BRANCH   9  12
ATOM     12  C   UNL d   1      13.451  15.292  -5.196  0.00  0.00     0.024 A 
ATOM     13  C   UNL d   1      12.844  15.851  -5.220  0.00  0.00     0.002 A 
ATOM     14  C   UNL d   1      12.945  16.551  -5.664  0.00  0.00     0.000 A 
ATOM     15  C   UNL d   1      13.648  16.680  -6.076  0.00  0.00     0.000 A 
ATOM     16  C   UNL d   1      14.261  16.115  -6.051  0.00  0.00     0.000 A 
ATOM     17  C   UNL d   1      14.161  15.425  -5.613  0.00  0.00     0.002 A 
ENDBRANCH   9  12
ENDBRANCH   1   7
BRANCH   2  18
ATOM     18  N   UNL d   1      14.757  11.851  -1.348  0.00  0.00    -0.208 NA
ATOM     19  C   UNL d   1      14.977  12.224  -0.646  0.00  0.00     0.280 C 
ATOM     20  O   UNL d   1      15.285  11.780  -0.016  0.00  0.00    -0.265 OA
BRANCH  19  21
ATOM     21  C   UNL d   1      14.892  13.051  -0.562  0.00  0.00     0.069 A 
ATOM     22  C   UNL d   1      14.197  13.350  -0.251  0.00  0.00     0.062 A 
ATOM     23 CL   UNL d   1      13.586  12.848  -0.020  0.00  0.00    -0.082 Cl
ATOM     24  C   UNL d   1      14.112  14.164  -0.168  0.00  0.00     0.012 A 
ATOM     25  C   UNL d   1      14.717  14.669  -0.396  0.00  0.00     0.001 A 
ATOM     26  C   UNL d   1      15.409  14.361  -0.707  0.00  0.00     0.000 A 
ATOM     27  C   UNL d   1      15.501  13.546  -0.792  0.00  0.00     0.006 A 
ENDBRANCH  19  21
ENDBRANCH   2  18
TORSDOF 4
ENDMDL
