MODEL 1
REMARK VINA RESULT:       4.0      0.000      0.000
REMARK  9 active torsions:
REMARK  status: ('A' for Active; 'I' for Inactive)
REMARK    1  A    between atoms: C_6  and  C_1 
REMARK    2  A    between atoms: C_2  and  O_5 
REMARK    3  A    between atoms: C_4  and  C_2 
REMARK    4  A    between atoms: O_5  and  C_3 
REMARK    5  A    between atoms: C_7  and  C_6 
REMARK    6  A    between atoms: C_10  and  C_7 
REMARK    7  A    between atoms: O_25  and  C_8 
REMARK    8  A    between atoms: C_20  and  C_10 
REMARK    9  A    between atoms: O_27  and  C_14 
ROOT
ATOM      1  C   UNL d   1      55.664  -0.239  33.495  0.00  0.00     0.062 A 
ATOM      2  C   UNL d   1      55.793   0.305  34.114  0.00  0.00     0.106 A 
ATOM      3  C   UNL d   1      54.893  -0.399  33.250  0.00  0.00     0.012 A 
ATOM      4  C   UNL d   1      55.151   0.673  34.471  0.00  0.00     0.025 A 
ATOM      5  C   UNL d   1      54.257  -0.026  33.611  0.00  0.00     0.035 A 
ATOM      6  C   UNL d   1      54.385   0.513  34.225  0.00  0.00     0.009 A 
ATOM      7 BR   UNL d   1      53.485  -0.189  33.364  0.00  0.00    -0.049 Br
ENDROOT
BRANCH   1   8
ATOM      8  C   UNL d   1      56.305  -0.612  33.133  0.00  0.00     0.198 C 
ATOM      9  O   UNL d   1      56.674  -1.250  33.508  0.00  0.00    -0.286 OA
BRANCH   8  10
ATOM     10  C   UNL d   1      56.575  -0.351  32.401  0.00  0.00     0.042 C 
BRANCH  10  11
ATOM     11  C   UNL d   1      56.735  -0.893  31.800  0.00  0.00     0.003 C 
BRANCH  11  12
ATOM     12  C   UNL d   1      57.190  -0.666  31.142  0.00  0.00     0.002 A 
ATOM     13  C   UNL d   1      57.567  -1.271  30.702  0.00  0.00     0.026 A 
ATOM     14  C   UNL d   1      58.024  -1.020  30.038  0.00  0.00     0.116 A 
ATOM     15  C   UNL d   1      58.091  -0.221  29.836  0.00  0.00     0.116 A 
ATOM     16  C   UNL d   1      57.699   0.357  30.300  0.00  0.00     0.026 A 
ATOM     17  C   UNL d   1      57.249   0.127  30.952  0.00  0.00     0.002 A 
BRANCH  14  18
ATOM     18  O   UNL d   1      58.410  -1.578  29.580  0.00  0.00    -0.326 OA
ATOM     19  C   UNL d   1      58.873  -2.163  29.935  0.00  0.00     0.181 C 
ENDBRANCH  14  18
BRANCH  15  20
ATOM     20  O   UNL d   1      58.540   0.008  29.184  0.00  0.00    -0.326 OA
ATOM     21  C   UNL d   1      59.018   0.682  29.227  0.00  0.00     0.181 C 
ENDBRANCH  15  20
ENDBRANCH  11  12
ENDBRANCH  10  11
ENDBRANCH   8  10
ENDBRANCH   1   8
BRANCH   2  22
ATOM     22  O   UNL d   1      56.560   0.465  34.360  0.00  0.00    -0.271 OA
BRANCH  22  23
ATOM     23  C   UNL d   1      56.725   0.529  35.168  0.00  0.00     0.323 C 
ATOM     24  O   UNL d   1      56.110   0.541  35.724  0.00  0.00    -0.257 OA
BRANCH  23  25
ATOM     25  C   UNL d   1      57.506   0.581  35.427  0.00  0.00     0.163 A 
ATOM     26  O   UNL d   1      57.751   0.639  36.212  0.00  0.00    -0.300 OA
ATOM     27  C   UNL d   1      58.586   0.679  36.217  0.00  0.00     0.123 A 
ATOM     28  C   UNL d   1      58.847   0.644  35.435  0.00  0.00     0.029 A 
ATOM     29  C   UNL d   1      58.181   0.584  34.947  0.00  0.00     0.032 A 
ENDBRANCH  23  25
ENDBRANCH  22  23
ENDBRANCH   2  22
TORSDOF 9
ENDMDL
MODEL 2
REMARK VINA RESULT:       5.1      1.505      2.154
REMARK  9 active torsions:
REMARK  status: ('A' for Active; 'I' for Inactive)
REMARK    1  A    between atoms: C_6  and  C_1 
REMARK    2  A    between atoms: C_2  and  O_5 
REMARK    3  A    between atoms: C_4  and  C_2 
REMARK    4  A    between atoms: O_5  and  C_3 
REMARK    5  A    between atoms: C_7  and  C_6 
REMARK    6  A    between atoms: C_10  and  C_7 
REMARK    7  A    between atoms: O_25  and  C_8 
REMARK    8  A    between atoms: C_20  and  C_10 
REMARK    9  A    between atoms: O_27  and  C_14 
ROOT
ATOM      1  C   UNL d   1      55.942  -0.619  32.588  0.00  0.00     0.062 A 
ATOM      2  C   UNL d   1      55.670  -0.442  33.358  0.00  0.00     0.106 A 
ATOM      3  C   UNL d   1      56.022  -1.407  32.358  0.00  0.00     0.012 A 
ATOM      4  C   UNL d   1      55.488  -1.054  33.873  0.00  0.00     0.025 A 
ATOM      5  C   UNL d   1      55.837  -2.013  32.880  0.00  0.00     0.035 A 
ATOM      6  C   UNL d   1      55.568  -1.838  33.643  0.00  0.00     0.009 A 
ATOM      7 BR   UNL d   1      55.918  -2.801  32.647  0.00  0.00    -0.049 Br
ENDROOT
BRANCH   1   8
ATOM      8  C   UNL d   1      56.127  -0.009  32.065  0.00  0.00     0.198 C 
ATOM      9  O   UNL d   1      55.536   0.316  31.587  0.00  0.00    -0.286 OA
BRANCH   8  10
ATOM     10  C   UNL d   1      56.898   0.276  32.018  0.00  0.00     0.042 C 
BRANCH  10  11
ATOM     11  C   UNL d   1      57.160   0.652  31.333  0.00  0.00     0.003 C 
BRANCH  11  12
ATOM     12  C   UNL d   1      57.936   0.530  31.059  0.00  0.00     0.002 A 
ATOM     13  C   UNL d   1      58.033   0.258  30.273  0.00  0.00     0.026 A 
ATOM     14  C   UNL d   1      58.828   0.141  30.014  0.00  0.00     0.116 A 
ATOM     15  C   UNL d   1      59.472   0.287  30.513  0.00  0.00     0.116 A 
ATOM     16  C   UNL d   1      59.336   0.558  31.295  0.00  0.00     0.026 A 
ATOM     17  C   UNL d   1      58.564   0.678  31.562  0.00  0.00     0.002 A 
BRANCH  14  18
ATOM     18  O   UNL d   1      58.969  -0.124  29.253  0.00  0.00    -0.326 OA
ATOM     19  C   UNL d   1      58.487   0.121  28.628  0.00  0.00     0.181 C 
ENDBRANCH  14  18
BRANCH  15  20
ATOM     20  O   UNL d   1      60.242   0.167  30.246  0.00  0.00    -0.326 OA
ATOM     21  C   UNL d   1      60.872   0.176  30.781  0.00  0.00     0.181 C 
ENDBRANCH  15  20
ENDBRANCH  11  12
ENDBRANCH  10  11
ENDBRANCH   8  10
ENDBRANCH   1   8
BRANCH   2  22
ATOM     22  O   UNL d   1      55.590   0.341  33.588  0.00  0.00    -0.271 OA
BRANCH  22  23
ATOM     23  C   UNL d   1      55.064   0.536  34.196  0.00  0.00     0.323 C 
ATOM     24  O   UNL d   1      54.264   0.681  34.031  0.00  0.00    -0.257 OA
BRANCH  23  25
ATOM     25  C   UNL d   1      55.332   0.588  34.974  0.00  0.00     0.163 A 
ATOM     26  O   UNL d   1      56.120   0.638  35.209  0.00  0.00    -0.300 OA
ATOM     27  C   UNL d   1      56.135   0.680  36.044  0.00  0.00     0.123 A 
ATOM     28  C   UNL d   1      55.356   0.654  36.315  0.00  0.00     0.029 A 
ATOM     29  C   UNL d   1      54.860   0.597  35.654  0.00  0.00     0.032 A 
ENDBRANCH  23  25
ENDBRANCH  22  23
ENDBRANCH   2  22
TORSDOF 9
ENDMDL
