MODEL 1
REMARK VINA RESULT:      -9.4      0.000      0.000
REMARK  5 active torsions:
REMARK  status: ('A' for Active; 'I' for Inactive)
REMARK    1  A    between atoms: C_4  and  C_1 
REMARK    2  A    between atoms: C_9  and  C_4 
REMARK    3  A    between atoms: N_5  and  C_9 
REMARK    4  A    between atoms: C_19  and  N_6 
REMARK    5  A    between atoms: C_18  and  C_19 
ROOT
ATOM      1  N   UNL d   1      50.610  34.198  52.970  0.00  0.00    -0.297 N 
ATOM      2  N   UNL d   1      52.072  33.420  52.891  0.00  0.00    -0.300 N 
ATOM      3  C   UNL d   1      51.273  34.585  52.682  0.00  0.00     0.100 A 
ATOM      4  C   UNL d   1      50.673  33.407  53.224  0.00  0.00     0.100 A 
ATOM      5  C   UNL d   1      51.409  33.026  53.181  0.00  0.00     0.100 A 
ATOM      6  C   UNL d   1      52.009  34.203  52.639  0.00  0.00     0.100 A 
ENDROOT
BRANCH   1   7
ATOM      7  C   UNL d   1      49.883  34.580  53.010  0.00  0.00     0.123 C 
BRANCH   7   8
ATOM      8  C   UNL d   1      49.447  34.723  52.326  0.00  0.00     0.216 C 
ATOM      9  O   UNL d   1      49.697  34.411  51.604  0.00  0.00    -0.285 OA
BRANCH   8  10
ATOM     10  C   UNL d   1      48.755  35.181  52.360  0.00  0.00     0.080 A 
ATOM     11  C   UNL d   1      48.197  35.124  51.773  0.00  0.00     0.202 A 
ATOM     12  C   UNL d   1      47.513  35.575  51.804  0.00  0.00     0.078 A 
ATOM     13  O   UNL d   1      48.320  34.608  51.142  0.00  0.00    -0.286 OA
ATOM     14  C   UNL d   1      46.949  35.513  51.205  0.00  0.00     0.007 C 
ATOM     15  C   UNL d   1      47.385  36.098  52.440  0.00  0.00     0.199 A 
ATOM     16  C   UNL d   1      47.957  36.155  53.039  0.00  0.00     0.042 A 
ATOM     17  O   UNL d   1      46.702  36.549  52.471  0.00  0.00    -0.286 OA
ATOM     18  C   UNL d   1      48.642  35.699  53.002  0.00  0.00     0.010 A 
ENDBRANCH   8  10
ENDBRANCH   7   8
ENDBRANCH   1   7
BRANCH   2  19
ATOM     19  C   UNL d   1      52.804  33.035  52.850  0.00  0.00     0.080 C 
BRANCH  19  20
ATOM     20  C   UNL d   1      53.280  32.986  53.522  0.00  0.00     0.020 A 
ATOM     21  C   UNL d   1      53.704  33.647  53.777  0.00  0.00     0.028 A 
ATOM     22  C   UNL d   1      54.175  33.595  54.446  0.00  0.00     0.119 A 
ATOM     23  O   UNL d   1      54.651  34.152  54.823  0.00  0.00    -0.300 OA
ATOM     24  C   UNL d   1      54.225  32.885  54.861  0.00  0.00     0.119 A 
ATOM     25  C   UNL d   1      55.002  33.795  55.475  0.00  0.00     0.304 A 
ATOM     26  O   UNL d   1      54.737  33.009  55.498  0.00  0.00    -0.300 OA
ATOM     27  C   UNL d   1      53.803  32.224  54.609  0.00  0.00     0.026 A 
ATOM     28  C   UNL d   1      53.328  32.281  53.932  0.00  0.00     0.004 A 
ENDBRANCH  19  20
ENDBRANCH   2  19
TORSDOF 5
ENDMDL
MODEL 2
REMARK VINA RESULT:      -8.6      1.386      1.914
REMARK  5 active torsions:
REMARK  status: ('A' for Active; 'I' for Inactive)
REMARK    1  A    between atoms: C_4  and  C_1 
REMARK    2  A    between atoms: C_9  and  C_4 
REMARK    3  A    between atoms: N_5  and  C_9 
REMARK    4  A    between atoms: C_19  and  N_6 
REMARK    5  A    between atoms: C_18  and  C_19 
ROOT
ATOM      1  N   UNL d   1      50.432  34.189  52.712  0.00  0.00    -0.297 N 
ATOM      2  N   UNL d   1      52.014  33.790  53.010  0.00  0.00    -0.300 N 
ATOM      3  C   UNL d   1      51.001  34.273  52.127  0.00  0.00     0.100 A 
ATOM      4  C   UNL d   1      50.653  33.901  53.462  0.00  0.00     0.100 A 
ATOM      5  C   UNL d   1      51.447  33.703  53.601  0.00  0.00     0.100 A 
ATOM      6  C   UNL d   1      51.795  34.076  52.267  0.00  0.00     0.100 A 
ENDROOT
BRANCH   1   7
ATOM      7  C   UNL d   1      49.647  34.386  52.569  0.00  0.00     0.123 C 
BRANCH   7   8
ATOM      8  C   UNL d   1      49.353  35.122  52.795  0.00  0.00     0.216 C 
ATOM      9  O   UNL d   1      49.785  35.599  53.311  0.00  0.00    -0.285 OA
BRANCH   8  10
ATOM     10  C   UNL d   1      48.621  35.386  52.504  0.00  0.00     0.080 A 
ATOM     11  C   UNL d   1      48.172  35.907  52.936  0.00  0.00     0.202 A 
ATOM     12  C   UNL d   1      47.450  36.169  52.651  0.00  0.00     0.078 A 
ATOM     13  O   UNL d   1      48.447  36.173  53.667  0.00  0.00    -0.286 OA
ATOM     14  C   UNL d   1      46.998  36.699  53.095  0.00  0.00     0.007 C 
ATOM     15  C   UNL d   1      47.168  35.903  51.914  0.00  0.00     0.199 A 
ATOM     16  C   UNL d   1      47.629  35.370  51.474  0.00  0.00     0.042 A 
ATOM     17  O   UNL d   1      46.447  36.165  51.630  0.00  0.00    -0.286 OA
ATOM     18  C   UNL d   1      48.354  35.110  51.765  0.00  0.00     0.010 A 
ENDBRANCH   8  10
ENDBRANCH   7   8
ENDBRANCH   1   7
BRANCH   2  19
ATOM     19  C   UNL d   1      52.805  33.592  53.154  0.00  0.00     0.080 C 
BRANCH  19  20
ATOM     20  C   UNL d   1      53.007  32.811  53.327  0.00  0.00     0.020 A 
ATOM     21  C   UNL d   1      52.771  32.201  52.822  0.00  0.00     0.028 A 
ATOM     22  C   UNL d   1      52.973  31.426  52.997  0.00  0.00     0.119 A 
ATOM     23  O   UNL d   1      52.818  30.720  52.603  0.00  0.00    -0.300 OA
ATOM     24  C   UNL d   1      53.410  31.257  53.674  0.00  0.00     0.119 A 
ATOM     25  C   UNL d   1      53.156  30.104  53.031  0.00  0.00     0.304 A 
ATOM     26  O   UNL d   1      53.523  30.439  53.695  0.00  0.00    -0.300 OA
ATOM     27  C   UNL d   1      53.647  31.863  54.180  0.00  0.00     0.026 A 
ATOM     28  C   UNL d   1      53.440  32.645  53.999  0.00  0.00     0.004 A 
ENDBRANCH  19  20
ENDBRANCH   2  19
TORSDOF 5
ENDMDL
MODEL 3
REMARK VINA RESULT:      -8.0      1.397      6.337
REMARK  5 active torsions:
REMARK  status: ('A' for Active; 'I' for Inactive)
REMARK    1  A    between atoms: C_4  and  C_1 
REMARK    2  A    between atoms: C_9  and  C_4 
REMARK    3  A    between atoms: N_5  and  C_9 
REMARK    4  A    between atoms: C_19  and  N_6 
REMARK    5  A    between atoms: C_18  and  C_19 
ROOT
ATOM      1  N   UNL d   1      49.660  34.597  52.601  0.00  0.00    -0.297 N 
ATOM      2  N   UNL d   1      48.408  35.588  52.155  0.00  0.00    -0.300 N 
ATOM      3  C   UNL d   1      49.309  34.519  51.865  0.00  0.00     0.100 A 
ATOM      4  C   UNL d   1      49.385  35.181  53.129  0.00  0.00     0.100 A 
ATOM      5  C   UNL d   1      48.758  35.672  52.896  0.00  0.00     0.100 A 
ATOM      6  C   UNL d   1      48.681  35.011  51.633  0.00  0.00     0.100 A 
ENDROOT
BRANCH   1   7
ATOM      7  C   UNL d   1      50.282  34.108  52.827  0.00  0.00     0.123 C 
BRANCH   7   8
ATOM      8  C   UNL d   1      51.021  34.180  52.470  0.00  0.00     0.216 C 
ATOM      9  O   UNL d   1      51.077  34.402  51.677  0.00  0.00    -0.285 OA
BRANCH   8  10
ATOM     10  C   UNL d   1      51.712  34.031  52.907  0.00  0.00     0.080 A 
ATOM     11  C   UNL d   1      52.080  33.309  52.855  0.00  0.00     0.202 A 
ATOM     12  C   UNL d   1      52.761  33.159  53.285  0.00  0.00     0.078 A 
ATOM     13  O   UNL d   1      51.765  32.724  52.366  0.00  0.00    -0.286 OA
ATOM     14  C   UNL d   1      53.132  32.423  53.229  0.00  0.00     0.007 C 
ATOM     15  C   UNL d   1      53.083  33.746  53.780  0.00  0.00     0.199 A 
ATOM     16  C   UNL d   1      52.705  34.484  53.831  0.00  0.00     0.042 A 
ATOM     17  O   UNL d   1      53.764  33.596  54.209  0.00  0.00    -0.286 OA
ATOM     18  C   UNL d   1      52.020  34.629  53.397  0.00  0.00     0.010 A 
ENDBRANCH   8  10
ENDBRANCH   7   8
ENDBRANCH   1   7
BRANCH   2  19
ATOM     19  C   UNL d   1      47.782  36.081  51.928  0.00  0.00     0.080 C 
BRANCH  19  20
ATOM     20  C   UNL d   1      47.017  35.918  52.189  0.00  0.00     0.020 A 
ATOM     21  C   UNL d   1      46.488  35.518  51.696  0.00  0.00     0.028 A 
ATOM     22  C   UNL d   1      45.728  35.358  51.959  0.00  0.00     0.119 A 
ATOM     23  O   UNL d   1      45.095  34.975  51.597  0.00  0.00    -0.300 OA
ATOM     24  C   UNL d   1      45.494  35.595  52.712  0.00  0.00     0.119 A 
ATOM     25  C   UNL d   1      44.460  34.971  52.120  0.00  0.00     0.304 A 
ATOM     26  O   UNL d   1      44.709  35.356  52.812  0.00  0.00    -0.300 OA
ATOM     27  C   UNL d   1      46.019  35.995  53.206  0.00  0.00     0.026 A 
ATOM     28  C   UNL d   1      46.786  36.155  52.936  0.00  0.00     0.004 A 
ENDBRANCH  19  20
ENDBRANCH   2  19
TORSDOF 5
ENDMDL
