MODEL 1
REMARK VINA RESULT:      45.1      0.000      0.000
REMARK  5 active torsions:
REMARK  status: ('A' for Active; 'I' for Inactive)
REMARK       I    between atoms: C_3  and  N_1 
REMARK    1  A    between atoms: C_8  and  N_2 
REMARK    2  A    between atoms: C_11  and  C_3 
REMARK    3  A    between atoms: S_10  and  C_11 
REMARK    4  A    between atoms: C_13  and  S_10 
REMARK    5  A    between atoms: C_12  and  C_13 
ROOT
ATOM      1  N   UNL d   1     -51.156  26.823  33.433  0.00  0.00    -0.269 N 
ATOM      2  N   UNL d   1     -51.925  25.368  33.387  0.00  0.00    -0.301 N 
ATOM      3  C   UNL d   1     -50.762  27.558  33.457  0.00  0.00     0.259 C 
ATOM      4  C   UNL d   1     -50.723  26.130  33.515  0.00  0.00     0.102 A 
ATOM      5  C   UNL d   1     -51.973  26.791  33.329  0.00  0.00     0.102 A 
ATOM      6  C   UNL d   1     -52.357  26.066  33.306  0.00  0.00     0.100 A 
ATOM      7  C   UNL d   1     -51.107  25.400  33.492  0.00  0.00     0.100 A 
ATOM      8  O   UNL d   1     -51.182  28.265  33.377  0.00  0.00    -0.267 OA
ENDROOT
BRANCH   3   9
ATOM      9  C   UNL d   1     -49.931  27.586  33.563  0.00  0.00     0.125 C 
BRANCH   9  10
ATOM     10  S   UNL d   1     -49.615  28.104  34.103  0.00  0.00    -0.094 SA
BRANCH  10  11
ATOM     11  C   UNL d   1     -48.876  27.950  34.434  0.00  0.00     0.035 C 
BRANCH  11  12
ATOM     12  C   UNL d   1     -48.466  28.545  34.823  0.00  0.00     0.006 A 
ATOM     13  C   UNL d   1     -48.379  29.285  34.467  0.00  0.00     0.001 A 
ATOM     14  C   UNL d   1     -47.967  29.884  34.857  0.00  0.00     0.000 A 
ATOM     15  C   UNL d   1     -47.643  29.745  35.602  0.00  0.00     0.000 A 
ATOM     16  C   UNL d   1     -47.730  29.006  35.958  0.00  0.00     0.000 A 
ATOM     17  C   UNL d   1     -48.142  28.406  35.568  0.00  0.00     0.001 A 
ENDBRANCH  11  12
ENDBRANCH  10  11
ENDBRANCH   9  10
ENDBRANCH   3   9
BRANCH   2  18
ATOM     18  C   UNL d   1     -52.309  24.648  33.364  0.00  0.00     0.064 A 
ATOM     19  C   UNL d   1     -53.132  24.615  33.374  0.00  0.00     0.018 A 
ATOM     20  C   UNL d   1     -53.517  23.885  33.351  0.00  0.00     0.002 A 
ATOM     21  C   UNL d   1     -53.077  23.188  33.317  0.00  0.00     0.000 A 
ATOM     22  C   UNL d   1     -52.253  23.221  33.307  0.00  0.00     0.002 A 
ATOM     23  C   UNL d   1     -51.869  23.950  33.330  0.00  0.00     0.018 A 
ENDBRANCH   2  18
TORSDOF 5
ENDMDL
