MODEL 1
REMARK VINA RESULT:      -0.3      0.000      0.000
REMARK  8 active torsions:
REMARK  status: ('A' for Active; 'I' for Inactive)
REMARK    1  A    between atoms: N_4  and  S_1 
REMARK    2  A    between atoms: C_10  and  S_1 
REMARK    3  A    between atoms: C_7  and  N_2 
REMARK    4  A    between atoms: N_3  and  C_6 
REMARK    5  A    between atoms: C_5  and  N_4 
REMARK    6  A    between atoms: C_6  and  C_5 
REMARK    7  A    between atoms: C_11  and  C_6 
REMARK    8  A    between atoms: O_19  and  C_17 
ROOT
ATOM      1  C   UNL d   1      31.956  17.727 -24.068  0.00  0.00     0.086 C 
ENDROOT
BRANCH   1   2
ATOM      2  N   UNL d   1      32.173  18.416 -23.666  0.00  0.00    -0.300 N 
ATOM      3  C   UNL d   1      31.679  18.724 -23.075  0.00  0.00     0.100 A 
ATOM      4  C   UNL d   1      31.894  19.409 -22.674  0.00  0.00     0.100 A 
ATOM      5  N   UNL d   1      32.599  19.791 -22.859  0.00  0.00    -0.300 N 
ATOM      6  C   UNL d   1      33.090  19.489 -23.443  0.00  0.00     0.100 A 
ATOM      7  C   UNL d   1      32.878  18.799 -23.850  0.00  0.00     0.100 A 
BRANCH   5   8
ATOM      8  C   UNL d   1      32.812  20.475 -22.458  0.00  0.00     0.086 A 
ATOM      9  C   UNL d   1      32.986  21.159 -22.878  0.00  0.00     0.110 A 
ATOM     10  C   UNL d   1      33.200  21.847 -22.477  0.00  0.00     0.026 A 
ATOM     11  C   UNL d   1      33.240  21.848 -21.646  0.00  0.00     0.002 A 
ATOM     12  C   UNL d   1      33.065  21.160 -21.226  0.00  0.00     0.002 A 
ATOM     13  C   UNL d   1      32.851  20.476 -21.627  0.00  0.00     0.019 A 
BRANCH   9  14
ATOM     14  O   UNL d   1      32.947  21.159 -23.700  0.00  0.00    -0.327 OA
ATOM     15  C   UNL d   1      33.120  21.842 -24.121  0.00  0.00     0.181 C 
ENDBRANCH   9  14
ENDBRANCH   5   8
ENDBRANCH   1   2
BRANCH   1  16
ATOM     16  C   UNL d   1      31.309  17.735 -24.592  0.00  0.00     0.130 C 
BRANCH  16  17
ATOM     17  N   UNL d   1      30.572  17.466 -24.336  0.00  0.00    -0.155 NA
BRANCH  17  18
ATOM     18  S   UNL d   1      29.885  17.731 -24.714  0.00  0.00     0.285 S 
ATOM     19  O   UNL d   1      29.199  17.993 -25.091  0.00  0.00    -0.198 OA
ATOM     20  O   UNL d   1      30.284  18.422 -24.936  0.00  0.00    -0.198 OA
BRANCH  18  21
ATOM     21  C   UNL d   1      29.489  17.034 -24.488  0.00  0.00     0.105 A 
ATOM     22  C   UNL d   1      29.257  16.493 -25.063  0.00  0.00     0.013 A 
ATOM     23  C   UNL d   1      28.867  15.804 -24.846  0.00  0.00     0.001 A 
ATOM     24  C   UNL d   1      28.701  15.647 -24.036  0.00  0.00     0.000 A 
ATOM     25  C   UNL d   1      28.938  16.199 -23.461  0.00  0.00     0.001 A 
ATOM     26  C   UNL d   1      29.331  16.890 -23.693  0.00  0.00     0.013 A 
ENDBRANCH  18  21
ENDBRANCH  17  18
ENDBRANCH  16  17
ENDBRANCH   1  16
BRANCH   1  27
ATOM     27  C   UNL d   1      32.379  17.030 -23.953  0.00  0.00     0.037 A 
ATOM     28  C   UNL d   1      32.721  16.645 -24.593  0.00  0.00     0.100 A 
ATOM     29  N   UNL d   1      33.148  15.941 -24.476  0.00  0.00    -0.242 NA
ATOM     30  C   UNL d   1      33.228  15.630 -23.721  0.00  0.00     0.099 A 
ATOM     31  C   UNL d   1      32.887  16.014 -23.081  0.00  0.00     0.021 A 
ATOM     32  C   UNL d   1      32.460  16.718 -23.197  0.00  0.00     0.005 A 
ENDBRANCH   1  27
TORSDOF 8
ENDMDL
