MODEL 1
REMARK VINA RESULT:     117.5      0.000      0.000
REMARK  5 active torsions:
REMARK  status: ('A' for Active; 'I' for Inactive)
REMARK    1  A    between atoms: C_16  and  N_3 
REMARK    2  A    between atoms: C_11  and  C_6 
REMARK       I    between atoms: N_20  and  C_11 
REMARK    3  A    between atoms: C_21  and  N_20 
REMARK    4  A    between atoms: C_23  and  C_21 
REMARK    5  A    between atoms: C_22  and  C_23 
ROOT
ATOM      1  C   UNL d   1      59.018  49.340  50.413  0.00  0.00     0.155 A 
ATOM      2  C   UNL d   1      59.329  49.213  51.168  0.00  0.00     0.091 A 
ATOM      3  N   UNL d   1      58.205  49.375  50.302  0.00  0.00    -0.275 N 
ATOM      4  N   UNL d   1      59.527  49.431  49.773  0.00  0.00    -0.210 NA
ATOM      5  C   UNL d   1      57.679  49.284  50.945  0.00  0.00     0.175 A 
ATOM      6  C   UNL d   1      57.991  49.157  51.705  0.00  0.00     0.094 A 
ATOM      7  C   UNL d   1      60.145  49.178  51.286  0.00  0.00     0.269 A 
ATOM      8  N   UNL d   1      60.653  49.269  50.642  0.00  0.00    -0.258 N 
ATOM      9  C   UNL d   1      60.349  49.396  49.879  0.00  0.00     0.152 A 
ATOM     10  C   UNL d   1      58.817  49.120  51.823  0.00  0.00     0.016 A 
ATOM     11  N   UNL d   1      56.864  49.319  50.832  0.00  0.00    -0.128 N 
ATOM     12  C   UNL d   1      61.475  49.234  50.753  0.00  0.00     0.084 A 
ATOM     13  O   UNL d   1      60.456  49.051  52.042  0.00  0.00    -0.266 OA
ATOM     14  C   UNL d   1      60.855  49.486  49.245  0.00  0.00     0.038 A 
ATOM     15  C   UNL d   1      61.970  49.326  50.109  0.00  0.00     0.019 A 
ATOM     16  C   UNL d   1      61.657  49.453  49.350  0.00  0.00     0.005 A 
ENDROOT
BRANCH   6  17
ATOM     17  C   UNL d   1      57.484  49.065  52.349  0.00  0.00     0.282 C 
ATOM     18  O   UNL d   1      57.303  49.706  52.833  0.00  0.00    -0.265 OA
ATOM     19  N   UNL d   1      57.153  48.319  52.512  0.00  0.00    -0.206 NA
BRANCH  19  20
ATOM     20  C   UNL d   1      56.646  48.226  53.156  0.00  0.00     0.102 C 
BRANCH  20  21
ATOM     21  C   UNL d   1      56.750  48.689  53.829  0.00  0.00     0.021 C 
BRANCH  21  22
ATOM     22  C   UNL d   1      56.516  48.407  54.567  0.00  0.00     0.002 A 
ATOM     23  C   UNL d   1      56.448  48.928  55.199  0.00  0.00     0.000 A 
ATOM     24  C   UNL d   1      56.216  48.654  55.939  0.00  0.00     0.000 A 
ATOM     25  C   UNL d   1      56.052  47.848  56.038  0.00  0.00     0.000 A 
ATOM     26  C   UNL d   1      56.124  47.330  55.395  0.00  0.00     0.000 A 
ATOM     27  C   UNL d   1      56.355  47.613  54.667  0.00  0.00     0.000 A 
ENDBRANCH  21  22
ENDBRANCH  20  21
ENDBRANCH  19  20
ENDBRANCH   6  17
BRANCH   3  28
ATOM     28  C   UNL d   1      57.893  49.502  49.543  0.00  0.00     0.067 C 
ATOM     29  C   UNL d   1      58.389  49.438  48.878  0.00  0.00     0.019 C 
ATOM     30  C   UNL d   1      57.096  49.690  49.447  0.00  0.00     0.019 C 
ENDBRANCH   3  28
TORSDOF 5
ENDMDL
