MODEL 1
REMARK VINA RESULT:      -3.9      0.000      0.000
REMARK  6 active torsions:
REMARK  status: ('A' for Active; 'I' for Inactive)
REMARK       I    between atoms: C_2  and  N_1 
REMARK    1  A    between atoms: O_20  and  C_2 
REMARK       I    between atoms: C_5  and  N_3 
REMARK    2  A    between atoms: C_15  and  C_5 
REMARK    3  A    between atoms: C_7  and  S_13 
REMARK    4  A    between atoms: C_18  and  C_8 
REMARK    5  A    between atoms: S_13  and  C_15 
REMARK    6  A    between atoms: C_26  and  O_20 
ROOT
ATOM      1  C   UNL d   1     -44.168  13.141  21.733  0.00  0.00     0.098 C 
ENDROOT
BRANCH   1   2
ATOM      2  S   UNL d   1     -44.768  12.724  22.108  0.00  0.00    -0.061 SA
BRANCH   2   3
ATOM      3  C   UNL d   1     -45.494  13.085  22.259  0.00  0.00     0.133 A 
ATOM      4  N   UNL d   1     -45.575  13.620  22.873  0.00  0.00    -0.141 NA
ATOM      5  N   UNL d   1     -46.301  13.980  23.024  0.00  0.00    -0.148 NA
ATOM      6  C   UNL d   1     -46.959  13.802  22.552  0.00  0.00     0.103 A 
ATOM      7  C   UNL d   1     -46.881  13.262  21.931  0.00  0.00     0.023 A 
ATOM      8  C   UNL d   1     -46.155  12.904  21.783  0.00  0.00     0.029 A 
BRANCH   6   9
ATOM      9  C   UNL d   1     -47.686  14.162  22.703  0.00  0.00     0.022 A 
ATOM     10  C   UNL d   1     -48.281  13.727  23.084  0.00  0.00     0.022 A 
ATOM     11  C   UNL d   1     -49.006  14.095  23.231  0.00  0.00     0.099 A 
ATOM     12  N   UNL d   1     -49.133  14.871  23.006  0.00  0.00    -0.242 NA
ATOM     13  C   UNL d   1     -48.527  15.296  22.624  0.00  0.00     0.099 A 
ATOM     14  C   UNL d   1     -47.808  14.934  22.476  0.00  0.00     0.022 A 
ENDBRANCH   6   9
ENDBRANCH   2   3
ENDBRANCH   1   2
BRANCH   1  15
ATOM     15  C   UNL d   1     -43.423  12.792  21.645  0.00  0.00     0.272 C 
ATOM     16  N   UNL d   1     -42.787  13.247  21.389  0.00  0.00    -0.269 N 
ATOM     17  C   UNL d   1     -42.050  12.903  21.302  0.00  0.00     0.102 A 
ATOM     18  C   UNL d   1     -42.899  14.051  21.221  0.00  0.00     0.102 A 
ATOM     19  C   UNL d   1     -41.409  13.355  21.046  0.00  0.00     0.104 A 
ATOM     20  N   UNL d   1     -41.518  14.158  20.877  0.00  0.00    -0.249 N 
ATOM     21  C   UNL d   1     -40.877  14.601  20.622  0.00  0.00     0.378 C 
ATOM     22  C   UNL d   1     -42.262  14.496  20.967  0.00  0.00     0.104 A 
ATOM     23  O   UNL d   1     -40.985  15.403  20.454  0.00  0.00    -0.237 OA
ATOM     24  O   UNL d   1     -43.314  12.002  21.811  0.00  0.00    -0.266 OA
BRANCH  21  25
ATOM     25  O   UNL d   1     -40.136  14.255  20.535  0.00  0.00    -0.257 OA
BRANCH  25  26
ATOM     26  C   UNL d   1     -39.499  14.700  20.284  0.00  0.00     0.128 C 
ATOM     27  C   UNL d   1     -38.762  14.360  20.209  0.00  0.00     0.029 C 
ENDBRANCH  25  26
ENDBRANCH  21  25
ENDBRANCH   1  15
TORSDOF 6
ENDMDL
MODEL 2
REMARK VINA RESULT:      -3.7      1.988      6.442
REMARK  6 active torsions:
REMARK  status: ('A' for Active; 'I' for Inactive)
REMARK       I    between atoms: C_2  and  N_1 
REMARK    1  A    between atoms: O_20  and  C_2 
REMARK       I    between atoms: C_5  and  N_3 
REMARK    2  A    between atoms: C_15  and  C_5 
REMARK    3  A    between atoms: C_7  and  S_13 
REMARK    4  A    between atoms: C_18  and  C_8 
REMARK    5  A    between atoms: S_13  and  C_15 
REMARK    6  A    between atoms: C_26  and  O_20 
ROOT
ATOM      1  C   UNL d   1     -45.092  13.217  22.208  0.00  0.00     0.098 C 
ENDROOT
BRANCH   1   2
ATOM      2  S   UNL d   1     -44.498  12.711  21.955  0.00  0.00    -0.061 SA
BRANCH   2   3
ATOM      3  C   UNL d   1     -43.776  13.013  21.693  0.00  0.00     0.133 A 
ATOM      4  N   UNL d   1     -43.634  13.820  21.701  0.00  0.00    -0.141 NA
ATOM      5  N   UNL d   1     -42.913  14.122  21.439  0.00  0.00    -0.148 NA
ATOM      6  C   UNL d   1     -42.322  13.608  21.164  0.00  0.00     0.103 A 
ATOM      7  C   UNL d   1     -42.463  12.793  21.155  0.00  0.00     0.023 A 
ATOM      8  C   UNL d   1     -43.184  12.495  21.417  0.00  0.00     0.029 A 
BRANCH   6   9
ATOM      9  C   UNL d   1     -41.601  13.910  20.902  0.00  0.00     0.022 A 
ATOM     10  C   UNL d   1     -40.997  14.050  21.455  0.00  0.00     0.022 A 
ATOM     11  C   UNL d   1     -40.278  14.353  21.184  0.00  0.00     0.099 A 
ATOM     12  N   UNL d   1     -40.164  14.511  20.389  0.00  0.00    -0.242 NA
ATOM     13  C   UNL d   1     -40.778  14.366  19.847  0.00  0.00     0.099 A 
ATOM     14  C   UNL d   1     -41.492  14.066  20.111  0.00  0.00     0.022 A 
ENDBRANCH   6   9
ENDBRANCH   2   3
ENDBRANCH   1   2
BRANCH   1  15
ATOM     15  C   UNL d   1     -45.738  12.911  22.625  0.00  0.00     0.272 C 
ATOM     16  N   UNL d   1     -46.429  13.354  22.691  0.00  0.00    -0.269 N 
ATOM     17  C   UNL d   1     -47.067  13.051  23.103  0.00  0.00     0.102 A 
ATOM     18  C   UNL d   1     -46.471  14.103  22.338  0.00  0.00     0.102 A 
ATOM     19  C   UNL d   1     -47.762  13.492  23.171  0.00  0.00     0.104 A 
ATOM     20  N   UNL d   1     -47.807  14.240  22.820  0.00  0.00    -0.249 N 
ATOM     21  C   UNL d   1     -48.500  14.671  22.893  0.00  0.00     0.378 C 
ATOM     22  C   UNL d   1     -47.160  14.536  22.408  0.00  0.00     0.104 A 
ATOM     23  O   UNL d   1     -48.545  15.419  22.542  0.00  0.00    -0.237 OA
ATOM     24  O   UNL d   1     -45.695  12.175  22.971  0.00  0.00    -0.266 OA
BRANCH  21  25
ATOM     25  O   UNL d   1     -49.142  14.368  23.307  0.00  0.00    -0.257 OA
BRANCH  25  26
ATOM     26  C   UNL d   1     -49.833  14.799  23.372  0.00  0.00     0.128 C 
ATOM     27  C   UNL d   1     -50.507  14.453  23.671  0.00  0.00     0.029 C 
ENDBRANCH  25  26
ENDBRANCH  21  25
ENDBRANCH   1  15
TORSDOF 6
ENDMDL
MODEL 3
REMARK VINA RESULT:      -2.7      1.968      2.639
REMARK  6 active torsions:
REMARK  status: ('A' for Active; 'I' for Inactive)
REMARK       I    between atoms: C_2  and  N_1 
REMARK    1  A    between atoms: O_20  and  C_2 
REMARK       I    between atoms: C_5  and  N_3 
REMARK    2  A    between atoms: C_15  and  C_5 
REMARK    3  A    between atoms: C_7  and  S_13 
REMARK    4  A    between atoms: C_18  and  C_8 
REMARK    5  A    between atoms: S_13  and  C_15 
REMARK    6  A    between atoms: C_26  and  O_20 
ROOT
ATOM      1  C   UNL d   1     -45.721  11.772  22.959  0.00  0.00     0.098 C 
ENDROOT
BRANCH   1   2
ATOM      2  S   UNL d   1     -46.247  11.414  23.478  0.00  0.00    -0.061 SA
BRANCH   2   3
ATOM      3  C   UNL d   1     -47.051  11.596  23.450  0.00  0.00     0.133 A 
ATOM      4  N   UNL d   1     -47.595  11.046  23.182  0.00  0.00    -0.141 NA
ATOM      5  N   UNL d   1     -48.399  11.229  23.154  0.00  0.00    -0.148 NA
ATOM      6  C   UNL d   1     -48.664  11.975  23.398  0.00  0.00     0.103 A 
ATOM      7  C   UNL d   1     -48.117  12.533  23.670  0.00  0.00     0.023 A 
ATOM      8  C   UNL d   1     -47.316  12.348  23.696  0.00  0.00     0.029 A 
BRANCH   6   9
ATOM      9  C   UNL d   1     -49.468  12.158  23.371  0.00  0.00     0.022 A 
ATOM     10  C   UNL d   1     -49.709  12.865  23.007  0.00  0.00     0.022 A 
ATOM     11  C   UNL d   1     -50.516  13.040  22.984  0.00  0.00     0.099 A 
ATOM     12  N   UNL d   1     -51.064  12.528  23.311  0.00  0.00    -0.242 NA
ATOM     13  C   UNL d   1     -50.808  11.823  23.672  0.00  0.00     0.099 A 
ATOM     14  C   UNL d   1     -50.009  11.646  23.697  0.00  0.00     0.022 A 
ENDBRANCH   6   9
ENDBRANCH   2   3
ENDBRANCH   1   2
BRANCH   1  15
ATOM     15  C   UNL d   1     -44.918  11.581  22.996  0.00  0.00     0.272 C 
ATOM     16  N   UNL d   1     -44.376  12.004  22.543  0.00  0.00    -0.269 N 
ATOM     17  C   UNL d   1     -43.581  11.815  22.580  0.00  0.00     0.102 A 
ATOM     18  C   UNL d   1     -44.641  12.618  22.054  0.00  0.00     0.102 A 
ATOM     19  C   UNL d   1     -43.034  12.236  22.128  0.00  0.00     0.104 A 
ATOM     20  N   UNL d   1     -43.296  12.850  21.639  0.00  0.00    -0.249 N 
ATOM     21  C   UNL d   1     -42.747  13.264  21.193  0.00  0.00     0.378 C 
ATOM     22  C   UNL d   1     -44.096  13.034  21.608  0.00  0.00     0.104 A 
ATOM     23  O   UNL d   1     -43.008  13.878  20.704  0.00  0.00    -0.237 OA
ATOM     24  O   UNL d   1     -44.658  10.977  23.477  0.00  0.00    -0.266 OA
BRANCH  21  25
ATOM     25  O   UNL d   1     -41.948  13.075  21.229  0.00  0.00    -0.257 OA
BRANCH  25  26
ATOM     26  C   UNL d   1     -41.393  13.548  20.860  0.00  0.00     0.128 C 
ATOM     27  C   UNL d   1     -40.677  13.698  21.217  0.00  0.00     0.029 C 
ENDBRANCH  25  26
ENDBRANCH  21  25
ENDBRANCH   1  15
TORSDOF 6
ENDMDL
MODEL 4
REMARK VINA RESULT:      -2.2      1.889      3.059
REMARK  6 active torsions:
REMARK  status: ('A' for Active; 'I' for Inactive)
REMARK       I    between atoms: C_2  and  N_1 
REMARK    1  A    between atoms: O_20  and  C_2 
REMARK       I    between atoms: C_5  and  N_3 
REMARK    2  A    between atoms: C_15  and  C_5 
REMARK    3  A    between atoms: C_7  and  S_13 
REMARK    4  A    between atoms: C_18  and  C_8 
REMARK    5  A    between atoms: S_13  and  C_15 
REMARK    6  A    between atoms: C_26  and  O_20 
ROOT
ATOM      1  C   UNL d   1     -41.808  13.860  20.647  0.00  0.00     0.098 C 
ENDROOT
BRANCH   1   2
ATOM      2  S   UNL d   1     -42.019  13.247  21.150  0.00  0.00    -0.061 SA
BRANCH   2   3
ATOM      3  C   UNL d   1     -42.794  13.179  21.424  0.00  0.00     0.133 A 
ATOM      4  N   UNL d   1     -43.246  13.847  21.565  0.00  0.00    -0.141 NA
ATOM      5  N   UNL d   1     -44.022  13.779  21.838  0.00  0.00    -0.148 NA
ATOM      6  C   UNL d   1     -44.351  13.030  21.973  0.00  0.00     0.103 A 
ATOM      7  C   UNL d   1     -43.896  12.354  21.831  0.00  0.00     0.023 A 
ATOM      8  C   UNL d   1     -43.123  12.425  21.558  0.00  0.00     0.029 A 
BRANCH   6   9
ATOM      9  C   UNL d   1     -45.126  12.962  22.246  0.00  0.00     0.022 A 
ATOM     10  C   UNL d   1     -45.333  12.308  22.715  0.00  0.00     0.022 A 
ATOM     11  C   UNL d   1     -46.112  12.249  22.984  0.00  0.00     0.099 A 
ATOM     12  N   UNL d   1     -46.665  12.821  22.794  0.00  0.00    -0.242 NA
ATOM     13  C   UNL d   1     -46.443  13.471  22.323  0.00  0.00     0.099 A 
ATOM     14  C   UNL d   1     -45.673  13.534  22.054  0.00  0.00     0.022 A 
ENDBRANCH   6   9
ENDBRANCH   2   3
ENDBRANCH   1   2
BRANCH   1  15
ATOM     15  C   UNL d   1     -41.011  14.065  20.565  0.00  0.00     0.272 C 
ATOM     16  N   UNL d   1     -40.720  14.289  19.828  0.00  0.00    -0.269 N 
ATOM     17  C   UNL d   1     -39.932  14.492  19.747  0.00  0.00     0.102 A 
ATOM     18  C   UNL d   1     -41.230  14.306  19.174  0.00  0.00     0.102 A 
ATOM     19  C   UNL d   1     -39.636  14.716  19.010  0.00  0.00     0.104 A 
ATOM     20  N   UNL d   1     -40.141  14.734  18.356  0.00  0.00    -0.249 N 
ATOM     21  C   UNL d   1     -39.840  14.958  17.627  0.00  0.00     0.378 C 
ATOM     22  C   UNL d   1     -40.932  14.529  18.446  0.00  0.00     0.104 A 
ATOM     23  O   UNL d   1     -40.346  14.977  16.973  0.00  0.00    -0.237 OA
ATOM     24  O   UNL d   1     -40.512  14.048  21.208  0.00  0.00    -0.266 OA
BRANCH  21  25
ATOM     25  O   UNL d   1     -39.048  15.163  17.546  0.00  0.00    -0.257 OA
BRANCH  25  26
ATOM     26  C   UNL d   1     -38.762  15.429  16.828  0.00  0.00     0.128 C 
ATOM     27  C   UNL d   1     -37.960  15.438  16.683  0.00  0.00     0.029 C 
ENDBRANCH  25  26
ENDBRANCH  21  25
ENDBRANCH   1  15
TORSDOF 6
ENDMDL
MODEL 5
REMARK VINA RESULT:      -1.9      1.870      6.407
REMARK  6 active torsions:
REMARK  status: ('A' for Active; 'I' for Inactive)
REMARK       I    between atoms: C_2  and  N_1 
REMARK    1  A    between atoms: O_20  and  C_2 
REMARK       I    between atoms: C_5  and  N_3 
REMARK    2  A    between atoms: C_15  and  C_5 
REMARK    3  A    between atoms: C_7  and  S_13 
REMARK    4  A    between atoms: C_18  and  C_8 
REMARK    5  A    between atoms: S_13  and  C_15 
REMARK    6  A    between atoms: C_26  and  O_20 
ROOT
ATOM      1  C   UNL d   1     -43.121  12.974  21.449  0.00  0.00     0.098 C 
ENDROOT
BRANCH   1   2
ATOM      2  S   UNL d   1     -42.301  12.933  21.432  0.00  0.00    -0.061 SA
BRANCH   2   3
ATOM      3  C   UNL d   1     -41.868  13.427  20.934  0.00  0.00     0.133 A 
ATOM      4  N   UNL d   1     -41.869  13.307  20.124  0.00  0.00    -0.141 NA
ATOM      5  N   UNL d   1     -41.436  13.801  19.625  0.00  0.00    -0.148 NA
ATOM      6  C   UNL d   1     -40.994  14.427  19.942  0.00  0.00     0.103 A 
ATOM      7  C   UNL d   1     -40.991  14.551  20.760  0.00  0.00     0.023 A 
ATOM      8  C   UNL d   1     -41.424  14.056  21.254  0.00  0.00     0.029 A 
BRANCH   6   9
ATOM      9  C   UNL d   1     -40.562  14.922  19.444  0.00  0.00     0.022 A 
ATOM     10  C   UNL d   1     -39.732  14.891  19.465  0.00  0.00     0.022 A 
ATOM     11  C   UNL d   1     -39.307  15.390  18.963  0.00  0.00     0.099 A 
ATOM     12  N   UNL d   1     -39.694  15.902  18.456  0.00  0.00    -0.242 NA
ATOM     13  C   UNL d   1     -40.526  15.922  18.445  0.00  0.00     0.099 A 
ATOM     14  C   UNL d   1     -40.952  15.430  18.941  0.00  0.00     0.022 A 
ENDBRANCH   6   9
ENDBRANCH   2   3
ENDBRANCH   1   2
BRANCH   1  15
ATOM     15  C   UNL d   1     -43.547  12.444  21.919  0.00  0.00     0.272 C 
ATOM     16  N   UNL d   1     -44.331  12.605  22.110  0.00  0.00    -0.269 N 
ATOM     17  C   UNL d   1     -44.752  12.079  22.574  0.00  0.00     0.102 A 
ATOM     18  C   UNL d   1     -44.687  13.299  21.828  0.00  0.00     0.102 A 
ATOM     19  C   UNL d   1     -45.539  12.237  22.768  0.00  0.00     0.104 A 
ATOM     20  N   UNL d   1     -45.897  12.929  22.489  0.00  0.00    -0.249 N 
ATOM     21  C   UNL d   1     -46.678  13.079  22.685  0.00  0.00     0.378 C 
ATOM     22  C   UNL d   1     -45.466  13.451  22.023  0.00  0.00     0.104 A 
ATOM     23  O   UNL d   1     -47.036  13.771  22.407  0.00  0.00    -0.237 OA
ATOM     24  O   UNL d   1     -43.196  11.762  22.194  0.00  0.00    -0.266 OA
BRANCH  21  25
ATOM     25  O   UNL d   1     -47.102  12.551  23.152  0.00  0.00    -0.257 OA
BRANCH  25  26
ATOM     26  C   UNL d   1     -47.892  12.685  23.314  0.00  0.00     0.128 C 
ATOM     27  C   UNL d   1     -48.376  12.069  23.538  0.00  0.00     0.029 C 
ENDBRANCH  25  26
ENDBRANCH  21  25
ENDBRANCH   1  15
TORSDOF 6
ENDMDL
