MODEL 1
REMARK VINA RESULT:      57.2      0.000      0.000
REMARK  2 active torsions:
REMARK  status: ('A' for Active; 'I' for Inactive)
REMARK    1  A    between atoms: C_13  and  C_6 
REMARK    2  A    between atoms: N_7  and  C_12 
ROOT
ATOM      1  C   UNL d   1     -58.740 -99.058 -44.860  0.00  0.00     0.095 A 
ATOM      2  C   UNL d   1     -58.737 -99.056 -43.447  0.00  0.00     0.095 A 
ATOM      3  C   UNL d   1     -59.549 -98.861 -44.859  0.00  0.00     0.143 A 
ATOM      4  C   UNL d   1     -59.546 -98.860 -43.446  0.00  0.00     0.143 A 
ATOM      5  S   UNL d   1     -59.940 -98.765 -44.148  0.00  0.00    -0.044 SA
ATOM      6  C   UNL d   1     -58.353 -99.151 -44.151  0.00  0.00     0.023 A 
ATOM      7  C   UNL d   1     -58.332 -99.154 -42.723  0.00  0.00     0.103 C 
ATOM      8  C   UNL d   1     -58.337 -99.156 -45.602  0.00  0.00     0.103 C 
ATOM      9  N   UNL d   1     -57.917 -99.259 -46.329  0.00  0.00    -0.191 NA
ATOM     10  N   UNL d   1     -57.908 -99.256 -41.998  0.00  0.00    -0.191 NA
ATOM     11  N   UNL d   1     -59.951 -98.761 -42.720  0.00  0.00    -0.140 N 
ATOM     12  N   UNL d   1     -59.957 -98.763 -45.599  0.00  0.00    -0.140 N 
ENDROOT
BRANCH   6  13
ATOM     13  C   UNL d   1     -57.541 -99.348 -44.152  0.00  0.00     0.002 A 
ATOM     14  C   UNL d   1     -57.299-100.125 -44.071  0.00  0.00     0.002 A 
ATOM     15  C   UNL d   1     -56.505-100.318 -44.072  0.00  0.00     0.024 A 
ATOM     16  C   UNL d   1     -55.933 -99.738 -44.155  0.00  0.00     0.127 A 
ATOM     17  C   UNL d   1     -56.174 -98.954 -44.238  0.00  0.00     0.024 A 
ATOM     18  C   UNL d   1     -56.968 -98.761 -44.236  0.00  0.00     0.002 A 
BRANCH  16  19
ATOM     19  N   UNL d   1     -55.140 -99.931 -44.157  0.00  0.00    -0.114 N 
ATOM     20  O   UNL d   1     -54.781-100.172 -43.463  0.00  0.00    -0.532 OA
ATOM     21  O   UNL d   1     -54.713 -99.883 -44.845  0.00  0.00    -0.532 OA
ENDBRANCH  16  19
ENDBRANCH   6  13
TORSDOF 2
ENDMDL
