MODEL 1
REMARK VINA RESULT:      -5.5      0.000      0.000
REMARK  6 active torsions:
REMARK  status: ('A' for Active; 'I' for Inactive)
REMARK    1  A    between atoms: O_9  and  S_1 
REMARK    2  A    between atoms: C_10  and  C_4 
REMARK    3  A    between atoms: C_14  and  O_9 
REMARK    4  A    between atoms: C_13  and  C_10 
REMARK    5  A    between atoms: C_16  and  C_13 
REMARK    6  A    between atoms: C_19  and  C_16 
ROOT
ATOM      1  C   UNL d   1      59.008  -0.760  29.370  0.00  0.00     0.064 A 
ATOM      2  C   UNL d   1      58.534  -1.395  29.606  0.00  0.00     0.105 A 
ATOM      3  C   UNL d   1      58.093  -0.292  30.226  0.00  0.00     0.139 A 
ATOM      4  C   UNL d   1      58.735  -0.082  29.753  0.00  0.00     0.220 A 
ATOM      5  O   UNL d   1      57.964  -1.108  30.138  0.00  0.00    -0.304 OA
ATOM      6  C   UNL d   1      58.681  -2.147  29.308  0.00  0.00     0.050 A 
ATOM      7  C   UNL d   1      59.626  -0.881  28.837  0.00  0.00     0.007 A 
ATOM      8  C   UNL d   1      59.295  -2.264  28.780  0.00  0.00     0.115 A 
ATOM      9  O   UNL d   1      59.051   0.681  29.676  0.00  0.00    -0.284 OA
ATOM     10  C   UNL d   1      59.770  -1.638  28.541  0.00  0.00     0.026 A 
ENDROOT
BRANCH   3  11
ATOM     11  C   UNL d   1      57.652   0.216  30.706  0.00  0.00     0.028 C 
BRANCH  11  12
ATOM     12  C   UNL d   1      57.094  -0.088  31.236  0.00  0.00     0.002 C 
BRANCH  12  13
ATOM     13  C   UNL d   1      57.153   0.074  32.039  0.00  0.00     0.000 C 
BRANCH  13  14
ATOM     14  C   UNL d   1      56.500  -0.000  32.529  0.00  0.00     0.000 A 
ATOM     15  C   UNL d   1      56.150   0.669  32.863  0.00  0.00     0.000 A 
ATOM     16  C   UNL d   1      55.489   0.593  33.359  0.00  0.00     0.000 A 
ATOM     17  C   UNL d   1      55.181  -0.157  33.519  0.00  0.00     0.000 A 
ATOM     18  C   UNL d   1      55.536  -0.828  33.181  0.00  0.00     0.000 A 
ATOM     19  C   UNL d   1      56.193  -0.744  32.689  0.00  0.00     0.000 A 
ENDBRANCH  13  14
ENDBRANCH  12  13
ENDBRANCH  11  12
ENDBRANCH   3  11
BRANCH   8  20
ATOM     20  O   UNL d   1      59.443  -3.025  28.479  0.00  0.00    -0.230 OA
BRANCH  20  21
ATOM     21  S   UNL d   1      60.091  -3.458  28.758  0.00  0.00     0.285 S 
ATOM     22  O   UNL d   1      59.440  -3.869  28.455  0.00  0.00    -0.197 OA
ATOM     23  O   UNL d   1      60.736  -3.066  29.057  0.00  0.00    -0.197 OA
ATOM     24  C   UNL d   1      60.467  -4.187  28.908  0.00  0.00     0.172 C 
ENDBRANCH  20  21
ENDBRANCH   8  20
TORSDOF 6
ENDMDL
MODEL 2
REMARK VINA RESULT:      -5.3      2.198      5.358
REMARK  6 active torsions:
REMARK  status: ('A' for Active; 'I' for Inactive)
REMARK    1  A    between atoms: O_9  and  S_1 
REMARK    2  A    between atoms: C_10  and  C_4 
REMARK    3  A    between atoms: C_14  and  O_9 
REMARK    4  A    between atoms: C_13  and  C_10 
REMARK    5  A    between atoms: C_16  and  C_13 
REMARK    6  A    between atoms: C_19  and  C_16 
ROOT
ATOM      1  C   UNL d   1      57.451   0.044  31.225  0.00  0.00     0.064 A 
ATOM      2  C   UNL d   1      57.222  -0.718  31.444  0.00  0.00     0.105 A 
ATOM      3  C   UNL d   1      57.803  -0.789  30.240  0.00  0.00     0.139 A 
ATOM      4  C   UNL d   1      57.809  -0.001  30.482  0.00  0.00     0.220 A 
ATOM      5  O   UNL d   1      57.438  -1.239  30.835  0.00  0.00    -0.304 OA
ATOM      6  C   UNL d   1      56.847  -0.840  32.167  0.00  0.00     0.050 A 
ATOM      7  C   UNL d   1      57.305   0.682  31.728  0.00  0.00     0.007 A 
ATOM      8  C   UNL d   1      56.704  -0.206  32.664  0.00  0.00     0.115 A 
ATOM      9  O   UNL d   1      58.121   0.636  30.053  0.00  0.00    -0.284 OA
ATOM     10  C   UNL d   1      56.929   0.555  32.452  0.00  0.00     0.026 A 
ENDROOT
BRANCH   3  11
ATOM     11  C   UNL d   1      58.105  -1.085  29.529  0.00  0.00     0.028 C 
BRANCH  11  12
ATOM     12  C   UNL d   1      58.585  -1.758  29.527  0.00  0.00     0.002 C 
BRANCH  12  13
ATOM     13  C   UNL d   1      58.916  -2.031  28.826  0.00  0.00     0.000 C 
BRANCH  13  14
ATOM     14  C   UNL d   1      59.356  -2.722  28.812  0.00  0.00     0.000 A 
ATOM     15  C   UNL d   1      60.116  -2.740  29.137  0.00  0.00     0.000 A 
ATOM     16  C   UNL d   1      60.560  -3.440  29.123  0.00  0.00     0.000 A 
ATOM     17  C   UNL d   1      60.242  -4.121  28.781  0.00  0.00     0.000 A 
ATOM     18  C   UNL d   1      59.478  -4.099  28.455  0.00  0.00     0.000 A 
ATOM     19  C   UNL d   1      59.041  -3.400  28.473  0.00  0.00     0.000 A 
ENDBRANCH  13  14
ENDBRANCH  12  13
ENDBRANCH  11  12
ENDBRANCH   3  11
BRANCH   8  20
ATOM     20  O   UNL d   1      56.326  -0.329  33.394  0.00  0.00    -0.230 OA
BRANCH  20  21
ATOM     21  S   UNL d   1      55.528  -0.129  33.482  0.00  0.00     0.285 S 
ATOM     22  O   UNL d   1      56.065   0.121  34.059  0.00  0.00    -0.197 OA
ATOM     23  O   UNL d   1      54.991  -0.369  32.922  0.00  0.00    -0.197 OA
ATOM     24  C   UNL d   1      54.914   0.241  33.908  0.00  0.00     0.172 C 
ENDBRANCH  20  21
ENDBRANCH   8  20
TORSDOF 6
ENDMDL
MODEL 3
REMARK VINA RESULT:      -4.4      2.538      5.535
REMARK  6 active torsions:
REMARK  status: ('A' for Active; 'I' for Inactive)
REMARK    1  A    between atoms: O_9  and  S_1 
REMARK    2  A    between atoms: C_10  and  C_4 
REMARK    3  A    between atoms: C_14  and  O_9 
REMARK    4  A    between atoms: C_13  and  C_10 
REMARK    5  A    between atoms: C_16  and  C_13 
REMARK    6  A    between atoms: C_19  and  C_16 
ROOT
ATOM      1  C   UNL d   1      57.456   0.248  32.210  0.00  0.00     0.064 A 
ATOM      2  C   UNL d   1      56.809  -0.112  31.845  0.00  0.00     0.105 A 
ATOM      3  C   UNL d   1      57.773   0.041  30.928  0.00  0.00     0.139 A 
ATOM      4  C   UNL d   1      58.049   0.341  31.644  0.00  0.00     0.220 A 
ATOM      5  O   UNL d   1      57.000  -0.243  31.048  0.00  0.00    -0.304 OA
ATOM      6  C   UNL d   1      56.131  -0.274  32.283  0.00  0.00     0.050 A 
ATOM      7  C   UNL d   1      57.424   0.445  33.011  0.00  0.00     0.007 A 
ATOM      8  C   UNL d   1      56.101  -0.078  33.076  0.00  0.00     0.115 A 
ATOM      9  O   UNL d   1      58.795   0.679  31.772  0.00  0.00    -0.284 OA
ATOM     10  C   UNL d   1      56.742   0.281  33.446  0.00  0.00     0.026 A 
ENDROOT
BRANCH   3  11
ATOM     11  C   UNL d   1      58.187   0.022  30.212  0.00  0.00     0.028 C 
BRANCH  11  12
ATOM     12  C   UNL d   1      58.455  -0.698  29.903  0.00  0.00     0.002 C 
BRANCH  12  13
ATOM     13  C   UNL d   1      59.011  -0.708  29.298  0.00  0.00     0.000 C 
BRANCH  13  14
ATOM     14  C   UNL d   1      59.350  -1.413  29.054  0.00  0.00     0.000 A 
ATOM     15  C   UNL d   1      58.887  -2.093  28.973  0.00  0.00     0.000 A 
ATOM     16  C   UNL d   1      59.231  -2.806  28.726  0.00  0.00     0.000 A 
ATOM     17  C   UNL d   1      60.040  -2.835  28.560  0.00  0.00     0.000 A 
ATOM     18  C   UNL d   1      60.502  -2.150  28.643  0.00  0.00     0.000 A 
ATOM     19  C   UNL d   1      60.153  -1.444  28.889  0.00  0.00     0.000 A 
ENDBRANCH  13  14
ENDBRANCH  12  13
ENDBRANCH  11  12
ENDBRANCH   3  11
BRANCH   8  20
ATOM     20  O   UNL d   1      55.416  -0.241  33.518  0.00  0.00    -0.230 OA
BRANCH  20  21
ATOM     21  S   UNL d   1      55.167   0.291  34.101  0.00  0.00     0.285 S 
ATOM     22  O   UNL d   1      54.594  -0.099  33.649  0.00  0.00    -0.197 OA
ATOM     23  O   UNL d   1      55.719   0.679  34.552  0.00  0.00    -0.197 OA
ATOM     24  C   UNL d   1      54.558   0.682  34.516  0.00  0.00     0.172 C 
ENDBRANCH  20  21
ENDBRANCH   8  20
TORSDOF 6
ENDMDL
