MODEL 1
REMARK VINA RESULT:      40.9      0.000      0.000
REMARK  6 active torsions:
REMARK  status: ('A' for Active; 'I' for Inactive)
REMARK    1  A    between atoms: C_12  and  N_4 
REMARK    2  A    between atoms: C_10  and  N_6 
REMARK    3  A    between atoms: C_11  and  C_10 
REMARK    4  A    between atoms: O_15  and  C_11 
REMARK    5  A    between atoms: C_16  and  O_15 
REMARK    6  A    between atoms: C_17  and  C_16 
ROOT
ATOM      1  C   UNL d   1      13.820  13.074  -2.815  0.00  0.00     0.172 A 
ATOM      2  C   UNL d   1      13.499  12.887  -3.552  0.00  0.00     0.113 A 
ATOM      3  N   UNL d   1      14.062  13.841  -2.653  0.00  0.00    -0.206 NA
ATOM      4  N   UNL d   1      13.826  12.378  -2.364  0.00  0.00    -0.212 N 
ATOM      5  C   UNL d   1      13.420  13.467  -4.126  0.00  0.00     0.271 A 
ATOM      6  N   UNL d   1      13.663  14.243  -3.967  0.00  0.00    -0.250 N 
ATOM      7  N   UNL d   1      13.512  11.779  -2.824  0.00  0.00    -0.162 NA
ATOM      8  C   UNL d   1      13.984  14.430  -3.230  0.00  0.00     0.187 A 
ATOM      9  C   UNL d   1      13.313  12.079  -3.542  0.00  0.00     0.129 A 
ATOM     10  O   UNL d   1      13.100  13.280  -4.863  0.00  0.00    -0.266 OA
ENDROOT
BRANCH   6  11
ATOM     11  C   UNL d   1      13.586  14.839  -4.546  0.00  0.00     0.153 C 
BRANCH  11  12
ATOM     12  C   UNL d   1      14.029  15.539  -4.485  0.00  0.00     0.318 C 
ATOM     13  O   UNL d   1      14.638  15.587  -3.942  0.00  0.00    -0.257 OA
BRANCH  12  14
ATOM     14  O   UNL d   1      13.844  16.175  -4.976  0.00  0.00    -0.270 OA
BRANCH  14  15
ATOM     15  C   UNL d   1      14.363  16.823  -5.010  0.00  0.00     0.126 C 
BRANCH  15  16
ATOM     16  C   UNL d   1      14.151  17.474  -5.458  0.00  0.00     0.025 A 
ATOM     17  C   UNL d   1      13.464  17.432  -5.923  0.00  0.00     0.002 A 
ATOM     18  C   UNL d   1      13.242  18.090  -6.382  0.00  0.00     0.000 A 
ATOM     19  C   UNL d   1      13.700  18.766  -6.370  0.00  0.00     0.000 A 
ATOM     20  C   UNL d   1      14.389  18.808  -5.904  0.00  0.00     0.000 A 
ATOM     21  C   UNL d   1      14.604  18.153  -5.452  0.00  0.00     0.002 A 
ENDBRANCH  15  16
ENDBRANCH  14  15
ENDBRANCH  12  14
ENDBRANCH  11  12
ENDBRANCH   6  11
BRANCH   4  22
ATOM     22  C   UNL d   1      14.087  12.268  -1.600  0.00  0.00     0.085 A 
ATOM     23  C   UNL d   1      14.843  12.535  -1.375  0.00  0.00     0.019 A 
ATOM     24  C   UNL d   1      15.099  12.421  -0.606  0.00  0.00     0.002 A 
ATOM     25  C   UNL d   1      14.603  12.036  -0.045  0.00  0.00     0.000 A 
ATOM     26  C   UNL d   1      13.868  11.780  -0.278  0.00  0.00     0.002 A 
ATOM     27  C   UNL d   1      13.601  11.890  -1.048  0.00  0.00     0.019 A 
ENDBRANCH   4  22
TORSDOF 6
ENDMDL
MODEL 2
REMARK VINA RESULT:      43.3      1.824      2.597
REMARK  6 active torsions:
REMARK  status: ('A' for Active; 'I' for Inactive)
REMARK    1  A    between atoms: C_12  and  N_4 
REMARK    2  A    between atoms: C_10  and  N_6 
REMARK    3  A    between atoms: C_11  and  C_10 
REMARK    4  A    between atoms: O_15  and  C_11 
REMARK    5  A    between atoms: C_16  and  O_15 
REMARK    6  A    between atoms: C_17  and  C_16 
ROOT
ATOM      1  C   UNL d   1      14.882  14.894  -1.248  0.00  0.00     0.172 A 
ATOM      2  C   UNL d   1      15.168  15.616  -0.971  0.00  0.00     0.113 A 
ATOM      3  N   UNL d   1      14.557  14.839  -2.000  0.00  0.00    -0.206 NA
ATOM      4  N   UNL d   1      14.999  14.333  -0.647  0.00  0.00    -0.212 N 
ATOM      5  C   UNL d   1      15.130  16.284  -1.445  0.00  0.00     0.271 A 
ATOM      6  N   UNL d   1      14.803  16.234  -2.204  0.00  0.00    -0.250 N 
ATOM      7  N   UNL d   1      15.351  14.715  -0.015  0.00  0.00    -0.162 NA
ATOM      8  C   UNL d   1      14.517  15.512  -2.481  0.00  0.00     0.187 A 
ATOM      9  C   UNL d   1      15.457  15.489  -0.203  0.00  0.00     0.129 A 
ATOM     10  O   UNL d   1      15.416  17.006  -1.168  0.00  0.00    -0.266 OA
ENDROOT
BRANCH   6  11
ATOM     11  C   UNL d   1      14.760  16.909  -2.693  0.00  0.00     0.153 C 
BRANCH  11  12
ATOM     12  C   UNL d   1      14.952  16.852  -3.499  0.00  0.00     0.318 C 
ATOM     13  O   UNL d   1      15.476  16.278  -3.752  0.00  0.00    -0.257 OA
BRANCH  12  14
ATOM     14  O   UNL d   1      14.608  17.380  -4.032  0.00  0.00    -0.270 OA
BRANCH  14  15
ATOM     15  C   UNL d   1      15.075  17.706  -4.636  0.00  0.00     0.126 C 
BRANCH  15  16
ATOM     16  C   UNL d   1      14.746  18.272  -5.127  0.00  0.00     0.025 A 
ATOM     17  C   UNL d   1      15.003  19.059  -5.059  0.00  0.00     0.002 A 
ATOM     18  C   UNL d   1      14.673  19.639  -5.555  0.00  0.00     0.000 A 
ATOM     19  C   UNL d   1      14.101  19.430  -6.100  0.00  0.00     0.000 A 
ATOM     20  C   UNL d   1      13.843  18.642  -6.167  0.00  0.00     0.000 A 
ATOM     21  C   UNL d   1      14.174  18.070  -5.674  0.00  0.00     0.002 A 
ENDBRANCH  15  16
ENDBRANCH  14  15
ENDBRANCH  12  14
ENDBRANCH  11  12
ENDBRANCH   6  11
BRANCH   4  22
ATOM     22  C   UNL d   1      14.812  13.541  -0.645  0.00  0.00     0.085 A 
ATOM     23  C   UNL d   1      15.051  13.054  -1.277  0.00  0.00     0.019 A 
ATOM     24  C   UNL d   1      14.860  12.259  -1.269  0.00  0.00     0.002 A 
ATOM     25  C   UNL d   1      14.424  11.932  -0.627  0.00  0.00     0.000 A 
ATOM     26  C   UNL d   1      14.197  12.418  -0.017  0.00  0.00     0.002 A 
ATOM     27  C   UNL d   1      14.384  13.219  -0.016  0.00  0.00     0.019 A 
ENDBRANCH   4  22
TORSDOF 6
ENDMDL
