MODEL 1
REMARK VINA RESULT:      32.7      0.000      0.000
REMARK  6 active torsions:
REMARK  status: ('A' for Active; 'I' for Inactive)
REMARK    1  A    between atoms: N_2  and  S_1 
REMARK    2  A    between atoms: C_11  and  S_1 
REMARK    3  A    between atoms: C_3  and  N_2 
REMARK    4  A    between atoms: C_4  and  C_3 
REMARK    5  A    between atoms: N_5  and  C_4 
REMARK    6  A    between atoms: C_6  and  C_4 
ROOT
ATOM      1  C   UNL d   1      45.351 -15.170  44.446  0.00  0.00     0.089 C 
ENDROOT
BRANCH   1   2
ATOM      2  C   UNL d   1      45.833 -14.504  44.454  0.00  0.00     0.110 C 
ATOM      3  C   UNL d   1      46.618 -14.566  44.701  0.00  0.00     0.023 C 
BRANCH   2   4
ATOM      4  N   UNL d   1      45.534 -13.780  44.216  0.00  0.00    -0.157 NA
BRANCH   4   5
ATOM      5  S   UNL d   1      46.006 -13.106  44.224  0.00  0.00     0.285 S 
ATOM      6  O   UNL d   1      46.292 -13.383  44.952  0.00  0.00    -0.198 OA
ATOM      7  O   UNL d   1      46.577 -12.673  44.638  0.00  0.00    -0.198 OA
BRANCH   5   8
ATOM      8  C   UNL d   1      45.766 -12.775  43.511  0.00  0.00     0.105 A 
ATOM      9  C   UNL d   1      45.012 -12.448  43.447  0.00  0.00     0.013 A 
ATOM     10  C   UNL d   1      44.778 -12.118  42.728  0.00  0.00     0.001 A 
ATOM     11  C   UNL d   1      45.285 -12.112  42.081  0.00  0.00     0.000 A 
ATOM     12  C   UNL d   1      46.039 -12.440  42.149  0.00  0.00     0.001 A 
ATOM     13  C   UNL d   1      46.271 -12.770  42.869  0.00  0.00     0.013 A 
ENDBRANCH   5   8
ENDBRANCH   4   5
ENDBRANCH   2   4
ENDBRANCH   1   2
BRANCH   1  14
ATOM     14  N   UNL d   1      45.667 -15.907  44.270  0.00  0.00    -0.300 N 
ATOM     15  C   UNL d   1      45.912 -16.081  43.502  0.00  0.00     0.100 A 
ATOM     16  C   UNL d   1      46.232 -16.825  43.326  0.00  0.00     0.100 A 
ATOM     17  N   UNL d   1      46.306 -17.394  43.915  0.00  0.00    -0.299 N 
ATOM     18  C   UNL d   1      46.060 -17.220  44.688  0.00  0.00     0.100 A 
ATOM     19  C   UNL d   1      46.626 -18.138  43.736  0.00  0.00     0.100 C 
ATOM     20  C   UNL d   1      45.744 -16.484  44.863  0.00  0.00     0.100 A 
ENDBRANCH   1  14
BRANCH   1  21
ATOM     21  C   UNL d   1      44.548 -15.097  44.616  0.00  0.00     0.047 A 
ATOM     22  S   UNL d   1      44.125 -14.387  44.685  0.00  0.00    -0.085 SA
ATOM     23  C   UNL d   1      43.340 -14.580  44.860  0.00  0.00     0.035 A 
ATOM     24  C   UNL d   1      43.268 -15.393  44.900  0.00  0.00     0.007 A 
ATOM     25  C   UNL d   1      44.020 -15.719  44.749  0.00  0.00     0.009 A 
ENDBRANCH   1  21
TORSDOF 6
ENDMDL
