MODEL 1
REMARK VINA RESULT:      82.9      0.000      0.000
REMARK  3 active torsions:
REMARK  status: ('A' for Active; 'I' for Inactive)
REMARK    1  A    between atoms: N_11  and  C_4 
REMARK    2  A    between atoms: C_18  and  N_15 
REMARK    3  A    between atoms: C_22  and  C_18 
ROOT
ATOM      1  N   UNL d   1     -48.402  29.955  34.367  0.00  0.00    -0.195 N 
ATOM      2  C   UNL d   1     -47.990  30.522  34.772  0.00  0.00     0.168 A 
ATOM      3  C   UNL d   1     -47.956  31.272  34.500  0.00  0.00     0.073 A 
ATOM      4  C   UNL d   1     -48.425  29.211  34.653  0.00  0.00     0.153 A 
ATOM      5  N   UNL d   1     -48.750  30.886  33.418  0.00  0.00    -0.143 NA
ATOM      6  C   UNL d   1     -48.338  31.452  33.823  0.00  0.00     0.185 A 
ATOM      7  N   UNL d   1     -47.610  30.330  35.451  0.00  0.00    -0.227 NA
ATOM      8  C   UNL d   1     -47.548  31.834  34.901  0.00  0.00     0.007 A 
ATOM      9  N   UNL d   1     -48.313  32.208  33.536  0.00  0.00    -0.225 NA
ATOM     10  C   UNL d   1     -48.051  29.016  35.325  0.00  0.00     0.057 A 
ATOM     11  C   UNL d   1     -47.514  32.584  34.630  0.00  0.00     0.019 A 
ATOM     12  C   UNL d   1     -47.638  29.583  35.729  0.00  0.00     0.086 A 
ATOM     13  C   UNL d   1     -47.900  32.776  33.940  0.00  0.00     0.083 A 
ATOM     14  C   UNL d   1     -47.167  31.639  35.583  0.00  0.00     0.000 C 
ATOM     15  C   UNL d   1     -47.244  29.381  36.435  0.00  0.00     0.021 C 
ATOM     16  C   UNL d   1     -47.872  33.520  33.665  0.00  0.00     0.021 C 
ENDROOT
BRANCH   4  17
ATOM     17  N   UNL d   1     -48.853  28.631  34.229  0.00  0.00    -0.286 N 
ATOM     18  C   UNL d   1     -48.638  27.936  34.616  0.00  0.00     0.101 A 
ATOM     19  C   UNL d   1     -48.958  27.206  34.352  0.00  0.00     0.100 A 
ATOM     20  N   UNL d   1     -49.487  27.176  33.707  0.00  0.00    -0.300 N 
ATOM     21  C   UNL d   1     -49.699  27.889  33.321  0.00  0.00     0.100 A 
ATOM     22  C   UNL d   1     -49.384  28.620  33.580  0.00  0.00     0.101 A 
BRANCH  20  23
ATOM     23  C   UNL d   1     -49.799  26.452  33.453  0.00  0.00     0.080 C 
BRANCH  23  24
ATOM     24  C   UNL d   1     -50.627  26.343  33.405  0.00  0.00     0.018 A 
ATOM     25  C   UNL d   1     -50.936  25.578  33.401  0.00  0.00     0.002 A 
ATOM     26  C   UNL d   1     -51.760  25.455  33.353  0.00  0.00     0.000 A 
ATOM     27  C   UNL d   1     -52.274  26.111  33.311  0.00  0.00     0.000 A 
ATOM     28  C   UNL d   1     -51.959  26.887  33.316  0.00  0.00     0.000 A 
ATOM     29  C   UNL d   1     -51.135  26.995  33.364  0.00  0.00     0.002 A 
ENDBRANCH  23  24
ENDBRANCH  20  23
ENDBRANCH   4  17
TORSDOF 3
ENDMDL
MODEL 2
REMARK VINA RESULT:      84.6      1.773      6.024
REMARK  3 active torsions:
REMARK  status: ('A' for Active; 'I' for Inactive)
REMARK    1  A    between atoms: N_11  and  C_4 
REMARK    2  A    between atoms: C_18  and  N_15 
REMARK    3  A    between atoms: C_22  and  C_18 
ROOT
ATOM      1  N   UNL d   1     -50.869  26.692  33.576  0.00  0.00    -0.195 N 
ATOM      2  C   UNL d   1     -51.605  26.367  33.485  0.00  0.00     0.168 A 
ATOM      3  C   UNL d   1     -51.697  25.575  33.444  0.00  0.00     0.073 A 
ATOM      4  C   UNL d   1     -50.795  27.485  33.616  0.00  0.00     0.153 A 
ATOM      5  N   UNL d   1     -50.315  25.435  33.583  0.00  0.00    -0.143 NA
ATOM      6  C   UNL d   1     -51.050  25.110  33.493  0.00  0.00     0.185 A 
ATOM      7  N   UNL d   1     -52.248  26.843  33.437  0.00  0.00    -0.227 NA
ATOM      8  C   UNL d   1     -52.426  25.253  33.354  0.00  0.00     0.007 A 
ATOM      9  N   UNL d   1     -51.129  24.306  33.452  0.00  0.00    -0.225 NA
ATOM     10  C   UNL d   1     -51.428  27.960  33.568  0.00  0.00     0.057 A 
ATOM     11  C   UNL d   1     -52.519  24.461  33.312  0.00  0.00     0.019 A 
ATOM     12  C   UNL d   1     -52.164  27.635  33.478  0.00  0.00     0.086 A 
ATOM     13  C   UNL d   1     -51.865  23.980  33.361  0.00  0.00     0.083 A 
ATOM     14  C   UNL d   1     -53.070  25.733  33.306  0.00  0.00     0.000 C 
ATOM     15  C   UNL d   1     -52.831  28.133  33.428  0.00  0.00     0.021 C 
ATOM     16  C   UNL d   1     -51.949  23.192  33.321  0.00  0.00     0.021 C 
ENDROOT
BRANCH   4  17
ATOM     17  N   UNL d   1     -50.032  27.813  33.709  0.00  0.00    -0.286 N 
ATOM     18  C   UNL d   1     -49.756  27.430  34.384  0.00  0.00     0.101 A 
ATOM     19  C   UNL d   1     -48.988  27.609  34.671  0.00  0.00     0.100 A 
ATOM     20  N   UNL d   1     -48.503  28.168  34.283  0.00  0.00    -0.300 N 
ATOM     21  C   UNL d   1     -48.794  28.552  33.597  0.00  0.00     0.100 A 
ATOM     22  C   UNL d   1     -49.559  28.377  33.307  0.00  0.00     0.101 A 
BRANCH  20  23
ATOM     23  C   UNL d   1     -47.747  28.339  34.572  0.00  0.00     0.080 C 
BRANCH  23  24
ATOM     24  C   UNL d   1     -47.632  28.978  35.101  0.00  0.00     0.018 A 
ATOM     25  C   UNL d   1     -48.073  29.012  35.798  0.00  0.00     0.002 A 
ATOM     26  C   UNL d   1     -47.969  29.643  36.333  0.00  0.00     0.000 A 
ATOM     27  C   UNL d   1     -47.415  30.244  36.162  0.00  0.00     0.000 A 
ATOM     28  C   UNL d   1     -46.970  30.208  35.454  0.00  0.00     0.000 A 
ATOM     29  C   UNL d   1     -47.083  29.573  34.928  0.00  0.00     0.002 A 
ENDBRANCH  23  24
ENDBRANCH  20  23
ENDBRANCH   4  17
TORSDOF 3
ENDMDL
