MODEL 1
REMARK VINA RESULT:      -4.1      0.000      0.000
REMARK  5 active torsions:
REMARK  status: ('A' for Active; 'I' for Inactive)
REMARK    1  A    between atoms: C_7  and  C_2 
REMARK    2  A    between atoms: C_9  and  C_4 
REMARK    3  A    between atoms: C_16  and  C_7 
REMARK    4  A    between atoms: N_8  and  C_9 
REMARK    5  A    between atoms: C_23  and  C_14 
ROOT
ATOM      1  C   UNL d   1      59.524  -0.615  29.619  0.00  0.00     0.108 A 
ATOM      2  C   UNL d   1      58.643   0.136  30.301  0.00  0.00     0.139 A 
ATOM      3  O   UNL d   1      58.727  -0.382  29.653  0.00  0.00    -0.304 OA
ATOM      4  C   UNL d   1      59.924  -1.110  29.109  0.00  0.00     0.079 A 
ATOM      5  C   UNL d   1      59.927  -0.246  30.240  0.00  0.00     0.064 A 
ATOM      6  C   UNL d   1      59.381   0.217  30.659  0.00  0.00     0.220 A 
ATOM      7  C   UNL d   1      60.735  -0.377  30.343  0.00  0.00     0.009 A 
ATOM      8  C   UNL d   1      60.729  -1.239  29.214  0.00  0.00     0.199 A 
ATOM      9  O   UNL d   1      59.552   0.680  31.323  0.00  0.00    -0.284 OA
ATOM     10  C   UNL d   1      61.133  -0.873  29.830  0.00  0.00     0.042 A 
ATOM     11  O   UNL d   1      61.133  -1.739  28.698  0.00  0.00    -0.286 OA
ENDROOT
BRANCH   2  12
ATOM     12  C   UNL d   1      57.940   0.501  30.540  0.00  0.00     0.028 C 
BRANCH  12  13
ATOM     13  C   UNL d   1      57.470   0.154  31.123  0.00  0.00     0.002 A 
ATOM     14  C   UNL d   1      57.227  -0.632  31.046  0.00  0.00     0.000 A 
ATOM     15  C   UNL d   1      56.758  -0.979  31.629  0.00  0.00     0.000 A 
ATOM     16  C   UNL d   1      56.531  -0.538  32.289  0.00  0.00     0.000 A 
ATOM     17  C   UNL d   1      56.775   0.247  32.366  0.00  0.00     0.000 A 
ATOM     18  C   UNL d   1      57.244   0.595  31.783  0.00  0.00     0.000 A 
BRANCH  16  19
ATOM     19  C   UNL d   1      56.062  -0.885  32.873  0.00  0.00     0.000 C 
ATOM     20  C   UNL d   1      55.870  -1.687  32.827  0.00  0.00     0.000 C 
ATOM     21  C   UNL d   1      55.782  -0.428  33.505  0.00  0.00     0.000 C 
ENDBRANCH  16  19
ENDBRANCH  12  13
ENDBRANCH   2  12
BRANCH   4  22
ATOM     22  C   UNL d   1      59.532  -1.479  28.493  0.00  0.00     0.086 C 
BRANCH  22  23
ATOM     23  N   UNL d   1      59.234  -2.245  28.489  0.00  0.00    -0.300 N 
ATOM     24  C   UNL d   1      59.746  -2.884  28.460  0.00  0.00     0.100 A 
ATOM     25  C   UNL d   1      59.455  -3.648  28.456  0.00  0.00     0.100 A 
ATOM     26  N   UNL d   1      58.644  -3.765  28.481  0.00  0.00    -0.299 N 
ATOM     27  C   UNL d   1      58.132  -3.127  28.510  0.00  0.00     0.100 A 
ATOM     28  C   UNL d   1      58.343  -4.527  28.478  0.00  0.00     0.100 C 
ATOM     29  C   UNL d   1      58.436  -2.368  28.513  0.00  0.00     0.100 A 
ENDBRANCH  22  23
ENDBRANCH   4  22
TORSDOF 5
ENDMDL
MODEL 2
REMARK VINA RESULT:      -1.9      1.647      4.493
REMARK  5 active torsions:
REMARK  status: ('A' for Active; 'I' for Inactive)
REMARK    1  A    between atoms: C_7  and  C_2 
REMARK    2  A    between atoms: C_9  and  C_4 
REMARK    3  A    between atoms: C_16  and  C_7 
REMARK    4  A    between atoms: N_8  and  C_9 
REMARK    5  A    between atoms: C_23  and  C_14 
ROOT
ATOM      1  C   UNL d   1      58.150  -0.059  30.810  0.00  0.00     0.108 A 
ATOM      2  C   UNL d   1      58.684  -0.465  29.646  0.00  0.00     0.139 A 
ATOM      3  O   UNL d   1      57.976  -0.426  30.086  0.00  0.00    -0.304 OA
ATOM      4  C   UNL d   1      57.681   0.125  31.452  0.00  0.00     0.079 A 
ATOM      5  C   UNL d   1      58.956   0.127  30.818  0.00  0.00     0.064 A 
ATOM      6  C   UNL d   1      59.283  -0.125  30.099  0.00  0.00     0.220 A 
ATOM      7  C   UNL d   1      59.287   0.499  31.476  0.00  0.00     0.009 A 
ATOM      8  C   UNL d   1      58.014   0.496  32.106  0.00  0.00     0.199 A 
ATOM      9  O   UNL d   1      60.076  -0.045  29.877  0.00  0.00    -0.284 OA
ATOM     10  C   UNL d   1      58.814   0.682  32.118  0.00  0.00     0.042 A 
ATOM     11  O   UNL d   1      57.539   0.681  32.754  0.00  0.00    -0.286 OA
ENDROOT
BRANCH   2  12
ATOM     12  C   UNL d   1      58.767  -0.788  28.889  0.00  0.00     0.028 C 
BRANCH  12  13
ATOM     13  C   UNL d   1      58.878  -1.601  28.796  0.00  0.00     0.002 A 
ATOM     14  C   UNL d   1      58.236  -2.089  28.620  0.00  0.00     0.000 A 
ATOM     15  C   UNL d   1      58.347  -2.902  28.527  0.00  0.00     0.000 A 
ATOM     16  C   UNL d   1      59.102  -3.224  28.610  0.00  0.00     0.000 A 
ATOM     17  C   UNL d   1      59.745  -2.736  28.786  0.00  0.00     0.000 A 
ATOM     18  C   UNL d   1      59.633  -1.923  28.879  0.00  0.00     0.000 A 
BRANCH  16  19
ATOM     19  C   UNL d   1      59.214  -4.037  28.517  0.00  0.00     0.000 C 
ATOM     20  C   UNL d   1      59.978  -4.349  28.485  0.00  0.00     0.000 C 
ATOM     21  C   UNL d   1      58.558  -4.540  28.456  0.00  0.00     0.000 C 
ENDBRANCH  16  19
ENDBRANCH  12  13
ENDBRANCH   2  12
BRANCH   4  22
ATOM     22  C   UNL d   1      56.883  -0.056  31.451  0.00  0.00     0.086 C 
BRANCH  22  23
ATOM     23  N   UNL d   1      56.483  -0.515  32.004  0.00  0.00    -0.300 N 
ATOM     24  C   UNL d   1      56.069  -0.155  32.612  0.00  0.00     0.100 A 
ATOM     25  C   UNL d   1      55.668  -0.605  33.164  0.00  0.00     0.100 A 
ATOM     26  N   UNL d   1      55.687  -1.422  33.100  0.00  0.00    -0.299 N 
ATOM     27  C   UNL d   1      56.101  -1.782  32.493  0.00  0.00     0.100 A 
ATOM     28  C   UNL d   1      55.289  -1.882  33.649  0.00  0.00     0.100 C 
ATOM     29  C   UNL d   1      56.497  -1.320  31.947  0.00  0.00     0.100 A 
ENDBRANCH  22  23
ENDBRANCH   4  22
TORSDOF 5
ENDMDL
