MODEL 1
REMARK VINA RESULT:      -9.8      0.000      0.000
REMARK  5 active torsions:
REMARK  status: ('A' for Active; 'I' for Inactive)
REMARK    1  A    between atoms: O_4  and  C_1 
REMARK    2  A    between atoms: C_9  and  C_2 
REMARK    3  A    between atoms: C_5  and  O_4 
REMARK    4  A    between atoms: C_13  and  C_5 
REMARK    5  A    between atoms: N_10  and  C_9 
ROOT
ATOM      1  C   UNL d   1      53.248  33.020  53.930  0.00  0.00     0.122 A 
ATOM      2  C   UNL d   1      52.818  33.500  53.424  0.00  0.00     0.043 A 
ATOM      3  C   UNL d   1      53.719  33.352  54.512  0.00  0.00     0.105 A 
ATOM      4  C   UNL d   1      53.760  34.174  54.589  0.00  0.00     0.030 A 
ATOM      5  C   UNL d   1      53.330  34.653  54.084  0.00  0.00     0.059 A 
ATOM      6  C   UNL d   1      52.859  34.321  53.502  0.00  0.00     0.015 A 
ATOM      7  N   UNL d   1      54.144  32.873  55.012  0.00  0.00    -0.242 NA
ATOM      8 CL   UNL d   1      53.388  35.465  54.180  0.00  0.00    -0.082 Cl
ATOM      9  C   UNL d   1      54.227  34.506  55.166  0.00  0.00     0.004 A 
ATOM     10  C   UNL d   1      54.615  33.205  55.594  0.00  0.00     0.099 A 
ATOM     11  C   UNL d   1      54.657  34.026  55.671  0.00  0.00     0.021 A 
ENDROOT
BRANCH   1  12
ATOM     12  O   UNL d   1      53.218  32.280  53.869  0.00  0.00    -0.271 OA
BRANCH  12  13
ATOM     13  C   UNL d   1      53.644  31.557  53.411  0.00  0.00     0.300 C 
ATOM     14  O   UNL d   1      54.432  31.820  52.859  0.00  0.00    -0.259 OA
BRANCH  13  15
ATOM     15  C   UNL d   1      53.366  30.782  53.479  0.00  0.00     0.064 A 
ATOM     16  C   UNL d   1      52.873  30.472  52.891  0.00  0.00     0.005 A 
ATOM     17  C   UNL d   1      52.595  29.695  52.961  0.00  0.00     0.000 A 
ATOM     18  C   UNL d   1      52.808  29.225  53.616  0.00  0.00     0.000 A 
ATOM     19  C   UNL d   1      53.301  29.547  54.197  0.00  0.00     0.000 A 
ATOM     20  C   UNL d   1      53.579  30.325  54.127  0.00  0.00     0.005 A 
ENDBRANCH  13  15
ENDBRANCH  12  13
ENDBRANCH   1  12
BRANCH   2  21
ATOM     21  C   UNL d   1      52.257  33.325  52.738  0.00  0.00     0.082 C 
BRANCH  21  22
ATOM     22  N   UNL d   1      51.506  33.626  52.737  0.00  0.00    -0.299 N 
ATOM     23  C   UNL d   1      50.966  33.390  53.294  0.00  0.00     0.107 A 
ATOM     24  C   UNL d   1      50.198  33.694  53.296  0.00  0.00     0.142 A 
ATOM     25  O   UNL d   1      49.984  34.240  52.726  0.00  0.00    -0.300 OA
ATOM     26  C   UNL d   1      50.531  34.480  52.161  0.00  0.00     0.142 A 
ATOM     27  C   UNL d   1      51.284  34.172  52.171  0.00  0.00     0.107 A 
ENDBRANCH  21  22
ENDBRANCH   2  21
TORSDOF 5
ENDMDL
MODEL 2
REMARK VINA RESULT:      -9.7      1.064      3.007
REMARK  5 active torsions:
REMARK  status: ('A' for Active; 'I' for Inactive)
REMARK    1  A    between atoms: O_4  and  C_1 
REMARK    2  A    between atoms: C_9  and  C_2 
REMARK    3  A    between atoms: C_5  and  O_4 
REMARK    4  A    between atoms: C_13  and  C_5 
REMARK    5  A    between atoms: N_10  and  C_9 
ROOT
ATOM      1  C   UNL d   1      52.667  32.802  53.449  0.00  0.00     0.122 A 
ATOM      2  C   UNL d   1      53.364  33.220  53.552  0.00  0.00     0.043 A 
ATOM      3  C   UNL d   1      51.971  33.197  53.273  0.00  0.00     0.105 A 
ATOM      4  C   UNL d   1      51.973  34.019  53.199  0.00  0.00     0.030 A 
ATOM      5  C   UNL d   1      52.669  34.437  53.303  0.00  0.00     0.059 A 
ATOM      6  C   UNL d   1      53.365  34.042  53.479  0.00  0.00     0.015 A 
ATOM      7  N   UNL d   1      51.282  32.779  53.171  0.00  0.00    -0.242 NA
ATOM      8 CL   UNL d   1      52.645  35.253  53.225  0.00  0.00    -0.082 Cl
ATOM      9  C   UNL d   1      51.284  34.414  53.025  0.00  0.00     0.004 A 
ATOM     10  C   UNL d   1      50.586  33.174  52.995  0.00  0.00     0.099 A 
ATOM     11  C   UNL d   1      50.587  33.997  52.922  0.00  0.00     0.021 A 
ENDROOT
BRANCH   1  12
ATOM     12  O   UNL d   1      52.655  32.061  53.512  0.00  0.00    -0.271 OA
BRANCH  12  13
ATOM     13  C   UNL d   1      52.832  31.271  53.004  0.00  0.00     0.300 C 
ATOM     14  O   UNL d   1      52.950  31.424  52.025  0.00  0.00    -0.259 OA
BRANCH  13  15
ATOM     15  C   UNL d   1      52.879  30.529  53.364  0.00  0.00     0.064 A 
ATOM     16  C   UNL d   1      52.193  30.077  53.457  0.00  0.00     0.005 A 
ATOM     17  C   UNL d   1      52.243  29.333  53.819  0.00  0.00     0.000 A 
ATOM     18  C   UNL d   1      52.975  29.040  54.089  0.00  0.00     0.000 A 
ATOM     19  C   UNL d   1      53.653  29.502  53.990  0.00  0.00     0.000 A 
ATOM     20  C   UNL d   1      53.603  30.247  53.628  0.00  0.00     0.005 A 
ENDBRANCH  13  15
ENDBRANCH  12  13
ENDBRANCH   1  12
BRANCH   2  21
ATOM     21  C   UNL d   1      54.209  32.968  53.745  0.00  0.00     0.082 C 
BRANCH  21  22
ATOM     22  N   UNL d   1      54.583  33.259  54.401  0.00  0.00    -0.299 N 
ATOM     23  C   UNL d   1      54.299  33.097  55.144  0.00  0.00     0.107 A 
ATOM     24  C   UNL d   1      54.678  33.392  55.816  0.00  0.00     0.142 A 
ATOM     25  O   UNL d   1      55.347  33.853  55.728  0.00  0.00    -0.300 OA
ATOM     26  C   UNL d   1      55.636  34.018  54.975  0.00  0.00     0.142 A 
ATOM     27  C   UNL d   1      55.252  33.720  54.321  0.00  0.00     0.107 A 
ENDBRANCH  21  22
ENDBRANCH   2  21
TORSDOF 5
ENDMDL
MODEL 3
REMARK VINA RESULT:      -9.0      1.413      3.537
REMARK  5 active torsions:
REMARK  status: ('A' for Active; 'I' for Inactive)
REMARK    1  A    between atoms: O_4  and  C_1 
REMARK    2  A    between atoms: C_9  and  C_2 
REMARK    3  A    between atoms: C_5  and  O_4 
REMARK    4  A    between atoms: C_13  and  C_5 
REMARK    5  A    between atoms: N_10  and  C_9 
ROOT
ATOM      1  C   UNL d   1      52.758  33.377  53.591  0.00  0.00     0.122 A 
ATOM      2  C   UNL d   1      53.079  32.665  53.345  0.00  0.00     0.043 A 
ATOM      3  C   UNL d   1      53.131  33.820  54.170  0.00  0.00     0.105 A 
ATOM      4  C   UNL d   1      53.834  33.547  54.507  0.00  0.00     0.030 A 
ATOM      5  C   UNL d   1      54.155  32.835  54.262  0.00  0.00     0.059 A 
ATOM      6  C   UNL d   1      53.782  32.392  53.682  0.00  0.00     0.015 A 
ATOM      7  N   UNL d   1      52.810  34.526  54.412  0.00  0.00    -0.242 NA
ATOM      8 CL   UNL d   1      54.853  32.585  54.611  0.00  0.00    -0.082 Cl
ATOM      9  C   UNL d   1      54.207  33.983  55.083  0.00  0.00     0.004 A 
ATOM     10  C   UNL d   1      53.183  34.968  54.991  0.00  0.00     0.099 A 
ATOM     11  C   UNL d   1      53.886  34.695  55.329  0.00  0.00     0.021 A 
ENDROOT
BRANCH   1  12
ATOM     12  O   UNL d   1      52.127  33.631  53.293  0.00  0.00    -0.271 OA
BRANCH  12  13
ATOM     13  C   UNL d   1      51.814  34.185  52.578  0.00  0.00     0.300 C 
ATOM     14  O   UNL d   1      52.535  34.626  52.049  0.00  0.00    -0.259 OA
BRANCH  13  15
ATOM     15  C   UNL d   1      51.007  34.278  52.428  0.00  0.00     0.064 A 
ATOM     16  C   UNL d   1      50.716  34.133  51.668  0.00  0.00     0.005 A 
ATOM     17  C   UNL d   1      49.906  34.226  51.518  0.00  0.00     0.000 A 
ATOM     18  C   UNL d   1      49.387  34.464  52.125  0.00  0.00     0.000 A 
ATOM     19  C   UNL d   1      49.692  34.607  52.880  0.00  0.00     0.000 A 
ATOM     20  C   UNL d   1      50.502  34.513  53.030  0.00  0.00     0.005 A 
ENDBRANCH  13  15
ENDBRANCH  12  13
ENDBRANCH   1  12
BRANCH   2  21
ATOM     21  C   UNL d   1      52.821  32.051  52.735  0.00  0.00     0.082 C 
BRANCH  21  22
ATOM     22  N   UNL d   1      52.671  31.289  52.959  0.00  0.00    -0.299 N 
ATOM     23  C   UNL d   1      51.982  31.100  53.343  0.00  0.00     0.107 A 
ATOM     24  C   UNL d   1      51.824  30.323  53.574  0.00  0.00     0.142 A 
ATOM     25  O   UNL d   1      52.373  29.739  53.411  0.00  0.00    -0.300 OA
ATOM     26  C   UNL d   1      53.072  29.930  53.022  0.00  0.00     0.142 A 
ATOM     27  C   UNL d   1      53.214  30.700  52.800  0.00  0.00     0.107 A 
ENDBRANCH  21  22
ENDBRANCH   2  21
TORSDOF 5
ENDMDL
MODEL 4
REMARK VINA RESULT:      -7.3      1.537      4.147
REMARK  5 active torsions:
REMARK  status: ('A' for Active; 'I' for Inactive)
REMARK    1  A    between atoms: O_4  and  C_1 
REMARK    2  A    between atoms: C_9  and  C_2 
REMARK    3  A    between atoms: C_5  and  O_4 
REMARK    4  A    between atoms: C_13  and  C_5 
REMARK    5  A    between atoms: N_10  and  C_9 
ROOT
ATOM      1  C   UNL d   1      52.817  32.352  53.322  0.00  0.00     0.122 A 
ATOM      2  C   UNL d   1      53.589  32.573  53.485  0.00  0.00     0.043 A 
ATOM      3  C   UNL d   1      52.621  31.560  53.256  0.00  0.00     0.105 A 
ATOM      4  C   UNL d   1      53.203  30.982  53.354  0.00  0.00     0.030 A 
ATOM      5  C   UNL d   1      53.975  31.203  53.517  0.00  0.00     0.059 A 
ATOM      6  C   UNL d   1      54.171  31.996  53.583  0.00  0.00     0.015 A 
ATOM      7  N   UNL d   1      51.855  31.343  53.095  0.00  0.00    -0.242 NA
ATOM      8 CL   UNL d   1      54.534  30.612  53.610  0.00  0.00    -0.082 Cl
ATOM      9  C   UNL d   1      53.012  30.195  53.289  0.00  0.00     0.004 A 
ATOM     10  C   UNL d   1      51.658  30.551  53.029  0.00  0.00     0.099 A 
ATOM     11  C   UNL d   1      52.241  29.973  53.127  0.00  0.00     0.021 A 
ENDROOT
BRANCH   1  12
ATOM     12  O   UNL d   1      52.286  32.864  53.233  0.00  0.00    -0.271 OA
BRANCH  12  13
ATOM     13  C   UNL d   1      51.952  33.479  52.580  0.00  0.00     0.300 C 
ATOM     14  O   UNL d   1      52.530  33.582  51.774  0.00  0.00    -0.259 OA
BRANCH  13  15
ATOM     15  C   UNL d   1      51.241  33.882  52.694  0.00  0.00     0.064 A 
ATOM     16  C   UNL d   1      50.713  33.964  52.062  0.00  0.00     0.005 A 
ATOM     17  C   UNL d   1      49.999  34.368  52.179  0.00  0.00     0.000 A 
ATOM     18  C   UNL d   1      49.811  34.691  52.924  0.00  0.00     0.000 A 
ATOM     19  C   UNL d   1      50.347  34.602  53.547  0.00  0.00     0.000 A 
ATOM     20  C   UNL d   1      51.061  34.197  53.430  0.00  0.00     0.005 A 
ENDBRANCH  13  15
ENDBRANCH  12  13
ENDBRANCH   1  12
BRANCH   2  21
ATOM     21  C   UNL d   1      53.989  33.376  53.593  0.00  0.00     0.082 C 
BRANCH  21  22
ATOM     22  N   UNL d   1      54.378  33.551  54.280  0.00  0.00    -0.299 N 
ATOM     23  C   UNL d   1      53.968  33.635  54.976  0.00  0.00     0.107 A 
ATOM     24  C   UNL d   1      54.361  33.814  55.679  0.00  0.00     0.142 A 
ATOM     25  O   UNL d   1      55.173  33.906  55.672  0.00  0.00    -0.300 OA
ATOM     26  C   UNL d   1      55.589  33.820  54.967  0.00  0.00     0.142 A 
ATOM     27  C   UNL d   1      55.189  33.644  54.281  0.00  0.00     0.107 A 
ENDBRANCH  21  22
ENDBRANCH   2  21
TORSDOF 5
ENDMDL
