MODEL 1
REMARK VINA RESULT:      -6.2      0.000      0.000
REMARK  4 active torsions:
REMARK  status: ('A' for Active; 'I' for Inactive)
REMARK    1  A    between atoms: C_10  and  N_2 
REMARK    2  A    between atoms: N_6  and  C_3 
REMARK    3  A    between atoms: N_7  and  N_6 
REMARK    4  A    between atoms: C_11  and  N_7 
ROOT
ATOM      1  C   UNL d   1     -41.711-123.004 -50.961  0.00  0.00     0.206 A 
ATOM      2  N   UNL d   1     -41.768-122.559 -50.263  0.00  0.00    -0.209 N 
ATOM      3  C   UNL d   1     -41.457-122.468 -51.549  0.00  0.00     0.160 A 
ATOM      4  N   UNL d   1     -41.563-121.803 -50.411  0.00  0.00    -0.162 NA
ATOM      5  C   UNL d   1     -41.369-121.730 -51.199  0.00  0.00     0.124 A 
ATOM      6  N   UNL d   1     -41.872-123.813 -51.064  0.00  0.00    -0.125 N 
ATOM      7  C   UNL d   1     -41.123-121.035 -51.592  0.00  0.00     0.024 C 
ENDROOT
BRANCH   3   8
ATOM      8  N   UNL d   1     -41.306-122.580 -52.333  0.00  0.00    -0.143 NA
BRANCH   8   9
ATOM      9  N   UNL d   1     -41.867-122.327 -52.902  0.00  0.00    -0.148 NA
BRANCH   9  10
ATOM     10  C   UNL d   1     -41.756-122.532 -53.703  0.00  0.00     0.103 A 
ATOM     11  C   UNL d   1     -42.178-122.141 -54.301  0.00  0.00     0.019 A 
ATOM     12  C   UNL d   1     -42.076-122.334 -55.083  0.00  0.00     0.002 A 
ATOM     13  C   UNL d   1     -42.722-121.534 -54.091  0.00  0.00     0.002 C 
ATOM     14  C   UNL d   1     -42.498-121.944 -55.678  0.00  0.00     0.000 C 
ATOM     15  C   UNL d   1     -41.538-122.933 -55.262  0.00  0.00     0.000 A 
ATOM     16  C   UNL d   1     -41.123-123.318 -54.686  0.00  0.00     0.002 A 
ATOM     17  C   UNL d   1     -41.235-123.113 -53.898  0.00  0.00     0.021 A 
ENDBRANCH   9  10
ENDBRANCH   8   9
ENDBRANCH   3   8
BRANCH   2  18
ATOM     18  C   UNL d   1     -42.012-122.977 -49.599  0.00  0.00     0.085 A 
ATOM     19  C   UNL d   1     -41.457-123.312 -49.110  0.00  0.00     0.019 A 
ATOM     20  C   UNL d   1     -41.710-123.735 -48.437  0.00  0.00     0.002 A 
ATOM     21  C   UNL d   1     -42.488-123.817 -48.262  0.00  0.00     0.000 A 
ATOM     22  C   UNL d   1     -43.058-123.479 -48.755  0.00  0.00     0.002 A 
ATOM     23  C   UNL d   1     -42.836-123.062 -49.417  0.00  0.00     0.019 A 
ENDBRANCH   2  18
TORSDOF 4
ENDMDL
