MODEL 1
REMARK VINA RESULT:      45.0      0.000      0.000
REMARK  2 active torsions:
REMARK  status: ('A' for Active; 'I' for Inactive)
REMARK       I    between atoms: C_3  and  N_1 
REMARK       I    between atoms: C_4  and  N_2 
REMARK    1  A    between atoms: C_6  and  C_3 
REMARK    2  A    between atoms: C_8  and  C_4 
ROOT
ATOM      1  N   UNL d   1      45.658 -13.610  43.830  0.00  0.00    -0.270 N 
ATOM      2  N   UNL d   1      45.991 -15.201  44.149  0.00  0.00    -0.269 N 
ATOM      3  C   UNL d   1      45.493 -12.820  43.672  0.00  0.00     0.265 C 
ATOM      4  C   UNL d   1      46.159 -15.993  44.311  0.00  0.00     0.265 C 
ATOM      5  C   UNL d   1      46.143 -13.814  44.471  0.00  0.00     0.085 A 
ATOM      6  C   UNL d   1      46.314 -14.601  44.636  0.00  0.00     0.101 A 
ATOM      7  C   UNL d   1      45.342 -14.206  43.353  0.00  0.00     0.102 A 
ATOM      8  C   UNL d   1      45.510 -15.008  43.514  0.00  0.00     0.102 A 
ATOM      9  O   UNL d   1      45.811 -12.224  44.152  0.00  0.00    -0.267 OA
ATOM     10  O   UNL d   1      46.646 -16.192  44.955  0.00  0.00    -0.267 OA
ATOM     11  C   UNL d   1      46.464 -13.216  44.955  0.00  0.00     0.021 C 
ENDROOT
BRANCH   3  12
ATOM     12  C   UNL d   1      45.010 -12.620  43.035  0.00  0.00     0.057 A 
ATOM     13  C   UNL d   1      45.346 -12.458  42.298  0.00  0.00     0.005 A 
ATOM     14  C   UNL d   1      44.863 -12.257  41.660  0.00  0.00     0.000 A 
ATOM     15  C   UNL d   1      45.198 -12.095  40.922  0.00  0.00     0.000 C 
ATOM     16  C   UNL d   1      44.046 -12.218  41.760  0.00  0.00     0.000 A 
ATOM     17  C   UNL d   1      43.707 -12.382  42.504  0.00  0.00     0.000 A 
ATOM     18  C   UNL d   1      44.193 -12.581  43.134  0.00  0.00     0.005 A 
ENDBRANCH   3  12
BRANCH   4  19
ATOM     19  C   UNL d   1      45.842 -16.585  43.833  0.00  0.00     0.057 A 
ATOM     20  C   UNL d   1      46.349 -17.081  43.409  0.00  0.00     0.005 A 
ATOM     21  C   UNL d   1      46.033 -17.673  42.932  0.00  0.00     0.000 A 
ATOM     22  C   UNL d   1      46.533 -18.172  42.505  0.00  0.00     0.000 C 
ATOM     23  C   UNL d   1      45.208 -17.769  42.877  0.00  0.00     0.000 A 
ATOM     24  C   UNL d   1      44.709 -17.276  43.298  0.00  0.00     0.000 A 
ATOM     25  C   UNL d   1      45.025 -16.677  43.782  0.00  0.00     0.005 A 
ENDBRANCH   4  19
TORSDOF 2
ENDMDL
