MODEL 1
REMARK VINA RESULT:       1.5      0.000      0.000
REMARK  9 active torsions:
REMARK  status: ('A' for Active; 'I' for Inactive)
REMARK    1  A    between atoms: C_7  and  N_1 
REMARK    2  A    between atoms: C_8  and  C_3 
REMARK    3  A    between atoms: O_9  and  C_6 
REMARK    4  A    between atoms: O_19  and  C_8 
REMARK    5  A    between atoms: C_18  and  O_9 
REMARK    6  A    between atoms: C_10  and  C_18 
REMARK       I    between atoms: N_11  and  C_10 
REMARK    7  A    between atoms: C_14  and  N_11 
REMARK    8  A    between atoms: C_28  and  O_19 
REMARK    9  A    between atoms: O_23  and  C_20 
ROOT
ATOM      1  N   UNL d   1      58.595  -2.627  29.489  0.00  0.00    -0.194 N 
ATOM      2  N   UNL d   1      58.958  -1.938  29.211  0.00  0.00    -0.155 NA
ATOM      3  C   UNL d   1      58.776  -1.216  29.557  0.00  0.00     0.187 A 
ATOM      4  C   UNL d   1      58.053  -2.587  30.110  0.00  0.00     0.282 A 
ATOM      5  C   UNL d   1      57.874  -1.858  30.452  0.00  0.00     0.089 A 
ATOM      6  C   UNL d   1      58.234  -1.176  30.177  0.00  0.00     0.130 A 
ATOM      7  O   UNL d   1      57.691  -3.272  30.386  0.00  0.00    -0.265 OA
ENDROOT
BRANCH   6   8
ATOM      8  O   UNL d   1      58.055  -0.447  30.520  0.00  0.00    -0.298 OA
BRANCH   8   9
ATOM      9  C   UNL d   1      57.288  -0.278  30.759  0.00  0.00     0.185 C 
BRANCH   9  10
ATOM     10  C   UNL d   1      57.151  -0.006  31.528  0.00  0.00     0.304 C 
ATOM     11  N   UNL d   1      56.419  -0.133  31.882  0.00  0.00    -0.206 NA
ATOM     12  O   UNL d   1      57.743   0.389  31.933  0.00  0.00    -0.263 OA
BRANCH  11  13
ATOM     13  C   UNL d   1      56.282   0.140  32.651  0.00  0.00     0.087 A 
ATOM     14  C   UNL d   1      55.523   0.226  32.929  0.00  0.00     0.043 A 
ATOM     15  C   UNL d   1      55.374   0.494  33.688  0.00  0.00     0.096 A 
ATOM     16  C   UNL d   1      56.010   0.681  34.180  0.00  0.00     0.024 A 
ATOM     17  C   UNL d   1      56.782   0.595  33.903  0.00  0.00     0.004 A 
ATOM     18  C   UNL d   1      56.918   0.326  33.142  0.00  0.00     0.019 A 
BRANCH  15  19
ATOM     19  O   UNL d   1      54.604   0.576  33.953  0.00  0.00    -0.328 OA
ATOM     20  C   UNL d   1      54.402   0.295  34.704  0.00  0.00     0.181 C 
ENDBRANCH  15  19
ENDBRANCH  11  13
ENDBRANCH   9  10
ENDBRANCH   8   9
ENDBRANCH   6   8
BRANCH   3  21
ATOM     21  C   UNL d   1      59.135  -0.535  29.282  0.00  0.00     0.322 C 
ATOM     22  O   UNL d   1      58.799  -0.113  28.657  0.00  0.00    -0.257 OA
BRANCH  21  23
ATOM     23  O   UNL d   1      59.839  -0.261  29.625  0.00  0.00    -0.270 OA
BRANCH  23  24
ATOM     24  C   UNL d   1      60.518  -0.180  29.174  0.00  0.00     0.126 C 
ATOM     25  C   UNL d   1      60.867   0.561  29.083  0.00  0.00     0.029 C 
ENDBRANCH  23  24
ENDBRANCH  21  23
ENDBRANCH   3  21
BRANCH   1  26
ATOM     26  C   UNL d   1      58.776  -3.352  29.145  0.00  0.00     0.097 A 
ATOM     27  C   UNL d   1      59.566  -3.626  29.140  0.00  0.00     0.075 A 
ATOM     28 CL   UNL d   1      60.155  -3.170  29.478  0.00  0.00    -0.081 Cl
ATOM     29  C   UNL d   1      59.738  -4.348  28.796  0.00  0.00     0.013 A 
ATOM     30  C   UNL d   1      59.142  -4.809  28.455  0.00  0.00     0.001 A 
ATOM     31  C   UNL d   1      58.358  -4.531  28.464  0.00  0.00     0.002 A 
ATOM     32  C   UNL d   1      58.181  -3.803  28.810  0.00  0.00     0.020 A 
ENDBRANCH   1  26
TORSDOF 9
ENDMDL
MODEL 2
REMARK VINA RESULT:       2.5      1.933      5.832
REMARK  9 active torsions:
REMARK  status: ('A' for Active; 'I' for Inactive)
REMARK    1  A    between atoms: C_7  and  N_1 
REMARK    2  A    between atoms: C_8  and  C_3 
REMARK    3  A    between atoms: O_9  and  C_6 
REMARK    4  A    between atoms: O_19  and  C_8 
REMARK    5  A    between atoms: C_18  and  O_9 
REMARK    6  A    between atoms: C_10  and  C_18 
REMARK       I    between atoms: N_11  and  C_10 
REMARK    7  A    between atoms: C_14  and  N_11 
REMARK    8  A    between atoms: C_28  and  O_19 
REMARK    9  A    between atoms: O_23  and  C_20 
ROOT
ATOM      1  N   UNL d   1      55.930  -0.204  33.472  0.00  0.00    -0.194 N 
ATOM      2  N   UNL d   1      56.565   0.236  33.175  0.00  0.00    -0.155 NA
ATOM      3  C   UNL d   1      56.904   0.024  32.458  0.00  0.00     0.187 A 
ATOM      4  C   UNL d   1      55.641  -0.850  33.048  0.00  0.00     0.282 A 
ATOM      5  C   UNL d   1      55.986  -1.058  32.329  0.00  0.00     0.089 A 
ATOM      6  C   UNL d   1      56.615  -0.623  32.035  0.00  0.00     0.130 A 
ATOM      7  O   UNL d   1      55.009  -1.287  33.344  0.00  0.00    -0.265 OA
ENDROOT
BRANCH   6   8
ATOM      8  O   UNL d   1      56.960  -0.831  31.315  0.00  0.00    -0.298 OA
BRANCH   8   9
ATOM      9  C   UNL d   1      57.258  -1.587  31.200  0.00  0.00     0.185 C 
BRANCH   9  10
ATOM     10  C   UNL d   1      57.667  -1.763  30.503  0.00  0.00     0.304 C 
ATOM     11  N   UNL d   1      58.460  -1.980  30.538  0.00  0.00    -0.206 NA
ATOM     12  O   UNL d   1      57.282  -1.721  29.781  0.00  0.00    -0.263 OA
BRANCH  11  13
ATOM     13  C   UNL d   1      58.869  -2.156  29.842  0.00  0.00     0.087 A 
ATOM     14  C   UNL d   1      59.184  -2.897  29.723  0.00  0.00     0.043 A 
ATOM     15  C   UNL d   1      59.591  -3.083  29.038  0.00  0.00     0.096 A 
ATOM     16  C   UNL d   1      59.683  -2.506  28.456  0.00  0.00     0.024 A 
ATOM     17  C   UNL d   1      59.366  -1.753  28.571  0.00  0.00     0.004 A 
ATOM     18  C   UNL d   1      58.962  -1.579  29.260  0.00  0.00     0.019 A 
BRANCH  15  19
ATOM     19  O   UNL d   1      59.901  -3.834  28.934  0.00  0.00    -0.328 OA
ATOM     20  C   UNL d   1      59.436  -4.419  28.580  0.00  0.00     0.181 C 
ENDBRANCH  15  19
ENDBRANCH  11  13
ENDBRANCH   9  10
ENDBRANCH   8   9
ENDBRANCH   6   8
BRANCH   3  21
ATOM     21  C   UNL d   1      57.532   0.458  32.164  0.00  0.00     0.322 C 
ATOM     22  O   UNL d   1      57.547   0.679  31.369  0.00  0.00    -0.257 OA
BRANCH  21  23
ATOM     23  O   UNL d   1      58.159   0.681  32.659  0.00  0.00    -0.270 OA
BRANCH  23  24
ATOM     24  C   UNL d   1      58.933   0.639  32.396  0.00  0.00     0.126 C 
ATOM     25  C   UNL d   1      59.537   0.440  32.921  0.00  0.00     0.029 C 
ENDBRANCH  23  24
ENDBRANCH  21  23
ENDBRANCH   3  21
BRANCH   1  26
ATOM     26  C   UNL d   1      55.588   0.006  34.190  0.00  0.00     0.097 A 
ATOM     27  C   UNL d   1      54.812   0.318  34.207  0.00  0.00     0.075 A 
ATOM     28 CL   UNL d   1      54.397   0.412  33.508  0.00  0.00    -0.081 Cl
ATOM     29  C   UNL d   1      54.478   0.524  34.925  0.00  0.00     0.013 A 
ATOM     30  C   UNL d   1      54.897   0.429  35.631  0.00  0.00     0.001 A 
ATOM     31  C   UNL d   1      55.669   0.119  35.607  0.00  0.00     0.002 A 
ATOM     32  C   UNL d   1      56.009  -0.091  34.885  0.00  0.00     0.020 A 
ENDBRANCH   1  26
TORSDOF 9
ENDMDL
