MODEL 1
REMARK VINA RESULT:      11.7      0.000      0.000
REMARK  2 active torsions:
REMARK  status: ('A' for Active; 'I' for Inactive)
REMARK    1  A    between atoms: C_6  and  C_4 
REMARK    2  A    between atoms: C_7  and  C_5 
ROOT
ATOM      1  O   UNL d   1      13.965  12.526  -2.638  0.00  0.00    -0.268 OA
ATOM      2  N   UNL d   1      12.850  11.784  -2.570  0.00  0.00    -0.121 NA
ATOM      3  N   UNL d   1      13.204  11.779  -1.819  0.00  0.00    -0.121 NA
ATOM      4  C   UNL d   1      13.890  12.237  -1.865  0.00  0.00     0.204 A 
ATOM      5  C   UNL d   1      13.314  12.239  -3.065  0.00  0.00     0.204 A 
ENDROOT
BRANCH   4   6
ATOM      6  C   UNL d   1      14.421  12.387  -1.244  0.00  0.00     0.046 A 
ATOM      7  C   UNL d   1      14.593  11.800  -0.694  0.00  0.00     0.024 A 
ATOM      8  C   UNL d   1      15.115  11.951  -0.086  0.00  0.00     0.099 A 
ATOM      9  N   UNL d   1      15.471  12.693  -0.021  0.00  0.00    -0.242 NA
ATOM     10  C   UNL d   1      15.306  13.284  -0.563  0.00  0.00     0.099 A 
ATOM     11  C   UNL d   1      14.777  13.128  -1.178  0.00  0.00     0.024 A 
ENDBRANCH   4   6
BRANCH   5  12
ATOM     12  C   UNL d   1      13.166  12.394  -3.870  0.00  0.00     0.043 A 
ATOM     13  C   UNL d   1      12.966  13.153  -4.114  0.00  0.00     0.004 A 
ATOM     14  C   UNL d   1      12.821  13.304  -4.905  0.00  0.00     0.000 A 
ATOM     15  C   UNL d   1      12.876  12.692  -5.457  0.00  0.00     0.000 A 
ATOM     16  C   UNL d   1      13.076  11.932  -5.213  0.00  0.00     0.000 A 
ATOM     17  C   UNL d   1      13.222  11.781  -4.415  0.00  0.00     0.004 A 
ENDBRANCH   5  12
TORSDOF 2
ENDMDL
