MODEL 1
REMARK VINA RESULT:      -4.3      0.000      0.000
REMARK  9 active torsions:
REMARK  status: ('A' for Active; 'I' for Inactive)
REMARK    1  A    between atoms: C_3  and  C_1 
REMARK    2  A    between atoms: N_5  and  C_2 
REMARK    3  A    between atoms: N_4  and  C_3 
REMARK    4  A    between atoms: C_14  and  C_3 
REMARK    5  A    between atoms: C_12  and  N_4 
REMARK       I    between atoms: C_6  and  N_5 
REMARK    6  A    between atoms: C_9  and  C_6 
REMARK    7  A    between atoms: C_7  and  C_12 
REMARK       I    between atoms: N_16  and  C_7 
REMARK    8  A    between atoms: N_8  and  C_17 
REMARK    9  A    between atoms: C_17  and  C_9 
ROOT
ATOM      1  C   UNL d   1     -47.945  12.777  22.977  0.00  0.00     0.036 A 
ATOM      2  C   UNL d   1     -47.171  13.056  23.031  0.00  0.00     0.086 A 
ATOM      3  C   UNL d   1     -48.113  11.985  23.205  0.00  0.00     0.010 A 
ATOM      4  C   UNL d   1     -46.557  12.576  23.304  0.00  0.00     0.020 A 
ATOM      5  C   UNL d   1     -47.500  11.506  23.478  0.00  0.00     0.035 A 
ATOM      6  C   UNL d   1     -46.737  11.803  23.524  0.00  0.00     0.008 A 
ATOM      7 BR   UNL d   1     -47.662  10.745  23.698  0.00  0.00    -0.049 Br
ENDROOT
BRANCH   1   8
ATOM      8  C   UNL d   1     -48.587  13.265  22.696  0.00  0.00     0.083 C 
BRANCH   8   9
ATOM      9  N   UNL d   1     -48.725  13.974  23.096  0.00  0.00    -0.239 NA
BRANCH   9  10
ATOM     10  C   UNL d   1     -49.446  14.144  23.438  0.00  0.00     0.163 C 
BRANCH  10  11
ATOM     11  C   UNL d   1     -49.670  14.928  23.560  0.00  0.00     0.317 C 
ATOM     12  O   UNL d   1     -49.090  15.486  23.664  0.00  0.00    -0.262 OA
ATOM     13  N   UNL d   1     -50.469  15.130  23.574  0.00  0.00    -0.083 NA
ATOM     14  N   UNL d   1     -50.666  15.920  23.698  0.00  0.00    -0.019 N 
ENDBRANCH  10  11
ENDBRANCH   9  10
ENDBRANCH   8   9
BRANCH   8  15
ATOM     15  C   UNL d   1     -49.033  13.038  22.070  0.00  0.00     0.018 A 
ATOM     16  C   UNL d   1     -49.691  12.558  22.194  0.00  0.00     0.002 A 
ATOM     17  C   UNL d   1     -50.149  12.326  21.548  0.00  0.00     0.000 A 
ATOM     18  C   UNL d   1     -49.972  12.558  20.789  0.00  0.00     0.000 A 
ATOM     19  C   UNL d   1     -49.301  13.050  20.654  0.00  0.00     0.000 A 
ATOM     20  C   UNL d   1     -48.835  13.286  21.307  0.00  0.00     0.002 A 
ENDBRANCH   8  15
ENDBRANCH   1   8
BRANCH   2  21
ATOM     21  N   UNL d   1     -47.015  13.839  22.803  0.00  0.00    -0.208 NA
ATOM     22  C   UNL d   1     -46.260  14.026  22.536  0.00  0.00     0.281 C 
ATOM     23  O   UNL d   1     -46.108  14.807  22.310  0.00  0.00    -0.265 OA
BRANCH  22  24
ATOM     24  C   UNL d   1     -45.662  13.459  22.491  0.00  0.00     0.082 C 
BRANCH  24  25
ATOM     25  C   UNL d   1     -44.881  13.686  22.488  0.00  0.00     0.085 C 
BRANCH  25  26
ATOM     26  N   UNL d   1     -44.343  13.246  22.073  0.00  0.00    -0.299 N 
ATOM     27  C   UNL d   1     -43.972  13.570  21.410  0.00  0.00     0.107 A 
ATOM     28  C   UNL d   1     -43.423  13.128  20.982  0.00  0.00     0.142 A 
ATOM     29  O   UNL d   1     -43.248  12.354  21.225  0.00  0.00    -0.300 OA
ATOM     30  C   UNL d   1     -43.616  12.037  21.880  0.00  0.00     0.142 A 
ATOM     31  C   UNL d   1     -44.164  12.481  22.305  0.00  0.00     0.107 A 
ENDBRANCH  25  26
ENDBRANCH  24  25
ENDBRANCH  22  24
ENDBRANCH   2  21
TORSDOF 9
ENDMDL
MODEL 2
REMARK VINA RESULT:      -1.7      5.420      9.462
REMARK  9 active torsions:
REMARK  status: ('A' for Active; 'I' for Inactive)
REMARK    1  A    between atoms: C_3  and  C_1 
REMARK    2  A    between atoms: N_5  and  C_2 
REMARK    3  A    between atoms: N_4  and  C_3 
REMARK    4  A    between atoms: C_14  and  C_3 
REMARK    5  A    between atoms: C_12  and  N_4 
REMARK       I    between atoms: C_6  and  N_5 
REMARK    6  A    between atoms: C_9  and  C_6 
REMARK    7  A    between atoms: C_7  and  C_12 
REMARK       I    between atoms: N_16  and  C_7 
REMARK    8  A    between atoms: N_8  and  C_17 
REMARK    9  A    between atoms: C_17  and  C_9 
ROOT
ATOM      1  C   UNL d   1     -39.186  14.841  19.325  0.00  0.00     0.036 A 
ATOM      2  C   UNL d   1     -39.960  14.822  19.610  0.00  0.00     0.086 A 
ATOM      3  C   UNL d   1     -38.586  15.208  19.787  0.00  0.00     0.010 A 
ATOM      4  C   UNL d   1     -40.159  15.155  20.339  0.00  0.00     0.020 A 
ATOM      5  C   UNL d   1     -38.786  15.541  20.515  0.00  0.00     0.035 A 
ATOM      6  C   UNL d   1     -39.561  15.512  20.780  0.00  0.00     0.008 A 
ATOM      7 BR   UNL d   1     -38.210  15.894  20.958  0.00  0.00    -0.049 Br
ENDROOT
BRANCH   1   8
ATOM      8  C   UNL d   1     -38.969  14.499  18.574  0.00  0.00     0.083 C 
BRANCH   8   9
ATOM      9  N   UNL d   1     -38.903  13.676  18.538  0.00  0.00    -0.239 NA
BRANCH   9  10
ATOM     10  C   UNL d   1     -38.360  13.306  18.054  0.00  0.00     0.163 C 
BRANCH  10  11
ATOM     11  C   UNL d   1     -38.187  12.508  18.163  0.00  0.00     0.317 C 
ATOM     12  O   UNL d   1     -38.094  12.231  18.920  0.00  0.00    -0.262 OA
ATOM     13  N   UNL d   1     -38.113  12.010  17.510  0.00  0.00    -0.083 NA
ATOM     14  N   UNL d   1     -37.940  11.216  17.646  0.00  0.00    -0.019 N 
ENDBRANCH  10  11
ENDBRANCH   9  10
ENDBRANCH   8   9
BRANCH   8  15
ATOM     15  C   UNL d   1     -38.835  14.962  17.933  0.00  0.00     0.018 A 
ATOM     16  C   UNL d   1     -38.075  15.245  17.790  0.00  0.00     0.002 A 
ATOM     17  C   UNL d   1     -37.940  15.721  17.130  0.00  0.00     0.000 A 
ATOM     18  C   UNL d   1     -38.535  15.922  16.613  0.00  0.00     0.000 A 
ATOM     19  C   UNL d   1     -39.315  15.635  16.754  0.00  0.00     0.000 A 
ATOM     20  C   UNL d   1     -39.455  15.152  17.422  0.00  0.00     0.002 A 
ENDBRANCH   8  15
ENDBRANCH   1   8
BRANCH   2  21
ATOM     21  N   UNL d   1     -40.544  14.457  19.148  0.00  0.00    -0.208 NA
ATOM     22  C   UNL d   1     -41.216  14.168  19.522  0.00  0.00     0.281 C 
ATOM     23  O   UNL d   1     -41.797  13.805  19.058  0.00  0.00    -0.265 OA
BRANCH  22  24
ATOM     24  C   UNL d   1     -41.321  14.233  20.338  0.00  0.00     0.082 C 
BRANCH  24  25
ATOM     25  C   UNL d   1     -42.070  14.248  20.655  0.00  0.00     0.085 C 
BRANCH  25  26
ATOM     26  N   UNL d   1     -42.338  13.604  21.067  0.00  0.00    -0.299 N 
ATOM     27  C   UNL d   1     -43.138  13.400  21.034  0.00  0.00     0.107 A 
ATOM     28  C   UNL d   1     -43.419  12.746  21.449  0.00  0.00     0.142 A 
ATOM     29  O   UNL d   1     -42.888  12.295  21.901  0.00  0.00    -0.300 OA
ATOM     30  C   UNL d   1     -42.099  12.499  21.931  0.00  0.00     0.142 A 
ATOM     31  C   UNL d   1     -41.823  13.153  21.515  0.00  0.00     0.107 A 
ENDBRANCH  25  26
ENDBRANCH  24  25
ENDBRANCH  22  24
ENDBRANCH   2  21
TORSDOF 9
ENDMDL
MODEL 3
REMARK VINA RESULT:      -1.4      2.039      5.207
REMARK  9 active torsions:
REMARK  status: ('A' for Active; 'I' for Inactive)
REMARK    1  A    between atoms: C_3  and  C_1 
REMARK    2  A    between atoms: N_5  and  C_2 
REMARK    3  A    between atoms: N_4  and  C_3 
REMARK    4  A    between atoms: C_14  and  C_3 
REMARK    5  A    between atoms: C_12  and  N_4 
REMARK       I    between atoms: C_6  and  N_5 
REMARK    6  A    between atoms: C_9  and  C_6 
REMARK    7  A    between atoms: C_7  and  C_12 
REMARK       I    between atoms: N_16  and  C_7 
REMARK    8  A    between atoms: N_8  and  C_17 
REMARK    9  A    between atoms: C_17  and  C_9 
ROOT
ATOM      1  C   UNL d   1     -46.186  13.042  22.713  0.00  0.00     0.036 A 
ATOM      2  C   UNL d   1     -46.991  12.869  22.665  0.00  0.00     0.086 A 
ATOM      3  C   UNL d   1     -45.944  13.822  22.917  0.00  0.00     0.010 A 
ATOM      4  C   UNL d   1     -47.565  13.444  22.814  0.00  0.00     0.020 A 
ATOM      5  C   UNL d   1     -46.518  14.395  23.065  0.00  0.00     0.035 A 
ATOM      6  C   UNL d   1     -47.313  14.202  23.013  0.00  0.00     0.008 A 
ATOM      7 BR   UNL d   1     -46.286  15.144  23.261  0.00  0.00    -0.049 Br
ENDROOT
BRANCH   1   8
ATOM      8  C   UNL d   1     -45.584  12.456  22.562  0.00  0.00     0.083 C 
BRANCH   8   9
ATOM      9  N   UNL d   1     -45.659  11.729  22.947  0.00  0.00    -0.239 NA
BRANCH   9  10
ATOM     10  C   UNL d   1     -45.109  11.468  23.491  0.00  0.00     0.163 C 
BRANCH  10  11
ATOM     11  C   UNL d   1     -44.983  10.661  23.594  0.00  0.00     0.317 C 
ATOM     12  O   UNL d   1     -45.627  10.177  23.697  0.00  0.00    -0.262 OA
ATOM     13  N   UNL d   1     -44.215  10.360  23.592  0.00  0.00    -0.083 NA
ATOM     14  N   UNL d   1     -44.117   9.549  23.698  0.00  0.00    -0.019 N 
ENDBRANCH  10  11
ENDBRANCH   9  10
ENDBRANCH   8   9
BRANCH   8  15
ATOM     15  C   UNL d   1     -44.973  12.610  22.067  0.00  0.00     0.018 A 
ATOM     16  C   UNL d   1     -44.267  12.905  22.374  0.00  0.00     0.002 A 
ATOM     17  C   UNL d   1     -43.640  13.063  21.862  0.00  0.00     0.000 A 
ATOM     18  C   UNL d   1     -43.695  12.937  21.060  0.00  0.00     0.000 A 
ATOM     19  C   UNL d   1     -44.414  12.636  20.739  0.00  0.00     0.000 A 
ATOM     20  C   UNL d   1     -45.052  12.475  21.256  0.00  0.00     0.002 A 
ENDBRANCH   8  15
ENDBRANCH   1   8
BRANCH   2  21
ATOM     21  N   UNL d   1     -47.219  12.097  22.463  0.00  0.00    -0.208 NA
ATOM     22  C   UNL d   1     -48.017  11.944  22.339  0.00  0.00     0.281 C 
ATOM     23  O   UNL d   1     -48.241  11.175  22.137  0.00  0.00    -0.265 OA
BRANCH  22  24
ATOM     24  C   UNL d   1     -48.589  12.536  22.410  0.00  0.00     0.082 C 
BRANCH  24  25
ATOM     25  C   UNL d   1     -49.377  12.340  22.458  0.00  0.00     0.085 C 
BRANCH  25  26
ATOM     26  N   UNL d   1     -49.932  12.873  22.207  0.00  0.00    -0.299 N 
ATOM     27  C   UNL d   1     -50.479  13.180  22.744  0.00  0.00     0.107 A 
ATOM     28  C   UNL d   1     -51.048  13.723  22.496  0.00  0.00     0.142 A 
ATOM     29  O   UNL d   1     -51.064  13.957  21.701  0.00  0.00    -0.300 OA
ATOM     30  C   UNL d   1     -50.523  13.653  21.173  0.00  0.00     0.142 A 
ATOM     31  C   UNL d   1     -49.956  13.111  21.423  0.00  0.00     0.107 A 
ENDBRANCH  25  26
ENDBRANCH  24  25
ENDBRANCH  22  24
ENDBRANCH   2  21
TORSDOF 9
ENDMDL
