MODEL 1
REMARK VINA RESULT:      11.8      0.000      0.000
REMARK  4 active torsions:
REMARK  status: ('A' for Active; 'I' for Inactive)
REMARK    1  A    between atoms: C_6  and  C_1 
REMARK       I    between atoms: N_9  and  C_6 
REMARK    2  A    between atoms: C_13  and  N_9 
REMARK    3  A    between atoms: O_12  and  C_14 
REMARK    4  A    between atoms: C_14  and  C_13 
ROOT
ATOM      1  C   UNL d   1     -50.620  25.140  33.308  0.00  0.00     0.084 A 
ATOM      2  C   UNL d   1     -49.827  25.377  33.307  0.00  0.00     0.137 A 
ATOM      3  S   UNL d   1     -49.810  26.203  33.308  0.00  0.00    -0.066 SA
ATOM      4  C   UNL d   1     -51.086  25.816  33.309  0.00  0.00     0.013 A 
ATOM      5  C   UNL d   1     -50.592  26.470  33.309  0.00  0.00     0.031 A 
ATOM      6  N   UNL d   1     -49.166  24.875  33.306  0.00  0.00    -0.141 N 
ATOM      7  C   UNL d   1     -51.906  25.922  33.310  0.00  0.00     0.001 A 
ATOM      8  C   UNL d   1     -50.902  27.236  33.309  0.00  0.00     0.006 A 
ATOM      9  C   UNL d   1     -52.219  26.687  33.311  0.00  0.00     0.000 A 
ATOM     10  C   UNL d   1     -51.717  27.340  33.310  0.00  0.00     0.001 A 
ENDROOT
BRANCH   1  11
ATOM     11  C   UNL d   1     -50.887  24.356  33.308  0.00  0.00     0.281 C 
ATOM     12  O   UNL d   1     -50.342  23.738  33.310  0.00  0.00    -0.265 OA
ATOM     13  N   UNL d   1     -51.693  24.188  33.306  0.00  0.00    -0.204 NA
BRANCH  13  14
ATOM     14  C   UNL d   1     -51.959  23.406  33.306  0.00  0.00     0.128 C 
BRANCH  14  15
ATOM     15  C   UNL d   1     -52.766  23.239  33.311  0.00  0.00     0.137 C 
BRANCH  15  16
ATOM     16  O   UNL d   1     -53.189  23.257  34.017  0.00  0.00    -0.325 OA
ATOM     17  C   UNL d   1     -54.011  23.189  34.012  0.00  0.00     0.182 C 
ENDBRANCH  15  16
ENDBRANCH  14  15
ENDBRANCH  13  14
ENDBRANCH   1  11
TORSDOF 4
ENDMDL
