MODEL 1
REMARK VINA RESULT:      -2.2      0.000      0.000
REMARK  2 active torsions:
REMARK  status: ('A' for Active; 'I' for Inactive)
REMARK    1  A    between atoms: N_2  and  C_1 
REMARK    2  A    between atoms: C_5  and  N_2 
ROOT
ATOM      1  C   UNL d   1      30.492  16.228 -23.925  0.00  0.00     0.084 A 
ATOM      2  C   UNL d   1      30.368  16.913 -24.366  0.00  0.00     0.019 A 
ATOM      3  C   UNL d   1      31.197  16.109 -23.527  0.00  0.00     0.019 A 
ATOM      4  C   UNL d   1      31.794  16.678 -23.566  0.00  0.00     0.001 A 
ATOM      5  C   UNL d   1      30.963  17.485 -24.408  0.00  0.00     0.001 A 
ATOM      6  C   UNL d   1      31.678  17.373 -24.010  0.00  0.00     0.000 A 
ENDROOT
BRANCH   1   7
ATOM      7  N   UNL d   1      29.900  15.655 -23.881  0.00  0.00    -0.216 NA
BRANCH   7   8
ATOM      8  C   UNL d   1      29.304  15.716 -23.322  0.00  0.00     0.241 C 
ATOM      9  S   UNL d   1      28.564  16.008 -23.524  0.00  0.00    -0.036 SA
ATOM     10  N   UNL d   1      29.450  15.480 -22.542  0.00  0.00    -0.114 N 
ENDBRANCH   7   8
ENDBRANCH   1   7
TORSDOF 2
ENDMDL
MODEL 2
REMARK VINA RESULT:      -2.1      1.545      2.599
REMARK  2 active torsions:
REMARK  status: ('A' for Active; 'I' for Inactive)
REMARK    1  A    between atoms: N_2  and  C_1 
REMARK    2  A    between atoms: C_5  and  N_2 
ROOT
ATOM      1  C   UNL d   1      30.192  16.106 -23.874  0.00  0.00     0.084 A 
ATOM      2  C   UNL d   1      30.249  15.634 -23.202  0.00  0.00     0.019 A 
ATOM      3  C   UNL d   1      29.469  16.399 -24.120  0.00  0.00     0.019 A 
ATOM      4  C   UNL d   1      28.785  16.222 -23.692  0.00  0.00     0.001 A 
ATOM      5  C   UNL d   1      29.568  15.454 -22.770  0.00  0.00     0.001 A 
ATOM      6  C   UNL d   1      28.833  15.745 -23.010  0.00  0.00     0.000 A 
ENDROOT
BRANCH   1   7
ATOM      7  N   UNL d   1      30.870  16.288 -24.308  0.00  0.00    -0.216 NA
BRANCH   7   8
ATOM      8  C   UNL d   1      31.334  16.931 -24.102  0.00  0.00     0.241 C 
ATOM      9  S   UNL d   1      32.027  16.833 -23.674  0.00  0.00    -0.036 SA
ATOM     10  N   UNL d   1      31.100  17.691 -24.330  0.00  0.00    -0.114 N 
ENDBRANCH   7   8
ENDBRANCH   1   7
TORSDOF 2
ENDMDL
