MODEL 1
REMARK VINA RESULT:      -7.5      0.000      0.000
REMARK  3 active torsions:
REMARK  status: ('A' for Active; 'I' for Inactive)
REMARK    1  A    between atoms: C_9  and  N_1 
REMARK    2  A    between atoms: C_5  and  C_9 
REMARK       I    between atoms: N_8  and  C_5 
REMARK    3  A    between atoms: O_14  and  C_12 
ROOT
ATOM      1  N   UNL d   1     -47.280  12.958  22.858  0.00  0.00    -0.268 N 
ATOM      2  C   UNL d   1     -47.428  13.764  22.893  0.00  0.00     0.265 A 
ATOM      3  C   UNL d   1     -48.199  14.044  22.776  0.00  0.00     0.059 A 
ATOM      4  C   UNL d   1     -48.812  13.515  22.626  0.00  0.00     0.028 A 
ATOM      5  C   UNL d   1     -48.663  12.708  22.591  0.00  0.00     0.021 A 
ATOM      6  C   UNL d   1     -47.901  12.427  22.706  0.00  0.00     0.083 A 
ATOM      7  O   UNL d   1     -46.816  14.294  23.043  0.00  0.00    -0.267 OA
ATOM      8  C   UNL d   1     -49.577  13.798  22.511  0.00  0.00     0.094 A 
ATOM      9  C   UNL d   1     -48.342  14.855  22.813  0.00  0.00     0.005 A 
ATOM     10  C   UNL d   1     -49.110  15.143  22.697  0.00  0.00     0.002 A 
ATOM     11  C   UNL d   1     -49.724  14.617  22.547  0.00  0.00     0.024 A 
ENDROOT
BRANCH   1  12
ATOM     12  C   UNL d   1     -46.518  12.678  22.973  0.00  0.00     0.144 C 
BRANCH  12  13
ATOM     13  C   UNL d   1     -46.393  11.927  23.309  0.00  0.00     0.283 C 
ATOM     14  N   UNL d   1     -45.653  11.576  23.246  0.00  0.00    -0.271 N 
ATOM     15  C   UNL d   1     -45.608  10.805  23.619  0.00  0.00     0.083 A 
ATOM     16  C   UNL d   1     -45.153  11.986  22.878  0.00  0.00     0.083 A 
ATOM     17  C   UNL d   1     -45.089  10.313  23.698  0.00  0.00     0.019 A 
ATOM     18  C   UNL d   1     -44.301  10.356  23.421  0.00  0.00     0.002 A 
ATOM     19  C   UNL d   1     -43.947  11.027  22.969  0.00  0.00     0.002 A 
ATOM     20  C   UNL d   1     -44.339  11.786  22.715  0.00  0.00     0.019 A 
ATOM     21  O   UNL d   1     -46.994  11.542  23.698  0.00  0.00    -0.265 OA
ENDBRANCH  12  13
ENDBRANCH   1  12
BRANCH   8  22
ATOM     22  O   UNL d   1     -50.196  13.280  22.360  0.00  0.00    -0.328 OA
ATOM     23  C   UNL d   1     -50.940  13.568  22.186  0.00  0.00     0.181 C 
ENDBRANCH   8  22
TORSDOF 3
ENDMDL
MODEL 2
REMARK VINA RESULT:      -7.4      0.866      1.710
REMARK  3 active torsions:
REMARK  status: ('A' for Active; 'I' for Inactive)
REMARK    1  A    between atoms: C_9  and  N_1 
REMARK    2  A    between atoms: C_5  and  C_9 
REMARK       I    between atoms: N_8  and  C_5 
REMARK    3  A    between atoms: O_14  and  C_12 
ROOT
ATOM      1  N   UNL d   1     -47.336  12.190  23.243  0.00  0.00    -0.268 N 
ATOM      2  C   UNL d   1     -48.087  11.876  23.137  0.00  0.00     0.265 A 
ATOM      3  C   UNL d   1     -48.725  12.384  22.991  0.00  0.00     0.059 A 
ATOM      4  C   UNL d   1     -48.605  13.197  22.953  0.00  0.00     0.028 A 
ATOM      5  C   UNL d   1     -47.853  13.511  23.060  0.00  0.00     0.021 A 
ATOM      6  C   UNL d   1     -47.219  13.011  23.204  0.00  0.00     0.083 A 
ATOM      7  O   UNL d   1     -48.208  11.063  23.174  0.00  0.00    -0.267 OA
ATOM      8  C   UNL d   1     -49.243  13.697  22.808  0.00  0.00     0.094 A 
ATOM      9  C   UNL d   1     -49.477  12.063  22.885  0.00  0.00     0.005 A 
ATOM     10  C   UNL d   1     -50.120  12.563  22.738  0.00  0.00     0.002 A 
ATOM     11  C   UNL d   1     -50.004  13.376  22.700  0.00  0.00     0.024 A 
ENDROOT
BRANCH   1  12
ATOM     12  C   UNL d   1     -46.701  11.690  23.388  0.00  0.00     0.144 C 
BRANCH  12  13
ATOM     13  C   UNL d   1     -45.935  11.904  23.146  0.00  0.00     0.283 C 
ATOM     14  N   UNL d   1     -45.320  11.366  23.233  0.00  0.00    -0.271 N 
ATOM     15  C   UNL d   1     -44.564  11.664  22.960  0.00  0.00     0.083 A 
ATOM     16  C   UNL d   1     -45.526  10.717  23.533  0.00  0.00     0.083 A 
ATOM     17  C   UNL d   1     -43.898  11.395  22.930  0.00  0.00     0.019 A 
ATOM     18  C   UNL d   1     -43.643  10.638  23.178  0.00  0.00     0.002 A 
ATOM     19  C   UNL d   1     -44.154  10.010  23.531  0.00  0.00     0.002 A 
ATOM     20  C   UNL d   1     -45.029  10.042  23.698  0.00  0.00     0.019 A 
ATOM     21  O   UNL d   1     -45.791  12.637  22.826  0.00  0.00    -0.265 OA
ENDBRANCH  12  13
ENDBRANCH   1  12
BRANCH   8  22
ATOM     22  O   UNL d   1     -49.136  14.511  22.768  0.00  0.00    -0.328 OA
ATOM     23  C   UNL d   1     -49.778  15.006  22.669  0.00  0.00     0.181 C 
ENDBRANCH   8  22
TORSDOF 3
ENDMDL
MODEL 3
REMARK VINA RESULT:      -7.3      1.219      4.891
REMARK  3 active torsions:
REMARK  status: ('A' for Active; 'I' for Inactive)
REMARK    1  A    between atoms: C_9  and  N_1 
REMARK    2  A    between atoms: C_5  and  C_9 
REMARK       I    between atoms: N_8  and  C_5 
REMARK    3  A    between atoms: O_14  and  C_12 
ROOT
ATOM      1  N   UNL d   1     -47.635  13.286  22.913  0.00  0.00    -0.268 N 
ATOM      2  C   UNL d   1     -47.399  12.573  23.243  0.00  0.00     0.265 A 
ATOM      3  C   UNL d   1     -46.618  12.315  23.145  0.00  0.00     0.059 A 
ATOM      4  C   UNL d   1     -46.083  12.773  22.718  0.00  0.00     0.028 A 
ATOM      5  C   UNL d   1     -46.320  13.486  22.387  0.00  0.00     0.021 A 
ATOM      6  C   UNL d   1     -47.092  13.745  22.483  0.00  0.00     0.083 A 
ATOM      7  O   UNL d   1     -47.933  12.115  23.670  0.00  0.00    -0.267 OA
ATOM      8  C   UNL d   1     -45.308  12.511  22.623  0.00  0.00     0.094 A 
ATOM      9  C   UNL d   1     -46.387  11.598  23.479  0.00  0.00     0.005 A 
ATOM     10  C   UNL d   1     -45.608  11.333  23.385  0.00  0.00     0.002 A 
ATOM     11  C   UNL d   1     -45.071  11.787  22.960  0.00  0.00     0.024 A 
ENDROOT
BRANCH   1  12
ATOM     12  C   UNL d   1     -48.408  13.544  23.008  0.00  0.00     0.144 C 
BRANCH  12  13
ATOM     13  C   UNL d   1     -48.579  14.358  23.024  0.00  0.00     0.283 C 
ATOM     14  N   UNL d   1     -49.336  14.606  23.226  0.00  0.00    -0.271 N 
ATOM     15  C   UNL d   1     -49.429  15.459  23.218  0.00  0.00     0.083 A 
ATOM     16  C   UNL d   1     -49.806  14.050  23.379  0.00  0.00     0.083 A 
ATOM     17  C   UNL d   1     -49.976  15.907  23.353  0.00  0.00     0.019 A 
ATOM     18  C   UNL d   1     -50.756  15.705  23.579  0.00  0.00     0.002 A 
ATOM     19  C   UNL d   1     -51.064  14.887  23.698  0.00  0.00     0.002 A 
ATOM     20  C   UNL d   1     -50.627  14.115  23.606  0.00  0.00     0.019 A 
ATOM     21  O   UNL d   1     -48.007  14.906  22.842  0.00  0.00    -0.265 OA
ENDBRANCH  12  13
ENDBRANCH   1  12
BRANCH   8  22
ATOM     22  O   UNL d   1     -44.765  12.959  22.199  0.00  0.00    -0.328 OA
ATOM     23  C   UNL d   1     -44.137  12.597  21.824  0.00  0.00     0.181 C 
ENDBRANCH   8  22
TORSDOF 3
ENDMDL
MODEL 4
REMARK VINA RESULT:      -6.8      1.164      2.070
REMARK  3 active torsions:
REMARK  status: ('A' for Active; 'I' for Inactive)
REMARK    1  A    between atoms: C_9  and  N_1 
REMARK    2  A    between atoms: C_5  and  C_9 
REMARK       I    between atoms: N_8  and  C_5 
REMARK    3  A    between atoms: O_14  and  C_12 
ROOT
ATOM      1  N   UNL d   1     -48.160  13.290  23.109  0.00  0.00    -0.268 N 
ATOM      2  C   UNL d   1     -48.850  12.846  23.108  0.00  0.00     0.265 A 
ATOM      3  C   UNL d   1     -49.583  13.229  23.166  0.00  0.00     0.059 A 
ATOM      4  C   UNL d   1     -49.617  14.049  23.224  0.00  0.00     0.028 A 
ATOM      5  C   UNL d   1     -48.926  14.493  23.225  0.00  0.00     0.021 A 
ATOM      6  C   UNL d   1     -48.198  14.118  23.168  0.00  0.00     0.083 A 
ATOM      7  O   UNL d   1     -48.818  12.025  23.051  0.00  0.00    -0.267 OA
ATOM      8  C   UNL d   1     -50.348  14.424  23.281  0.00  0.00     0.094 A 
ATOM      9  C   UNL d   1     -50.272  12.777  23.165  0.00  0.00     0.005 A 
ATOM     10  C   UNL d   1     -51.009  13.151  23.222  0.00  0.00     0.002 A 
ATOM     11  C   UNL d   1     -51.046  13.970  23.280  0.00  0.00     0.024 A 
ENDROOT
BRANCH   1  12
ATOM     12  C   UNL d   1     -47.433  12.915  23.052  0.00  0.00     0.144 C 
BRANCH  12  13
ATOM     13  C   UNL d   1     -46.815  13.261  22.616  0.00  0.00     0.283 C 
ATOM     14  N   UNL d   1     -46.087  12.882  22.580  0.00  0.00    -0.271 N 
ATOM     15  C   UNL d   1     -45.506  13.304  22.110  0.00  0.00     0.083 A 
ATOM     16  C   UNL d   1     -46.059  12.243  22.959  0.00  0.00     0.083 A 
ATOM     17  C   UNL d   1     -44.819  13.184  21.932  0.00  0.00     0.019 A 
ATOM     18  C   UNL d   1     -44.342  12.534  22.154  0.00  0.00     0.002 A 
ATOM     19  C   UNL d   1     -44.594  11.855  22.660  0.00  0.00     0.002 A 
ATOM     20  C   UNL d   1     -45.390  11.716  23.036  0.00  0.00     0.019 A 
ATOM     21  O   UNL d   1     -46.927  13.966  22.227  0.00  0.00    -0.265 OA
ENDBRANCH  12  13
ENDBRANCH   1  12
BRANCH   8  22
ATOM     22  O   UNL d   1     -50.394  15.242  23.339  0.00  0.00    -0.328 OA
ATOM     23  C   UNL d   1     -51.064  15.595  23.645  0.00  0.00     0.181 C 
ENDBRANCH   8  22
TORSDOF 3
ENDMDL
MODEL 5
REMARK VINA RESULT:      -6.6      8.367      8.975
REMARK  3 active torsions:
REMARK  status: ('A' for Active; 'I' for Inactive)
REMARK    1  A    between atoms: C_9  and  N_1 
REMARK    2  A    between atoms: C_5  and  C_9 
REMARK       I    between atoms: N_8  and  C_5 
REMARK    3  A    between atoms: O_14  and  C_12 
ROOT
ATOM      1  N   UNL d   1     -39.748  14.691  19.545  0.00  0.00    -0.268 N 
ATOM      2  C   UNL d   1     -39.402  14.394  18.864  0.00  0.00     0.265 A 
ATOM      3  C   UNL d   1     -39.701  14.615  18.123  0.00  0.00     0.059 A 
ATOM      4  C   UNL d   1     -40.342  15.130  18.074  0.00  0.00     0.028 A 
ATOM      5  C   UNL d   1     -40.688  15.427  18.757  0.00  0.00     0.021 A 
ATOM      6  C   UNL d   1     -40.394  15.210  19.492  0.00  0.00     0.083 A 
ATOM      7  O   UNL d   1     -38.761  13.879  18.912  0.00  0.00    -0.267 OA
ATOM      8  C   UNL d   1     -40.635  15.346  17.335  0.00  0.00     0.094 A 
ATOM      9  C   UNL d   1     -39.349  14.313  17.442  0.00  0.00     0.005 A 
ATOM     10  C   UNL d   1     -39.642  14.529  16.698  0.00  0.00     0.002 A 
ATOM     11  C   UNL d   1     -40.281  15.042  16.645  0.00  0.00     0.024 A 
ENDROOT
BRANCH   1  12
ATOM     12  C   UNL d   1     -39.454  14.475  20.280  0.00  0.00     0.144 C 
BRANCH  12  13
ATOM     13  C   UNL d   1     -39.334  15.049  20.870  0.00  0.00     0.283 C 
ATOM     14  N   UNL d   1     -39.129  14.809  21.629  0.00  0.00    -0.271 N 
ATOM     15  C   UNL d   1     -39.023  15.462  22.176  0.00  0.00     0.083 A 
ATOM     16  C   UNL d   1     -39.071  14.072  21.709  0.00  0.00     0.083 A 
ATOM     17  C   UNL d   1     -38.849  15.512  22.872  0.00  0.00     0.019 A 
ATOM     18  C   UNL d   1     -38.683  14.886  23.402  0.00  0.00     0.002 A 
ATOM     19  C   UNL d   1     -38.689  14.026  23.204  0.00  0.00     0.002 A 
ATOM     20  C   UNL d   1     -38.869  13.643  22.419  0.00  0.00     0.019 A 
ATOM     21  O   UNL d   1     -39.417  15.840  20.702  0.00  0.00    -0.265 OA
ENDBRANCH  12  13
ENDBRANCH   1  12
BRANCH   8  22
ATOM     22  O   UNL d   1     -41.274  15.859  17.273  0.00  0.00    -0.328 OA
ATOM     23  C   UNL d   1     -41.683  15.922  16.570  0.00  0.00     0.181 C 
ENDBRANCH   8  22
TORSDOF 3
ENDMDL
MODEL 6
REMARK VINA RESULT:      -6.3      8.023      9.767
REMARK  3 active torsions:
REMARK  status: ('A' for Active; 'I' for Inactive)
REMARK    1  A    between atoms: C_9  and  N_1 
REMARK    2  A    between atoms: C_5  and  C_9 
REMARK       I    between atoms: N_8  and  C_5 
REMARK    3  A    between atoms: O_14  and  C_12 
ROOT
ATOM      1  N   UNL d   1     -39.494  15.094  18.691  0.00  0.00    -0.268 N 
ATOM      2  C   UNL d   1     -40.107  15.504  19.049  0.00  0.00     0.265 A 
ATOM      3  C   UNL d   1     -40.177  15.497  19.875  0.00  0.00     0.059 A 
ATOM      4  C   UNL d   1     -39.634  15.081  20.331  0.00  0.00     0.028 A 
ATOM      5  C   UNL d   1     -39.020  14.670  19.973  0.00  0.00     0.021 A 
ATOM      6  C   UNL d   1     -38.947  14.674  19.155  0.00  0.00     0.083 A 
ATOM      7  O   UNL d   1     -40.651  15.921  18.593  0.00  0.00    -0.267 OA
ATOM      8  C   UNL d   1     -39.708  15.077  21.152  0.00  0.00     0.094 A 
ATOM      9  C   UNL d   1     -40.796  15.912  20.228  0.00  0.00     0.005 A 
ATOM     10  C   UNL d   1     -40.873  15.910  21.053  0.00  0.00     0.002 A 
ATOM     11  C   UNL d   1     -40.332  15.495  21.512  0.00  0.00     0.024 A 
ENDROOT
BRANCH   1  12
ATOM     12  C   UNL d   1     -39.421  15.098  17.874  0.00  0.00     0.144 C 
BRANCH  12  13
ATOM     13  C   UNL d   1     -39.195  14.408  17.469  0.00  0.00     0.283 C 
ATOM     14  N   UNL d   1     -38.798  14.473  16.752  0.00  0.00    -0.271 N 
ATOM     15  C   UNL d   1     -38.601  13.716  16.401  0.00  0.00     0.083 A 
ATOM     16  C   UNL d   1     -38.679  15.175  16.535  0.00  0.00     0.083 A 
ATOM     17  C   UNL d   1     -38.266  13.513  15.797  0.00  0.00     0.019 A 
ATOM     18  C   UNL d   1     -37.940  14.006  15.205  0.00  0.00     0.002 A 
ATOM     19  C   UNL d   1     -37.943  14.890  15.208  0.00  0.00     0.002 A 
ATOM     20  C   UNL d   1     -38.285  15.436  15.823  0.00  0.00     0.019 A 
ATOM     21  O   UNL d   1     -39.362  13.674  17.775  0.00  0.00    -0.265 OA
ENDBRANCH  12  13
ENDBRANCH   1  12
BRANCH   8  22
ATOM     22  O   UNL d   1     -39.172  14.665  21.618  0.00  0.00    -0.328 OA
ATOM     23  C   UNL d   1     -39.184  14.749  22.430  0.00  0.00     0.181 C 
ENDBRANCH   8  22
TORSDOF 3
ENDMDL
MODEL 7
REMARK VINA RESULT:      -6.2      8.402     10.497
REMARK  3 active torsions:
REMARK  status: ('A' for Active; 'I' for Inactive)
REMARK    1  A    between atoms: C_9  and  N_1 
REMARK    2  A    between atoms: C_5  and  C_9 
REMARK       I    between atoms: N_8  and  C_5 
REMARK    3  A    between atoms: O_14  and  C_12 
ROOT
ATOM      1  N   UNL d   1     -39.127  14.828  17.767  0.00  0.00    -0.268 N 
ATOM      2  C   UNL d   1     -38.869  14.165  17.359  0.00  0.00     0.265 A 
ATOM      3  C   UNL d   1     -38.558  14.251  16.595  0.00  0.00     0.059 A 
ATOM      4  C   UNL d   1     -38.511  14.996  16.250  0.00  0.00     0.028 A 
ATOM      5  C   UNL d   1     -38.769  15.660  16.659  0.00  0.00     0.021 A 
ATOM      6  C   UNL d   1     -39.077  15.579  17.415  0.00  0.00     0.083 A 
ATOM      7  O   UNL d   1     -38.916  13.419  17.703  0.00  0.00    -0.267 OA
ATOM      8  C   UNL d   1     -38.201  15.075  15.491  0.00  0.00     0.094 A 
ATOM      9  C   UNL d   1     -38.300  13.581  16.190  0.00  0.00     0.005 A 
ATOM     10  C   UNL d   1     -37.989  13.657  15.426  0.00  0.00     0.002 A 
ATOM     11  C   UNL d   1     -37.940  14.400  15.079  0.00  0.00     0.024 A 
ENDROOT
BRANCH   1  12
ATOM     12  C   UNL d   1     -39.435  14.748  18.523  0.00  0.00     0.144 C 
BRANCH  12  13
ATOM     13  C   UNL d   1     -40.133  15.146  18.737  0.00  0.00     0.283 C 
ATOM     14  N   UNL d   1     -40.294  15.278  19.532  0.00  0.00    -0.271 N 
ATOM     15  C   UNL d   1     -41.032  15.694  19.666  0.00  0.00     0.083 A 
ATOM     16  C   UNL d   1     -39.775  15.013  19.994  0.00  0.00     0.083 A 
ATOM     17  C   UNL d   1     -41.383  15.919  20.252  0.00  0.00     0.019 A 
ATOM     18  C   UNL d   1     -41.151  15.832  21.051  0.00  0.00     0.002 A 
ATOM     19  C   UNL d   1     -40.413  15.438  21.334  0.00  0.00     0.002 A 
ATOM     20  C   UNL d   1     -39.771  15.056  20.847  0.00  0.00     0.019 A 
ATOM     21  O   UNL d   1     -40.653  15.405  18.168  0.00  0.00    -0.265 OA
ENDBRANCH  12  13
ENDBRANCH   1  12
BRANCH   8  22
ATOM     22  O   UNL d   1     -38.148  15.815  15.135  0.00  0.00    -0.328 OA
ATOM     23  C   UNL d   1     -37.969  15.877  14.341  0.00  0.00     0.181 C 
ENDBRANCH   8  22
TORSDOF 3
ENDMDL
MODEL 8
REMARK VINA RESULT:      -5.9      8.576      9.627
REMARK  3 active torsions:
REMARK  status: ('A' for Active; 'I' for Inactive)
REMARK    1  A    between atoms: C_9  and  N_1 
REMARK    2  A    between atoms: C_5  and  C_9 
REMARK       I    between atoms: N_8  and  C_5 
REMARK    3  A    between atoms: O_14  and  C_12 
ROOT
ATOM      1  N   UNL d   1     -39.193  14.840  19.990  0.00  0.00    -0.268 N 
ATOM      2  C   UNL d   1     -38.829  14.169  20.290  0.00  0.00     0.265 A 
ATOM      3  C   UNL d   1     -38.681  14.113  21.104  0.00  0.00     0.059 A 
ATOM      4  C   UNL d   1     -38.899  14.727  21.606  0.00  0.00     0.028 A 
ATOM      5  C   UNL d   1     -39.264  15.399  21.305  0.00  0.00     0.021 A 
ATOM      6  C   UNL d   1     -39.411  15.459  20.501  0.00  0.00     0.083 A 
ATOM      7  O   UNL d   1     -38.611  13.554  19.789  0.00  0.00    -0.267 OA
ATOM      8  C   UNL d   1     -38.750  14.666  22.414  0.00  0.00     0.094 A 
ATOM      9  C   UNL d   1     -38.315  13.435  21.399  0.00  0.00     0.005 A 
ATOM     10  C   UNL d   1     -38.164  13.371  22.211  0.00  0.00     0.002 A 
ATOM     11  C   UNL d   1     -38.381  13.983  22.715  0.00  0.00     0.024 A 
ENDROOT
BRANCH   1  12
ATOM     12  C   UNL d   1     -39.341  14.900  19.186  0.00  0.00     0.144 C 
BRANCH  12  13
ATOM     13  C   UNL d   1     -40.076  15.178  18.913  0.00  0.00     0.283 C 
ATOM     14  N   UNL d   1     -40.165  15.368  18.119  0.00  0.00    -0.271 N 
ATOM     15  C   UNL d   1     -40.951  15.646  17.921  0.00  0.00     0.083 A 
ATOM     16  C   UNL d   1     -39.550  15.267  17.712  0.00  0.00     0.083 A 
ATOM     17  C   UNL d   1     -41.269  15.867  17.314  0.00  0.00     0.019 A 
ATOM     18  C   UNL d   1     -40.930  15.922  16.552  0.00  0.00     0.002 A 
ATOM     19  C   UNL d   1     -40.098  15.715  16.340  0.00  0.00     0.002 A 
ATOM     20  C   UNL d   1     -39.454  15.410  16.875  0.00  0.00     0.019 A 
ATOM     21  O   UNL d   1     -40.702  15.261  19.424  0.00  0.00    -0.265 OA
ENDBRANCH  12  13
ENDBRANCH   1  12
BRANCH   8  22
ATOM     22  O   UNL d   1     -38.963  15.273  22.926  0.00  0.00    -0.328 OA
ATOM     23  C   UNL d   1     -38.698  15.271  23.698  0.00  0.00     0.181 C 
ENDBRANCH   8  22
TORSDOF 3
ENDMDL
