MODEL 1
REMARK VINA RESULT:      -5.3      0.000      0.000
REMARK  5 active torsions:
REMARK  status: ('A' for Active; 'I' for Inactive)
REMARK    1  A    between atoms: C_2  and  S_1 
REMARK    2  A    between atoms: N_4  and  S_1 
REMARK    3  A    between atoms: C_3  and  N_5 
REMARK    4  A    between atoms: O_26  and  C_14 
REMARK    5  A    between atoms: O_27  and  C_24 
ROOT
ATOM      1  N   UNL d   1      57.570  -0.504  31.174  0.00  0.00    -0.226 N 
ATOM      2  N   UNL d   1      56.706  -0.062  32.499  0.00  0.00    -0.319 N 
ATOM      3  C   UNL d   1      56.893  -0.922  31.379  0.00  0.00     0.110 A 
ATOM      4  C   UNL d   1      57.818   0.134  31.628  0.00  0.00     0.110 A 
ATOM      5  C   UNL d   1      57.391   0.360  32.292  0.00  0.00     0.096 A 
ATOM      6  C   UNL d   1      56.457  -0.699  32.049  0.00  0.00     0.096 A 
ENDROOT
BRANCH   1   7
ATOM      7  S   UNL d   1      58.004  -0.726  30.508  0.00  0.00     0.273 S 
ATOM      8  O   UNL d   1      57.424  -1.286  30.332  0.00  0.00    -0.200 OA
ATOM      9  O   UNL d   1      58.589  -0.169  30.677  0.00  0.00    -0.200 OA
BRANCH   7  10
ATOM     10  C   UNL d   1      58.421  -0.965  29.837  0.00  0.00     0.128 A 
ATOM     11  C   UNL d   1      58.815  -1.681  29.845  0.00  0.00     0.039 A 
ATOM     12  C   UNL d   1      59.235  -1.930  29.179  0.00  0.00     0.095 A 
ATOM     13  C   UNL d   1      59.255  -1.453  28.504  0.00  0.00     0.026 A 
ATOM     14  C   UNL d   1      58.854  -0.727  28.500  0.00  0.00     0.027 A 
ATOM     15  C   UNL d   1      58.436  -0.485  29.169  0.00  0.00     0.106 A 
BRANCH  12  16
ATOM     16  O   UNL d   1      59.633  -2.649  29.181  0.00  0.00    -0.328 OA
ATOM     17  C   UNL d   1      60.242  -2.779  28.637  0.00  0.00     0.181 C 
ENDBRANCH  12  16
BRANCH  15  18
ATOM     18  O   UNL d   1      58.036   0.234  29.171  0.00  0.00    -0.327 OA
ATOM     19  C   UNL d   1      57.896   0.624  28.455  0.00  0.00     0.181 C 
ENDBRANCH  15  18
ENDBRANCH   7  10
ENDBRANCH   1   7
BRANCH   2  20
ATOM     20  C   UNL d   1      56.280   0.169  33.167  0.00  0.00     0.107 A 
ATOM     21  C   UNL d   1      55.546   0.239  32.976  0.00  0.00    -0.002 A 
ATOM     22  C   UNL d   1      55.129   0.463  33.621  0.00  0.00    -0.006 A 
ATOM     23  C   UNL d   1      55.588   0.536  34.221  0.00  0.00    -0.022 A 
ATOM     24  C   UNL d   1      54.230   0.656  33.827  0.00  0.00    -0.001 A 
ATOM     25  C   UNL d   1      56.310   0.484  34.479  0.00  0.00     0.046 A 
ATOM     26  C   UNL d   1      56.746   0.253  33.817  0.00  0.00     0.038 A 
ATOM     27  C   UNL d   1      55.495   0.675  34.728  0.00  0.00    -0.022 A 
ATOM     28  C   UNL d   1      55.026   0.592  34.085  0.00  0.00    -0.006 A 
ATOM     29  C   UNL d   1      55.464   0.355  33.396  0.00  0.00    -0.002 A 
ENDBRANCH   2  20
TORSDOF 5
ENDMDL
MODEL 2
REMARK VINA RESULT:      -3.6      1.608      5.417
REMARK  5 active torsions:
REMARK  status: ('A' for Active; 'I' for Inactive)
REMARK    1  A    between atoms: C_2  and  S_1 
REMARK    2  A    between atoms: N_4  and  S_1 
REMARK    3  A    between atoms: C_3  and  N_5 
REMARK    4  A    between atoms: O_26  and  C_14 
REMARK    5  A    between atoms: O_27  and  C_24 
ROOT
ATOM      1  N   UNL d   1      56.958  -0.060  31.968  0.00  0.00    -0.226 N 
ATOM      2  N   UNL d   1      57.863  -0.388  30.637  0.00  0.00    -0.319 N 
ATOM      3  C   UNL d   1      57.067  -0.839  31.729  0.00  0.00     0.110 A 
ATOM      4  C   UNL d   1      57.299   0.556  31.545  0.00  0.00     0.110 A 
ATOM      5  C   UNL d   1      57.752   0.399  30.879  0.00  0.00     0.096 A 
ATOM      6  C   UNL d   1      57.524  -1.004  31.057  0.00  0.00     0.096 A 
ENDROOT
BRANCH   1   7
ATOM      7  S   UNL d   1      56.503   0.105  32.637  0.00  0.00     0.273 S 
ATOM      8  O   UNL d   1      56.100   0.682  32.205  0.00  0.00    -0.200 OA
ATOM      9  O   UNL d   1      56.901  -0.469  33.075  0.00  0.00    -0.200 OA
BRANCH   7  10
ATOM     10  C   UNL d   1      56.036   0.288  33.292  0.00  0.00     0.128 A 
ATOM     11  C   UNL d   1      55.222   0.284  33.217  0.00  0.00     0.039 A 
ATOM     12  C   UNL d   1      54.746   0.465  33.866  0.00  0.00     0.095 A 
ATOM     13  C   UNL d   1      55.095   0.650  34.593  0.00  0.00     0.026 A 
ATOM     14  C   UNL d   1      55.920   0.653  34.665  0.00  0.00     0.027 A 
ATOM     15  C   UNL d   1      56.390   0.471  34.012  0.00  0.00     0.106 A 
BRANCH  12  16
ATOM     16  O   UNL d   1      53.927   0.463  33.797  0.00  0.00    -0.328 OA
ATOM     17  C   UNL d   1      53.461   0.620  34.462  0.00  0.00     0.181 C 
ENDBRANCH  12  16
BRANCH  15  18
ATOM     18  O   UNL d   1      57.211   0.472  34.077  0.00  0.00    -0.327 OA
ATOM     19  C   UNL d   1      57.561   0.682  34.797  0.00  0.00     0.181 C 
ENDBRANCH  15  18
ENDBRANCH   7  10
ENDBRANCH   1   7
BRANCH   2  20
ATOM     20  C   UNL d   1      58.319  -0.542  29.967  0.00  0.00     0.107 A 
ATOM     21  C   UNL d   1      58.466  -1.288  29.937  0.00  0.00    -0.002 A 
ATOM     22  C   UNL d   1      58.908  -1.441  29.288  0.00  0.00    -0.006 A 
ATOM     23  C   UNL d   1      59.046  -0.801  28.904  0.00  0.00    -0.022 A 
ATOM     24  C   UNL d   1      59.298  -2.198  28.882  0.00  0.00    -0.001 A 
ATOM     25  C   UNL d   1      58.935  -0.042  28.875  0.00  0.00     0.046 A 
ATOM     26  C   UNL d   1      58.478   0.123  29.542  0.00  0.00     0.038 A 
ATOM     27  C   UNL d   1      59.318  -0.704  28.455  0.00  0.00    -0.022 A 
ATOM     28  C   UNL d   1      59.163  -1.370  28.873  0.00  0.00    -0.006 A 
ATOM     29  C   UNL d   1      58.693  -1.213  29.564  0.00  0.00    -0.002 A 
ENDBRANCH   2  20
TORSDOF 5
ENDMDL
