MODEL 1
REMARK VINA RESULT:      -4.5      0.000      0.000
REMARK  1 active torsions:
REMARK  status: ('A' for Active; 'I' for Inactive)
REMARK       I    between atoms: C_8  and  N_9 
REMARK    1  A    between atoms: N_9  and  C_10 
ROOT
ATOM      1  N   UNL d   1      57.247   0.679  33.562  0.00  0.00    -0.304 N 
ATOM      2  C   UNL d   1      57.299   0.679  32.738  0.00  0.00     0.066 A 
ATOM      3  C   UNL d   1      56.530   0.676  32.432  0.00  0.00     0.018 A 
ATOM      4  C   UNL d   1      56.448   0.676  33.765  0.00  0.00     0.064 A 
ATOM      5  C   UNL d   1      56.006   0.675  33.069  0.00  0.00     0.018 A 
ATOM      6  C   UNL d   1      57.945   0.681  32.225  0.00  0.00     0.037 A 
ATOM      7  C   UNL d   1      56.411   0.676  31.618  0.00  0.00     0.003 A 
ATOM      8  C   UNL d   1      57.823   0.680  31.405  0.00  0.00     0.086 A 
ATOM      9  C   UNL d   1      57.050   0.678  31.109  0.00  0.00     0.019 A 
ATOM     10  C   UNL d   1      57.876   0.680  34.081  0.00  0.00     0.099 C 
ATOM     11  C   UNL d   1      56.062   0.675  34.496  0.00  0.00     0.018 A 
ATOM     12  C   UNL d   1      55.180   0.672  33.106  0.00  0.00     0.002 A 
ATOM     13  C   UNL d   1      54.802   0.671  33.833  0.00  0.00     0.000 A 
ATOM     14  C   UNL d   1      55.244   0.673  34.530  0.00  0.00     0.002 A 
ENDROOT
BRANCH   8  15
ATOM     15  N   UNL d   1      58.466   0.682  30.903  0.00  0.00    -0.208 NA
ATOM     16  C   UNL d   1      58.583   0.068  30.370  0.00  0.00     0.279 C 
ATOM     17  O   UNL d   1      59.233   0.076  29.868  0.00  0.00    -0.265 OA
ATOM     18  C   UNL d   1      58.048  -0.551  30.344  0.00  0.00     0.068 C 
ENDBRANCH   8  15
TORSDOF 1
ENDMDL
MODEL 2
REMARK VINA RESULT:      -4.0      1.280      1.565
REMARK  1 active torsions:
REMARK  status: ('A' for Active; 'I' for Inactive)
REMARK       I    between atoms: C_8  and  N_9 
REMARK    1  A    between atoms: N_9  and  C_10 
ROOT
ATOM      1  N   UNL d   1      56.254  -1.152  32.333  0.00  0.00    -0.304 N 
ATOM      2  C   UNL d   1      56.786  -0.694  31.899  0.00  0.00     0.066 A 
ATOM      3  C   UNL d   1      56.787   0.070  32.216  0.00  0.00     0.018 A 
ATOM      4  C   UNL d   1      55.926  -0.672  32.919  0.00  0.00     0.064 A 
ATOM      5  C   UNL d   1      56.255   0.081  32.846  0.00  0.00     0.018 A 
ATOM      6  C   UNL d   1      57.271  -0.872  31.255  0.00  0.00     0.037 A 
ATOM      7  C   UNL d   1      57.270   0.651  31.890  0.00  0.00     0.003 A 
ATOM      8  C   UNL d   1      57.757  -0.285  30.928  0.00  0.00     0.086 A 
ATOM      9  C   UNL d   1      57.750   0.476  31.253  0.00  0.00     0.019 A 
ATOM     10  C   UNL d   1      56.084  -1.939  32.205  0.00  0.00     0.099 C 
ATOM     11  C   UNL d   1      55.370  -0.822  33.510  0.00  0.00     0.018 A 
ATOM     12  C   UNL d   1      56.025   0.681  33.366  0.00  0.00     0.002 A 
ATOM     13  C   UNL d   1      55.472   0.528  33.952  0.00  0.00     0.000 A 
ATOM     14  C   UNL d   1      55.144  -0.225  34.024  0.00  0.00     0.002 A 
ENDROOT
BRANCH   8  15
ATOM     15  N   UNL d   1      58.234  -0.467  30.292  0.00  0.00    -0.208 NA
ATOM     16  C   UNL d   1      58.245   0.014  29.626  0.00  0.00     0.279 C 
ATOM     17  O   UNL d   1      58.728  -0.176  28.989  0.00  0.00    -0.265 OA
ATOM     18  C   UNL d   1      57.774   0.682  29.603  0.00  0.00     0.068 C 
ENDBRANCH   8  15
TORSDOF 1
ENDMDL
MODEL 3
REMARK VINA RESULT:      -3.6      1.688      3.924
REMARK  1 active torsions:
REMARK  status: ('A' for Active; 'I' for Inactive)
REMARK       I    between atoms: C_8  and  N_9 
REMARK    1  A    between atoms: N_9  and  C_10 
ROOT
ATOM      1  N   UNL d   1      57.943   0.669  30.486  0.00  0.00    -0.304 N 
ATOM      2  C   UNL d   1      57.651   0.669  31.259  0.00  0.00     0.066 A 
ATOM      3  C   UNL d   1      58.296   0.673  31.778  0.00  0.00     0.018 A 
ATOM      4  C   UNL d   1      58.767   0.673  30.527  0.00  0.00     0.064 A 
ATOM      5  C   UNL d   1      58.984   0.676  31.323  0.00  0.00     0.018 A 
ATOM      6  C   UNL d   1      56.882   0.666  31.559  0.00  0.00     0.037 A 
ATOM      7  C   UNL d   1      58.170   0.674  32.591  0.00  0.00     0.003 A 
ATOM      8  C   UNL d   1      56.758   0.667  32.379  0.00  0.00     0.086 A 
ATOM      9  C   UNL d   1      57.410   0.671  32.889  0.00  0.00     0.019 A 
ATOM     10  C   UNL d   1      57.494   0.666  29.806  0.00  0.00     0.099 C 
ATOM     11  C   UNL d   1      59.350   0.675  29.943  0.00  0.00     0.018 A 
ATOM     12  C   UNL d   1      59.784   0.680  31.530  0.00  0.00     0.002 A 
ATOM     13  C   UNL d   1      60.360   0.682  30.947  0.00  0.00     0.000 A 
ATOM     14  C   UNL d   1      60.142   0.680  30.151  0.00  0.00     0.002 A 
ENDROOT
BRANCH   8  15
ATOM     15  N   UNL d   1      55.996   0.663  32.669  0.00  0.00    -0.208 NA
ATOM     16  C   UNL d   1      55.692  -0.004  33.041  0.00  0.00     0.279 C 
ATOM     17  O   UNL d   1      54.923   0.000  33.331  0.00  0.00    -0.265 OA
ATOM     18  C   UNL d   1      56.160  -0.670  33.119  0.00  0.00     0.068 C 
ENDBRANCH   8  15
TORSDOF 1
ENDMDL
MODEL 4
REMARK VINA RESULT:      -3.5      1.900      4.431
REMARK  1 active torsions:
REMARK  status: ('A' for Active; 'I' for Inactive)
REMARK       I    between atoms: C_8  and  N_9 
REMARK    1  A    between atoms: N_9  and  C_10 
ROOT
ATOM      1  N   UNL d   1      58.489  -1.290  29.790  0.00  0.00    -0.304 N 
ATOM      2  C   UNL d   1      58.007  -0.887  30.325  0.00  0.00     0.066 A 
ATOM      3  C   UNL d   1      58.179  -0.079  30.268  0.00  0.00     0.018 A 
ATOM      4  C   UNL d   1      58.959  -0.733  29.403  0.00  0.00     0.064 A 
ATOM      5  C   UNL d   1      58.768   0.013  29.697  0.00  0.00     0.018 A 
ATOM      6  C   UNL d   1      57.433  -1.148  30.857  0.00  0.00     0.037 A 
ATOM      7  C   UNL d   1      57.779   0.462  30.742  0.00  0.00     0.003 A 
ATOM      8  C   UNL d   1      57.031  -0.601  31.333  0.00  0.00     0.086 A 
ATOM      9  C   UNL d   1      57.210   0.204  31.269  0.00  0.00     0.019 A 
ATOM     10  C   UNL d   1      58.498  -2.096  29.667  0.00  0.00     0.099 C 
ATOM     11  C   UNL d   1      59.538  -0.807  28.818  0.00  0.00     0.018 A 
ATOM     12  C   UNL d   1      59.157   0.682  29.406  0.00  0.00     0.002 A 
ATOM     13  C   UNL d   1      59.730   0.604  28.826  0.00  0.00     0.000 A 
ATOM     14  C   UNL d   1      59.921  -0.143  28.531  0.00  0.00     0.002 A 
ENDROOT
BRANCH   8  15
ATOM     15  N   UNL d   1      56.464  -0.866  31.858  0.00  0.00    -0.208 NA
ATOM     16  C   UNL d   1      56.454  -0.596  32.634  0.00  0.00     0.279 C 
ATOM     17  O   UNL d   1      55.881  -0.867  33.156  0.00  0.00    -0.265 OA
ATOM     18  C   UNL d   1      57.017  -0.057  32.881  0.00  0.00     0.068 C 
ENDBRANCH   8  15
TORSDOF 1
ENDMDL
MODEL 5
REMARK VINA RESULT:      -2.4      2.414      5.239
REMARK  1 active torsions:
REMARK  status: ('A' for Active; 'I' for Inactive)
REMARK       I    between atoms: C_8  and  N_9 
REMARK    1  A    between atoms: N_9  and  C_10 
ROOT
ATOM      1  N   UNL d   1      60.192  -0.713  29.220  0.00  0.00    -0.304 N 
ATOM      2  C   UNL d   1      59.419  -0.739  29.509  0.00  0.00     0.066 A 
ATOM      3  C   UNL d   1      59.145  -1.517  29.445  0.00  0.00     0.018 A 
ATOM      4  C   UNL d   1      60.396  -1.475  28.977  0.00  0.00     0.064 A 
ATOM      5  C   UNL d   1      59.751  -1.970  29.115  0.00  0.00     0.018 A 
ATOM      6  C   UNL d   1      58.927  -0.155  29.824  0.00  0.00     0.037 A 
ATOM      7  C   UNL d   1      58.385  -1.708  29.694  0.00  0.00     0.003 A 
ATOM      8  C   UNL d   1      58.161  -0.350  30.074  0.00  0.00     0.086 A 
ATOM      9  C   UNL d   1      57.897  -1.131  30.005  0.00  0.00     0.019 A 
ATOM     10  C   UNL d   1      60.667  -0.052  29.182  0.00  0.00     0.099 C 
ATOM     11  C   UNL d   1      61.087  -1.784  28.646  0.00  0.00     0.018 A 
ATOM     12  C   UNL d   1      59.800  -2.772  28.923  0.00  0.00     0.002 A 
ATOM     13  C   UNL d   1      60.488  -3.074  28.595  0.00  0.00     0.000 A 
ATOM     14  C   UNL d   1      61.133  -2.579  28.456  0.00  0.00     0.002 A 
ENDROOT
BRANCH   8  15
ATOM     15  N   UNL d   1      57.680   0.231  30.384  0.00  0.00    -0.208 NA
ATOM     16  C   UNL d   1      57.239   0.092  31.062  0.00  0.00     0.279 C 
ATOM     17  O   UNL d   1      56.756   0.682  31.369  0.00  0.00    -0.265 OA
ATOM     18  C   UNL d   1      57.284  -0.638  31.430  0.00  0.00     0.068 C 
ENDBRANCH   8  15
TORSDOF 1
ENDMDL
MODEL 6
REMARK VINA RESULT:      -1.9     10.298     10.740
REMARK  1 active torsions:
REMARK  status: ('A' for Active; 'I' for Inactive)
REMARK       I    between atoms: C_8  and  N_9 
REMARK    1  A    between atoms: N_9  and  C_10 
ROOT
ATOM      1  N   UNL d   1      58.949  -9.749  32.643  0.00  0.00    -0.304 N 
ATOM      2  C   UNL d   1      59.594  -9.769  32.128  0.00  0.00     0.066 A 
ATOM      3  C   UNL d   1      60.286  -9.772  32.582  0.00  0.00     0.018 A 
ATOM      4  C   UNL d   1      59.241  -9.740  33.414  0.00  0.00     0.064 A 
ATOM      5  C   UNL d   1      60.065  -9.754  33.376  0.00  0.00     0.018 A 
ATOM      6  C   UNL d   1      59.643  -9.784  31.304  0.00  0.00     0.037 A 
ATOM      7  C   UNL d   1      61.021  -9.790  32.212  0.00  0.00     0.003 A 
ATOM      8  C   UNL d   1      60.385  -9.803  30.934  0.00  0.00     0.086 A 
ATOM      9  C   UNL d   1      61.070  -9.805  31.397  0.00  0.00     0.019 A 
ATOM     10  C   UNL d   1      58.163  -9.741  32.425  0.00  0.00     0.099 C 
ATOM     11  C   UNL d   1      58.865  -9.721  34.149  0.00  0.00     0.018 A 
ATOM     12  C   UNL d   1      60.509  -9.749  34.074  0.00  0.00     0.002 A 
ATOM     13  C   UNL d   1      60.131  -9.730  34.801  0.00  0.00     0.000 A 
ATOM     14  C   UNL d   1      59.307  -9.716  34.838  0.00  0.00     0.002 A 
ENDROOT
BRANCH   8  15
ATOM     15  N   UNL d   1      60.426  -9.818  30.119  0.00  0.00    -0.208 NA
ATOM     16  C   UNL d   1      60.776  -9.200  29.706  0.00  0.00     0.279 C 
ATOM     17  O   UNL d   1      60.814  -9.221  28.886  0.00  0.00    -0.265 OA
ATOM     18  C   UNL d   1      61.085  -8.563  30.118  0.00  0.00     0.068 C 
ENDBRANCH   8  15
TORSDOF 1
ENDMDL
