MODEL 1
REMARK VINA RESULT:      -3.8      0.000      0.000
REMARK  4 active torsions:
REMARK  status: ('A' for Active; 'I' for Inactive)
REMARK    1  A    between atoms: C_15  and  O_20 
REMARK    2  A    between atoms: C_16  and  O_21 
REMARK    3  A    between atoms: O_20  and  C_18 
REMARK    4  A    between atoms: O_21  and  C_19 
ROOT
ATOM      1  C   UNL d   1      33.213  21.361 -22.673  0.00  0.00     0.161 A 
ATOM      2  O   UNL d   1      33.227  21.244 -23.423  0.00  0.00    -0.291 OA
ATOM      3  C   UNL d   1      33.220  20.533 -22.658  0.00  0.00     0.033 A 
ATOM      4  C   UNL d   1      33.199  21.783 -21.964  0.00  0.00     0.033 A 
ATOM      5  C   UNL d   1      33.205  22.207 -22.560  0.00  0.00     0.016 A 
ATOM      6  C   UNL d   1      33.227  21.809 -23.714  0.00  0.00     0.296 A 
ATOM      7  C   UNL d   1      33.211  20.130 -21.931  0.00  0.00     0.101 A 
ATOM      8  C   UNL d   1      33.190  21.380 -21.238  0.00  0.00     0.101 A 
ATOM      9  O   UNL d   1      33.196  20.555 -21.221  0.00  0.00    -0.307 OA
ATOM     10  C   UNL d   1      33.216  22.342 -23.288  0.00  0.00     0.062 A 
ATOM     11  C   UNL d   1      33.175  21.805 -20.527  0.00  0.00     0.049 A 
ATOM     12  C   UNL d   1      33.218  19.308 -21.912  0.00  0.00     0.049 A 
ATOM     13  C   UNL d   1      33.235  20.114 -23.365  0.00  0.00     0.003 A 
ATOM     14  C   UNL d   1      33.192  22.611 -21.980  0.00  0.00     0.003 A 
ATOM     15  O   UNL d   1      33.238  21.800 -24.395  0.00  0.00    -0.259 OA
ATOM     16  C   UNL d   1      33.169  22.633 -20.542  0.00  0.00     0.105 A 
ATOM     17  C   UNL d   1      33.232  18.883 -22.623  0.00  0.00     0.105 A 
ATOM     18  C   UNL d   1      33.241  19.286 -23.349  0.00  0.00     0.025 A 
ATOM     19  C   UNL d   1      33.177  23.036 -21.269  0.00  0.00     0.025 A 
ATOM     20  C   UNL d   1      33.191  22.804 -22.023  0.00  0.00    -0.001 A 
ATOM     21  C   UNL d   1      33.215  23.085 -23.599  0.00  0.00     0.005 A 
ATOM     22  C   UNL d   1      33.190  23.567 -22.285  0.00  0.00    -0.000 A 
ATOM     23  C   UNL d   1      33.201  23.702 -23.075  0.00  0.00     0.000 A 
ENDROOT
BRANCH  17  24
ATOM     24  O   UNL d   1      33.236  18.326 -22.596  0.00  0.00    -0.273 OA
BRANCH  24  25
ATOM     25  C   UNL d   1      32.937  17.915 -22.975  0.00  0.00     0.300 C 
ATOM     26  O   UNL d   1      32.410  17.860 -22.761  0.00  0.00    -0.259 OA
ATOM     27  C   UNL d   1      33.194  17.593 -23.540  0.00  0.00     0.074 C 
ENDBRANCH  24  25
ENDBRANCH  17  24
BRANCH  16  28
ATOM     28  O   UNL d   1      33.159  22.914 -20.050  0.00  0.00    -0.273 OA
BRANCH  28  29
ATOM     29  C   UNL d   1      32.933  22.957 -19.556  0.00  0.00     0.300 C 
ATOM     30  O   UNL d   1      32.400  23.272 -19.666  0.00  0.00    -0.259 OA
ATOM     31  C   UNL d   1      33.157  22.739 -19.000  0.00  0.00     0.074 C 
ENDBRANCH  28  29
ENDBRANCH  16  28
TORSDOF 4
ENDMDL
