MODEL 1
REMARK VINA RESULT:      -3.9      0.000      0.000
REMARK  4 active torsions:
REMARK  status: ('A' for Active; 'I' for Inactive)
REMARK    1  A    between atoms: C_10  and  C_3 
REMARK    2  A    between atoms: C_12  and  C_5 
REMARK    3  A    between atoms: C_15  and  C_12 
REMARK    4  A    between atoms: C_18  and  C_15 
ROOT
ATOM      1  C   UNL d   1      58.178  -0.213  30.784  0.00  0.00     0.152 A 
ATOM      2  N   UNL d   1      57.766  -0.932  30.671  0.00  0.00    -0.258 N 
ATOM      3  C   UNL d   1      58.824  -0.030  30.307  0.00  0.00     0.056 A 
ATOM      4  C   UNL d   1      58.007  -1.456  30.083  0.00  0.00     0.266 A 
ATOM      5  C   UNL d   1      58.659  -1.275  29.600  0.00  0.00     0.057 A 
ATOM      6  N   UNL d   1      57.931   0.313  31.378  0.00  0.00    -0.227 NA
ATOM      7  C   UNL d   1      59.071  -0.557  29.713  0.00  0.00     0.009 A 
ATOM      8  C   UNL d   1      56.870  -0.587  31.745  0.00  0.00     0.086 A 
ATOM      9  C   UNL d   1      57.274   0.135  31.869  0.00  0.00     0.099 A 
ATOM     10  O   UNL d   1      57.587  -2.187  29.968  0.00  0.00    -0.267 OA
ATOM     11  C   UNL d   1      59.717  -0.369  29.240  0.00  0.00     0.000 C 
ATOM     12  C   UNL d   1      56.218  -0.767  32.229  0.00  0.00     0.019 A 
ATOM     13  C   UNL d   1      57.031   0.650  32.452  0.00  0.00     0.021 A 
ATOM     14  C   UNL d   1      55.987  -0.232  32.814  0.00  0.00     0.002 A 
ATOM     15  C   UNL d   1      56.388   0.466  32.924  0.00  0.00     0.002 A 
ENDROOT
BRANCH   5  16
ATOM     16  C   UNL d   1      58.905  -1.797  29.009  0.00  0.00     0.005 C 
BRANCH  16  17
ATOM     17  C   UNL d   1      59.004  -2.593  29.176  0.00  0.00     0.000 C 
BRANCH  17  18
ATOM     18  C   UNL d   1      59.489  -3.051  28.698  0.00  0.00     0.000 C 
ATOM     19  C   UNL d   1      59.231  -3.801  28.460  0.00  0.00     0.000 C 
ATOM     20  C   UNL d   1      60.226  -2.768  28.457  0.00  0.00     0.000 C 
ENDBRANCH  17  18
ENDBRANCH  16  17
ENDBRANCH   5  16
BRANCH   3  21
ATOM     21  C   UNL d   1      59.227   0.677  30.421  0.00  0.00     0.125 C 
ATOM     22  N   UNL d   1      60.043   0.682  30.496  0.00  0.00    -0.146 N 
ENDBRANCH   3  21
TORSDOF 4
ENDMDL
MODEL 2
REMARK VINA RESULT:      -3.6      0.815      3.990
REMARK  4 active torsions:
REMARK  status: ('A' for Active; 'I' for Inactive)
REMARK    1  A    between atoms: C_10  and  C_3 
REMARK    2  A    between atoms: C_12  and  C_5 
REMARK    3  A    between atoms: C_15  and  C_12 
REMARK    4  A    between atoms: C_18  and  C_15 
ROOT
ATOM      1  C   UNL d   1      58.611  -0.786  30.288  0.00  0.00     0.152 A 
ATOM      2  N   UNL d   1      58.073  -1.422  30.358  0.00  0.00    -0.258 N 
ATOM      3  C   UNL d   1      58.482  -0.091  30.709  0.00  0.00     0.056 A 
ATOM      4  C   UNL d   1      57.415  -1.352  30.847  0.00  0.00     0.266 A 
ATOM      5  C   UNL d   1      57.281  -0.651  31.275  0.00  0.00     0.057 A 
ATOM      6  N   UNL d   1      59.274  -0.861  29.792  0.00  0.00    -0.227 NA
ATOM      7  C   UNL d   1      57.819  -0.015  31.205  0.00  0.00     0.009 A 
ATOM      8  C   UNL d   1      58.868  -2.195  29.438  0.00  0.00     0.086 A 
ATOM      9  C   UNL d   1      59.414  -1.567  29.359  0.00  0.00     0.099 A 
ATOM     10  O   UNL d   1      56.868  -2.000  30.919  0.00  0.00    -0.267 OA
ATOM     11  C   UNL d   1      57.695   0.682  31.622  0.00  0.00     0.000 C 
ATOM     12  C   UNL d   1      59.003  -2.896  29.011  0.00  0.00     0.019 A 
ATOM     13  C   UNL d   1      60.064  -1.641  28.873  0.00  0.00     0.021 A 
ATOM     14  C   UNL d   1      59.667  -2.953  28.523  0.00  0.00     0.002 A 
ATOM     15  C   UNL d   1      60.189  -2.335  28.455  0.00  0.00     0.002 A 
ENDROOT
BRANCH   5  16
ATOM     16  C   UNL d   1      56.623  -0.576  31.767  0.00  0.00     0.005 C 
BRANCH  16  17
ATOM     17  C   UNL d   1      56.665  -0.809  32.552  0.00  0.00     0.000 C 
BRANCH  17  18
ATOM     18  C   UNL d   1      55.990  -0.790  33.018  0.00  0.00     0.000 C 
ATOM     19  C   UNL d   1      55.627  -1.503  33.233  0.00  0.00     0.000 C 
ATOM     20  C   UNL d   1      55.675  -0.069  33.270  0.00  0.00     0.000 C 
ENDBRANCH  17  18
ENDBRANCH  16  17
ENDBRANCH   5  16
BRANCH   3  21
ATOM     21  C   UNL d   1      59.013   0.533  30.637  0.00  0.00     0.125 C 
ATOM     22  N   UNL d   1      59.580   0.662  31.215  0.00  0.00    -0.146 N 
ENDBRANCH   3  21
TORSDOF 4
ENDMDL
MODEL 3
REMARK VINA RESULT:      -2.8      1.633      2.518
REMARK  4 active torsions:
REMARK  status: ('A' for Active; 'I' for Inactive)
REMARK    1  A    between atoms: C_10  and  C_3 
REMARK    2  A    between atoms: C_12  and  C_5 
REMARK    3  A    between atoms: C_15  and  C_12 
REMARK    4  A    between atoms: C_18  and  C_15 
ROOT
ATOM      1  C   UNL d   1      57.510   0.634  32.683  0.00  0.00     0.152 A 
ATOM      2  N   UNL d   1      56.940   0.608  32.072  0.00  0.00    -0.258 N 
ATOM      3  C   UNL d   1      58.311   0.655  32.496  0.00  0.00     0.056 A 
ATOM      4  C   UNL d   1      57.180   0.604  31.285  0.00  0.00     0.266 A 
ATOM      5  C   UNL d   1      57.989   0.626  31.092  0.00  0.00     0.057 A 
ATOM      6  N   UNL d   1      57.262   0.637  33.477  0.00  0.00    -0.227 NA
ATOM      7  C   UNL d   1      58.559   0.652  31.703  0.00  0.00     0.009 A 
ATOM      8  C   UNL d   1      55.887   0.590  33.056  0.00  0.00     0.086 A 
ATOM      9  C   UNL d   1      56.447   0.615  33.676  0.00  0.00     0.099 A 
ATOM     10  O   UNL d   1      56.600   0.577  30.663  0.00  0.00    -0.267 OA
ATOM     11  C   UNL d   1      59.361   0.673  31.523  0.00  0.00     0.000 C 
ATOM     12  C   UNL d   1      55.078   0.568  33.249  0.00  0.00     0.019 A 
ATOM     13  C   UNL d   1      56.203   0.619  34.454  0.00  0.00     0.021 A 
ATOM     14  C   UNL d   1      54.851   0.572  34.043  0.00  0.00     0.002 A 
ATOM     15  C   UNL d   1      55.405   0.597  34.636  0.00  0.00     0.002 A 
ENDROOT
BRANCH   5  16
ATOM     16  C   UNL d   1      58.236   0.622  30.304  0.00  0.00     0.005 C 
BRANCH  16  17
ATOM     17  C   UNL d   1      58.067  -0.018  29.821  0.00  0.00     0.000 C 
BRANCH  17  18
ATOM     18  C   UNL d   1      58.520  -0.152  29.150  0.00  0.00     0.000 C 
ATOM     19  C   UNL d   1      58.974  -0.843  29.099  0.00  0.00     0.000 C 
ATOM     20  C   UNL d   1      58.524   0.396  28.532  0.00  0.00     0.000 C 
ENDBRANCH  17  18
ENDBRANCH  16  17
ENDBRANCH   5  16
BRANCH   3  21
ATOM     21  C   UNL d   1      58.869   0.681  33.100  0.00  0.00     0.125 C 
ATOM     22  N   UNL d   1      59.669   0.681  32.924  0.00  0.00    -0.146 N 
ENDBRANCH   3  21
TORSDOF 4
ENDMDL
MODEL 4
REMARK VINA RESULT:      -2.7      8.440      9.267
REMARK  4 active torsions:
REMARK  status: ('A' for Active; 'I' for Inactive)
REMARK    1  A    between atoms: C_10  and  C_3 
REMARK    2  A    between atoms: C_12  and  C_5 
REMARK    3  A    between atoms: C_15  and  C_12 
REMARK    4  A    between atoms: C_18  and  C_15 
ROOT
ATOM      1  C   UNL d   1      59.178  -9.757  32.418  0.00  0.00     0.152 A 
ATOM      2  N   UNL d   1      60.003  -9.763  32.282  0.00  0.00    -0.258 N 
ATOM      3  C   UNL d   1      58.657  -9.771  31.781  0.00  0.00     0.056 A 
ATOM      4  C   UNL d   1      60.293  -9.784  31.512  0.00  0.00     0.266 A 
ATOM      5  C   UNL d   1      59.770  -9.798  30.866  0.00  0.00     0.057 A 
ATOM      6  N   UNL d   1      58.890  -9.737  33.198  0.00  0.00    -0.227 NA
ATOM      7  C   UNL d   1      58.945  -9.791  31.001  0.00  0.00     0.009 A 
ATOM      8  C   UNL d   1      60.237  -9.729  33.704  0.00  0.00     0.086 A 
ATOM      9  C   UNL d   1      59.414  -9.722  33.853  0.00  0.00     0.099 A 
ATOM     10  O   UNL d   1      61.133  -9.790  31.375  0.00  0.00    -0.267 OA
ATOM     11  C   UNL d   1      58.420  -9.805  30.369  0.00  0.00     0.000 C 
ATOM     12  C   UNL d   1      60.759  -9.715  34.350  0.00  0.00     0.019 A 
ATOM     13  C   UNL d   1      59.132  -9.703  34.618  0.00  0.00     0.021 A 
ATOM     14  C   UNL d   1      60.455  -9.695  35.118  0.00  0.00     0.002 A 
ATOM     15  C   UNL d   1      59.654  -9.689  35.249  0.00  0.00     0.002 A 
ENDROOT
BRANCH   5  16
ATOM     16  C   UNL d   1      60.055  -9.818  30.092  0.00  0.00     0.005 C 
BRANCH  16  17
ATOM     17  C   UNL d   1      60.598  -9.258  29.836  0.00  0.00     0.000 C 
BRANCH  17  18
ATOM     18  C   UNL d   1      60.725  -9.154  29.032  0.00  0.00     0.000 C 
ATOM     19  C   UNL d   1      61.011  -9.787  28.582  0.00  0.00     0.000 C 
ATOM     20  C   UNL d   1      60.570  -8.426  28.675  0.00  0.00     0.000 C 
ENDBRANCH  17  18
ENDBRANCH  16  17
ENDBRANCH   5  16
BRANCH   3  21
ATOM     21  C   UNL d   1      57.846  -9.764  31.918  0.00  0.00     0.125 C 
ATOM     22  N   UNL d   1      57.373  -9.190  31.575  0.00  0.00    -0.146 N 
ENDBRANCH   3  21
TORSDOF 4
ENDMDL
MODEL 5
REMARK VINA RESULT:      -2.1      2.054      4.337
REMARK  4 active torsions:
REMARK  status: ('A' for Active; 'I' for Inactive)
REMARK    1  A    between atoms: C_10  and  C_3 
REMARK    2  A    between atoms: C_12  and  C_5 
REMARK    3  A    between atoms: C_15  and  C_12 
REMARK    4  A    between atoms: C_18  and  C_15 
ROOT
ATOM      1  C   UNL d   1      58.802   0.662  31.419  0.00  0.00     0.152 A 
ATOM      2  N   UNL d   1      58.092   0.652  30.977  0.00  0.00    -0.258 N 
ATOM      3  C   UNL d   1      58.775   0.672  32.241  0.00  0.00     0.056 A 
ATOM      4  C   UNL d   1      57.367   0.652  31.366  0.00  0.00     0.266 A 
ATOM      5  C   UNL d   1      57.334   0.662  32.197  0.00  0.00     0.057 A 
ATOM      6  N   UNL d   1      59.533   0.662  31.022  0.00  0.00    -0.227 NA
ATOM      7  C   UNL d   1      58.044   0.672  32.638  0.00  0.00     0.009 A 
ATOM      8  C   UNL d   1      58.853   0.642  29.754  0.00  0.00     0.086 A 
ATOM      9  C   UNL d   1      59.571   0.652  30.183  0.00  0.00     0.099 A 
ATOM     10  O   UNL d   1      56.644   0.641  30.917  0.00  0.00    -0.267 OA
ATOM     11  C   UNL d   1      58.023   0.682  33.460  0.00  0.00     0.000 C 
ATOM     12  C   UNL d   1      58.886   0.632  28.923  0.00  0.00     0.019 A 
ATOM     13  C   UNL d   1      60.287   0.652  29.793  0.00  0.00     0.021 A 
ATOM     14  C   UNL d   1      59.621   0.632  28.546  0.00  0.00     0.002 A 
ATOM     15  C   UNL d   1      60.311   0.642  28.975  0.00  0.00     0.002 A 
ENDROOT
BRANCH   5  16
ATOM     16  C   UNL d   1      56.609   0.662  32.592  0.00  0.00     0.005 C 
BRANCH  16  17
ATOM     17  C   UNL d   1      56.236  -0.046  32.770  0.00  0.00     0.000 C 
BRANCH  17  18
ATOM     18  C   UNL d   1      55.538  -0.039  33.201  0.00  0.00     0.000 C 
ATOM     19  C   UNL d   1      55.135  -0.751  33.330  0.00  0.00     0.000 C 
ATOM     20  C   UNL d   1      55.239   0.669  33.503  0.00  0.00     0.000 C 
ENDBRANCH  17  18
ENDBRANCH  16  17
ENDBRANCH   5  16
BRANCH   3  21
ATOM     21  C   UNL d   1      59.475   0.681  32.672  0.00  0.00     0.125 C 
ATOM     22  N   UNL d   1      59.467   0.542  33.479  0.00  0.00    -0.146 N 
ENDBRANCH   3  21
TORSDOF 4
ENDMDL
MODEL 6
REMARK VINA RESULT:      -1.0      1.156      2.261
REMARK  4 active torsions:
REMARK  status: ('A' for Active; 'I' for Inactive)
REMARK    1  A    between atoms: C_10  and  C_3 
REMARK    2  A    between atoms: C_12  and  C_5 
REMARK    3  A    between atoms: C_15  and  C_12 
REMARK    4  A    between atoms: C_18  and  C_15 
ROOT
ATOM      1  C   UNL d   1      57.604  -1.110  30.787  0.00  0.00     0.152 A 
ATOM      2  N   UNL d   1      57.924  -0.340  30.842  0.00  0.00    -0.258 N 
ATOM      3  C   UNL d   1      57.880  -1.630  30.213  0.00  0.00     0.056 A 
ATOM      4  C   UNL d   1      58.517  -0.103  30.322  0.00  0.00     0.266 A 
ATOM      5  C   UNL d   1      58.800  -0.626  29.740  0.00  0.00     0.057 A 
ATOM      6  N   UNL d   1      57.005  -1.345  31.315  0.00  0.00    -0.227 NA
ATOM      7  C   UNL d   1      58.479  -1.396  29.685  0.00  0.00     0.009 A 
ATOM      8  C   UNL d   1      57.046  -0.053  31.948  0.00  0.00     0.086 A 
ATOM      9  C   UNL d   1      56.717  -0.820  31.904  0.00  0.00     0.099 A 
ATOM     10  O   UNL d   1      58.843   0.681  30.379  0.00  0.00    -0.267 OA
ATOM     11  C   UNL d   1      58.751  -1.920  29.114  0.00  0.00     0.000 C 
ATOM     12  C   UNL d   1      56.763   0.469  32.530  0.00  0.00     0.019 A 
ATOM     13  C   UNL d   1      56.130  -1.050  32.421  0.00  0.00     0.021 A 
ATOM     14  C   UNL d   1      56.169   0.219  33.046  0.00  0.00     0.002 A 
ATOM     15  C   UNL d   1      55.857  -0.529  32.992  0.00  0.00     0.002 A 
ENDROOT
BRANCH   5  16
ATOM     16  C   UNL d   1      59.393  -0.394  29.216  0.00  0.00     0.005 C 
BRANCH  16  17
ATOM     17  C   UNL d   1      60.153  -0.249  29.489  0.00  0.00     0.000 C 
BRANCH  17  18
ATOM     18  C   UNL d   1      60.758  -0.113  28.953  0.00  0.00     0.000 C 
ATOM     19  C   UNL d   1      60.991   0.666  28.794  0.00  0.00     0.000 C 
ATOM     20  C   UNL d   1      61.133  -0.745  28.576  0.00  0.00     0.000 C 
ENDBRANCH  17  18
ENDBRANCH  16  17
ENDBRANCH   5  16
BRANCH   3  21
ATOM     21  C   UNL d   1      57.562  -2.387  30.162  0.00  0.00     0.125 C 
ATOM     22  N   UNL d   1      57.957  -2.975  29.750  0.00  0.00    -0.146 N 
ENDBRANCH   3  21
TORSDOF 4
ENDMDL
