MODEL 1
REMARK VINA RESULT:      -3.0      0.000      0.000
REMARK  6 active torsions:
REMARK  status: ('A' for Active; 'I' for Inactive)
REMARK    1  A    between atoms: C_4  and  C_1 
REMARK    2  A    between atoms: C_3  and  C_7 
REMARK    3  A    between atoms: O_18  and  C_3 
REMARK    4  A    between atoms: C_9  and  C_4 
REMARK    5  A    between atoms: O_13  and  C_9 
REMARK    6  A    between atoms: C_15  and  O_13 
ROOT
ATOM      1  C   UNL d   1      32.558  18.739 -23.178  0.00  0.00     0.165 C 
ENDROOT
BRANCH   1   2
ATOM      2  C   UNL d   1      32.655  18.191 -23.774  0.00  0.00     0.223 C 
ATOM      3  O   UNL d   1      33.241  18.290 -24.345  0.00  0.00    -0.284 OA
BRANCH   2   4
ATOM      4  C   UNL d   1      32.142  17.514 -23.796  0.00  0.00     0.080 A 
ATOM      5  C   UNL d   1      31.516  17.511 -24.318  0.00  0.00     0.202 A 
ATOM      6  C   UNL d   1      31.002  16.846 -24.350  0.00  0.00     0.084 A 
ATOM      7  O   UNL d   1      31.399  18.168 -24.811  0.00  0.00    -0.286 OA
ATOM      8  C   UNL d   1      31.148  16.210 -23.846  0.00  0.00     0.199 A 
ATOM      9  C   UNL d   1      31.786  16.221 -23.318  0.00  0.00     0.042 A 
ATOM     10  O   UNL d   1      30.633  15.546 -23.878  0.00  0.00    -0.286 OA
ATOM     11  C   UNL d   1      32.277  16.871 -23.298  0.00  0.00     0.010 A 
ENDBRANCH   2   4
ENDBRANCH   1   2
BRANCH   1  12
ATOM     12  O   UNL d   1      33.193  19.192 -22.920  0.00  0.00    -0.302 OA
BRANCH  12  13
ATOM     13  C   UNL d   1      33.069  19.813 -22.387  0.00  0.00     0.100 A 
ATOM     14  C   UNL d   1      32.859  20.560 -22.665  0.00  0.00     0.025 A 
ATOM     15  C   UNL d   1      32.737  21.169 -22.147  0.00  0.00     0.007 A 
ATOM     16  C   UNL d   1      32.821  21.052 -21.320  0.00  0.00     0.063 A 
ATOM     17  C   UNL d   1      33.031  20.304 -21.041  0.00  0.00     0.007 A 
ATOM     18  C   UNL d   1      33.156  19.677 -21.591  0.00  0.00     0.025 A 
BRANCH  16  19
ATOM     19  C   UNL d   1      32.693  21.687 -20.792  0.00  0.00     0.296 C 
ATOM     20  O   UNL d   1      32.045  22.189 -20.882  0.00  0.00    -0.259 OA
BRANCH  19  21
ATOM     21  O   UNL d   1      33.241  21.799 -20.170  0.00  0.00    -0.296 OA
ATOM     22  C   UNL d   1      33.187  22.452 -19.669  0.00  0.00     0.185 C 
ENDBRANCH  19  21
ENDBRANCH  16  19
ENDBRANCH  12  13
ENDBRANCH   1  12
TORSDOF 6
ENDMDL
MODEL 2
REMARK VINA RESULT:      -2.8      0.986      1.466
REMARK  6 active torsions:
REMARK  status: ('A' for Active; 'I' for Inactive)
REMARK    1  A    between atoms: C_4  and  C_1 
REMARK    2  A    between atoms: C_3  and  C_7 
REMARK    3  A    between atoms: O_18  and  C_3 
REMARK    4  A    between atoms: C_9  and  C_4 
REMARK    5  A    between atoms: O_13  and  C_9 
REMARK    6  A    between atoms: C_15  and  O_13 
ROOT
ATOM      1  C   UNL d   1      32.476  18.112 -23.303  0.00  0.00     0.165 C 
ENDROOT
BRANCH   1   2
ATOM      2  C   UNL d   1      32.478  17.416 -23.728  0.00  0.00     0.223 C 
ATOM      3  O   UNL d   1      33.188  17.043 -23.921  0.00  0.00    -0.284 OA
BRANCH   2   4
ATOM      4  C   UNL d   1      31.736  17.079 -23.968  0.00  0.00     0.080 A 
ATOM      5  C   UNL d   1      31.485  16.388 -23.618  0.00  0.00     0.202 A 
ATOM      6  C   UNL d   1      30.752  16.045 -23.848  0.00  0.00     0.084 A 
ATOM      7  O   UNL d   1      31.960  16.034 -23.038  0.00  0.00    -0.286 OA
ATOM      8  C   UNL d   1      30.305  16.424 -24.429  0.00  0.00     0.199 A 
ATOM      9  C   UNL d   1      30.568  17.126 -24.780  0.00  0.00     0.042 A 
ATOM     10  O   UNL d   1      29.572  16.080 -24.658  0.00  0.00    -0.286 OA
ATOM     11  C   UNL d   1      31.279  17.447 -24.548  0.00  0.00     0.010 A 
ENDBRANCH   2   4
ENDBRANCH   1   2
BRANCH   1  12
ATOM     12  O   UNL d   1      33.182  18.486 -23.111  0.00  0.00    -0.302 OA
BRANCH  12  13
ATOM     13  C   UNL d   1      33.170  19.226 -22.742  0.00  0.00     0.100 A 
ATOM     14  C   UNL d   1      33.093  19.278 -21.922  0.00  0.00     0.025 A 
ATOM     15  C   UNL d   1      33.082  19.999 -21.558  0.00  0.00     0.007 A 
ATOM     16  C   UNL d   1      33.148  20.707 -22.006  0.00  0.00     0.063 A 
ATOM     17  C   UNL d   1      33.226  20.656 -22.826  0.00  0.00     0.007 A 
ATOM     18  C   UNL d   1      33.236  19.897 -23.194  0.00  0.00     0.025 A 
BRANCH  16  19
ATOM     19  C   UNL d   1      33.135  21.449 -21.621  0.00  0.00     0.296 C 
ATOM     20  O   UNL d   1      33.241  21.505 -20.804  0.00  0.00    -0.259 OA
BRANCH  19  21
ATOM     21  O   UNL d   1      33.013  22.132 -22.086  0.00  0.00    -0.296 OA
ATOM     22  C   UNL d   1      32.984  22.881 -21.741  0.00  0.00     0.185 C 
ENDBRANCH  19  21
ENDBRANCH  16  19
ENDBRANCH  12  13
ENDBRANCH   1  12
TORSDOF 6
ENDMDL
MODEL 3
REMARK VINA RESULT:      -2.4      1.064      5.252
REMARK  6 active torsions:
REMARK  status: ('A' for Active; 'I' for Inactive)
REMARK    1  A    between atoms: C_4  and  C_1 
REMARK    2  A    between atoms: C_3  and  C_7 
REMARK    3  A    between atoms: O_18  and  C_3 
REMARK    4  A    between atoms: C_9  and  C_4 
REMARK    5  A    between atoms: O_13  and  C_9 
REMARK    6  A    between atoms: C_15  and  O_13 
ROOT
ATOM      1  C   UNL d   1      32.698  20.103 -22.114  0.00  0.00     0.165 C 
ENDROOT
BRANCH   1   2
ATOM      2  C   UNL d   1      32.893  20.460 -21.407  0.00  0.00     0.223 C 
ATOM      3  O   UNL d   1      33.240  20.024 -20.798  0.00  0.00    -0.284 OA
BRANCH   2   4
ATOM      4  C   UNL d   1      32.733  21.288 -21.307  0.00  0.00     0.080 A 
ATOM      5  C   UNL d   1      32.120  21.515 -20.821  0.00  0.00     0.202 A 
ATOM      6  C   UNL d   1      31.952  22.332 -20.714  0.00  0.00     0.084 A 
ATOM      7  O   UNL d   1      31.671  20.932 -20.439  0.00  0.00    -0.286 OA
ATOM      8  C   UNL d   1      32.420  22.886 -21.109  0.00  0.00     0.199 A 
ATOM      9  C   UNL d   1      33.041  22.646 -21.601  0.00  0.00     0.042 A 
ATOM     10  O   UNL d   1      32.251  23.702 -21.001  0.00  0.00    -0.286 OA
ATOM     11  C   UNL d   1      33.193  21.852 -21.696  0.00  0.00     0.010 A 
ENDBRANCH   2   4
ENDBRANCH   1   2
BRANCH   1  12
ATOM     12  O   UNL d   1      33.241  19.626 -22.504  0.00  0.00    -0.302 OA
BRANCH  12  13
ATOM     13  C   UNL d   1      32.976  19.011 -22.991  0.00  0.00     0.100 A 
ATOM     14  C   UNL d   1      33.004  18.231 -22.723  0.00  0.00     0.025 A 
ATOM     15  C   UNL d   1      32.747  17.628 -23.196  0.00  0.00     0.007 A 
ATOM     16  C   UNL d   1      32.447  17.784 -23.965  0.00  0.00     0.063 A 
ATOM     17  C   UNL d   1      32.419  18.563 -24.233  0.00  0.00     0.007 A 
ATOM     18  C   UNL d   1      32.690  19.184 -23.731  0.00  0.00     0.025 A 
BRANCH  16  19
ATOM     19  C   UNL d   1      32.183  17.153 -24.447  0.00  0.00     0.296 C 
ATOM     20  O   UNL d   1      32.713  16.719 -24.906  0.00  0.00    -0.259 OA
BRANCH  19  21
ATOM     21  O   UNL d   1      31.366  16.976 -24.450  0.00  0.00    -0.296 OA
ATOM     22  C   UNL d   1      31.052  16.431 -24.984  0.00  0.00     0.185 C 
ENDBRANCH  19  21
ENDBRANCH  16  19
ENDBRANCH  12  13
ENDBRANCH   1  12
TORSDOF 6
ENDMDL
MODEL 4
REMARK VINA RESULT:      -1.7      0.926      5.073
REMARK  6 active torsions:
REMARK  status: ('A' for Active; 'I' for Inactive)
REMARK    1  A    between atoms: C_4  and  C_1 
REMARK    2  A    between atoms: C_3  and  C_7 
REMARK    3  A    between atoms: O_18  and  C_3 
REMARK    4  A    between atoms: C_9  and  C_4 
REMARK    5  A    between atoms: O_13  and  C_9 
REMARK    6  A    between atoms: C_15  and  O_13 
ROOT
ATOM      1  C   UNL d   1      32.480  19.008 -23.162  0.00  0.00     0.165 C 
ENDROOT
BRANCH   1   2
ATOM      2  C   UNL d   1      32.898  19.708 -23.171  0.00  0.00     0.223 C 
ATOM      3  O   UNL d   1      33.240  19.984 -23.869  0.00  0.00    -0.284 OA
BRANCH   2   4
ATOM      4  C   UNL d   1      32.977  20.149 -22.450  0.00  0.00     0.080 A 
ATOM      5  C   UNL d   1      32.863  20.955 -22.466  0.00  0.00     0.202 A 
ATOM      6  C   UNL d   1      32.938  21.403 -21.758  0.00  0.00     0.084 A 
ATOM      7  O   UNL d   1      32.674  21.321 -23.186  0.00  0.00    -0.286 OA
ATOM      8  C   UNL d   1      33.127  21.007 -21.059  0.00  0.00     0.199 A 
ATOM      9  C   UNL d   1      33.241  20.187 -21.051  0.00  0.00     0.042 A 
ATOM     10  O   UNL d   1      33.201  21.455 -20.352  0.00  0.00    -0.286 OA
ATOM     11  C   UNL d   1      33.165  19.765 -21.744  0.00  0.00     0.010 A 
ENDBRANCH   2   4
ENDBRANCH   1   2
BRANCH   1  12
ATOM     12  O   UNL d   1      32.634  18.423 -23.717  0.00  0.00    -0.302 OA
BRANCH  12  13
ATOM     13  C   UNL d   1      32.059  17.851 -23.887  0.00  0.00     0.100 A 
ATOM     14  C   UNL d   1      31.555  17.951 -24.533  0.00  0.00     0.025 A 
ATOM     15  C   UNL d   1      30.993  17.396 -24.700  0.00  0.00     0.007 A 
ATOM     16  C   UNL d   1      30.911  16.710 -24.223  0.00  0.00     0.063 A 
ATOM     17  C   UNL d   1      31.414  16.610 -23.577  0.00  0.00     0.007 A 
ATOM     18  C   UNL d   1      31.997  17.196 -23.411  0.00  0.00     0.025 A 
BRANCH  16  19
ATOM     19  C   UNL d   1      30.326  16.140 -24.404  0.00  0.00     0.296 C 
ATOM     20  O   UNL d   1      30.473  15.541 -24.952  0.00  0.00    -0.259 OA
BRANCH  19  21
ATOM     21  O   UNL d   1      29.588  16.196 -24.015  0.00  0.00    -0.296 OA
ATOM     22  C   UNL d   1      29.007  15.620 -24.122  0.00  0.00     0.185 C 
ENDBRANCH  19  21
ENDBRANCH  16  19
ENDBRANCH  12  13
ENDBRANCH   1  12
TORSDOF 6
ENDMDL
MODEL 5
REMARK VINA RESULT:      -1.4      1.040      1.431
REMARK  6 active torsions:
REMARK  status: ('A' for Active; 'I' for Inactive)
REMARK    1  A    between atoms: C_4  and  C_1 
REMARK    2  A    between atoms: C_3  and  C_7 
REMARK    3  A    between atoms: O_18  and  C_3 
REMARK    4  A    between atoms: C_9  and  C_4 
REMARK    5  A    between atoms: O_13  and  C_9 
REMARK    6  A    between atoms: C_15  and  O_13 
ROOT
ATOM      1  C   UNL d   1      32.464  18.922 -22.660  0.00  0.00     0.165 C 
ENDROOT
BRANCH   1   2
ATOM      2  C   UNL d   1      32.586  18.167 -22.943  0.00  0.00     0.223 C 
ATOM      3  O   UNL d   1      33.241  17.728 -22.698  0.00  0.00    -0.284 OA
BRANCH   2   4
ATOM      4  C   UNL d   1      32.030  17.838 -23.493  0.00  0.00     0.080 A 
ATOM      5  C   UNL d   1      31.997  17.030 -23.585  0.00  0.00     0.202 A 
ATOM      6  C   UNL d   1      31.449  16.692 -24.127  0.00  0.00     0.084 A 
ATOM      7  O   UNL d   1      32.507  16.552 -23.139  0.00  0.00    -0.286 OA
ATOM      8  C   UNL d   1      30.956  17.197 -24.555  0.00  0.00     0.199 A 
ATOM      9  C   UNL d   1      30.996  18.018 -24.456  0.00  0.00     0.042 A 
ATOM     10  O   UNL d   1      30.409  16.859 -25.097  0.00  0.00    -0.286 OA
ATOM     11  C   UNL d   1      31.531  18.331 -23.927  0.00  0.00     0.010 A 
ENDBRANCH   2   4
ENDBRANCH   1   2
BRANCH   1  12
ATOM     12  O   UNL d   1      33.032  19.292 -22.197  0.00  0.00    -0.302 OA
BRANCH  12  13
ATOM     13  C   UNL d   1      32.989  20.108 -22.062  0.00  0.00     0.100 A 
ATOM     14  C   UNL d   1      32.753  20.392 -21.325  0.00  0.00     0.025 A 
ATOM     15  C   UNL d   1      32.710  21.188 -21.190  0.00  0.00     0.007 A 
ATOM     16  C   UNL d   1      32.904  21.737 -21.795  0.00  0.00     0.063 A 
ATOM     17  C   UNL d   1      33.140  21.453 -22.533  0.00  0.00     0.007 A 
ATOM     18  C   UNL d   1      33.181  20.620 -22.662  0.00  0.00     0.025 A 
BRANCH  16  19
ATOM     19  C   UNL d   1      32.857  22.559 -21.646  0.00  0.00     0.296 C 
ATOM     20  O   UNL d   1      33.006  23.108 -22.244  0.00  0.00    -0.259 OA
BRANCH  19  21
ATOM     21  O   UNL d   1      32.653  22.808 -20.874  0.00  0.00    -0.296 OA
ATOM     22  C   UNL d   1      32.358  23.566 -20.737  0.00  0.00     0.185 C 
ENDBRANCH  19  21
ENDBRANCH  16  19
ENDBRANCH  12  13
ENDBRANCH   1  12
TORSDOF 6
ENDMDL
MODEL 6
REMARK VINA RESULT:      -0.8      2.253      5.271
REMARK  6 active torsions:
REMARK  status: ('A' for Active; 'I' for Inactive)
REMARK    1  A    between atoms: C_4  and  C_1 
REMARK    2  A    between atoms: C_3  and  C_7 
REMARK    3  A    between atoms: O_18  and  C_3 
REMARK    4  A    between atoms: C_9  and  C_4 
REMARK    5  A    between atoms: O_13  and  C_9 
REMARK    6  A    between atoms: C_15  and  O_13 
ROOT
ATOM      1  C   UNL d   1      31.560  17.602 -24.259  0.00  0.00     0.165 C 
ENDROOT
BRANCH   1   2
ATOM      2  C   UNL d   1      32.313  17.814 -24.489  0.00  0.00     0.223 C 
ATOM      3  O   UNL d   1      32.842  17.245 -24.768  0.00  0.00    -0.284 OA
BRANCH   2   4
ATOM      4  C   UNL d   1      32.546  18.628 -24.437  0.00  0.00     0.080 A 
ATOM      5  C   UNL d   1      32.992  18.871 -23.801  0.00  0.00     0.202 A 
ATOM      6  C   UNL d   1      33.229  19.677 -23.738  0.00  0.00     0.084 A 
ATOM      7  O   UNL d   1      33.206  18.317 -23.223  0.00  0.00    -0.286 OA
ATOM      8  C   UNL d   1      32.998  20.202 -24.332  0.00  0.00     0.199 A 
ATOM      9  C   UNL d   1      32.544  19.946 -24.975  0.00  0.00     0.042 A 
ATOM     10  O   UNL d   1      33.235  21.006 -24.269  0.00  0.00    -0.286 OA
ATOM     11  C   UNL d   1      32.322  19.165 -25.023  0.00  0.00     0.010 A 
ENDBRANCH   2   4
ENDBRANCH   1   2
BRANCH   1  12
ATOM     12  O   UNL d   1      31.303  16.826 -24.333  0.00  0.00    -0.302 OA
BRANCH  12  13
ATOM     13  C   UNL d   1      30.510  16.637 -24.186  0.00  0.00     0.100 A 
ATOM     14  C   UNL d   1      30.322  16.033 -23.656  0.00  0.00     0.025 A 
ATOM     15  C   UNL d   1      29.550  15.846 -23.510  0.00  0.00     0.007 A 
ATOM     16  C   UNL d   1      28.927  16.260 -23.893  0.00  0.00     0.063 A 
ATOM     17  C   UNL d   1      29.115  16.864 -24.423  0.00  0.00     0.007 A 
ATOM     18  C   UNL d   1      29.925  17.051 -24.567  0.00  0.00     0.025 A 
BRANCH  16  19
ATOM     19  C   UNL d   1      28.131  16.059 -23.735  0.00  0.00     0.296 C 
ATOM     20  O   UNL d   1      27.728  15.517 -24.209  0.00  0.00    -0.259 OA
BRANCH  19  21
ATOM     21  O   UNL d   1      27.755  16.423 -23.083  0.00  0.00    -0.296 OA
ATOM     22  C   UNL d   1      27.131  16.052 -22.691  0.00  0.00     0.185 C 
ENDBRANCH  19  21
ENDBRANCH  16  19
ENDBRANCH  12  13
ENDBRANCH   1  12
TORSDOF 6
ENDMDL
