MODEL 1
REMARK VINA RESULT:      -4.9      0.000      0.000
REMARK  4 active torsions:
REMARK  status: ('A' for Active; 'I' for Inactive)
REMARK    1  A    between atoms: C_3  and  C_1 
REMARK    2  A    between atoms: C_2  and  C_3 
REMARK    3  A    between atoms: C_6  and  C_2 
REMARK    4  A    between atoms: C_16  and  C_6 
ROOT
ATOM      1  C   UNL d   1      56.011   0.311  32.967  0.00  0.00     0.119 A 
ATOM      2  C   UNL d   1      55.946  -0.499  33.081  0.00  0.00     0.119 A 
ATOM      3  O   UNL d   1      55.657   0.682  33.611  0.00  0.00    -0.300 OA
ATOM      4  O   UNL d   1      55.554  -0.633  33.792  0.00  0.00    -0.300 OA
ATOM      5  C   UNL d   1      55.375   0.108  34.120  0.00  0.00     0.304 A 
ATOM      6  C   UNL d   1      56.383   0.606  32.292  0.00  0.00     0.026 A 
ATOM      7  C   UNL d   1      56.695   0.076  31.722  0.00  0.00     0.002 A 
ATOM      8  C   UNL d   1      56.258  -1.029  32.512  0.00  0.00     0.026 A 
ATOM      9  C   UNL d   1      56.632  -0.744  31.833  0.00  0.00     0.002 A 
ENDROOT
BRANCH   7  10
ATOM     10  C   UNL d   1      57.079   0.363  31.027  0.00  0.00     0.003 C 
BRANCH  10  11
ATOM     11  C   UNL d   1      57.757  -0.028  30.757  0.00  0.00     0.043 C 
BRANCH  11  12
ATOM     12  C   UNL d   1      58.082   0.189  30.030  0.00  0.00     0.202 C 
ATOM     13  O   UNL d   1      57.659   0.682  29.524  0.00  0.00    -0.286 OA
BRANCH  12  14
ATOM     14  C   UNL d   1      58.826  -0.084  29.806  0.00  0.00     0.068 A 
ATOM     15  S   UNL d   1      59.594   0.207  29.946  0.00  0.00    -0.083 SA
ATOM     16  C   UNL d   1      60.122  -0.299  29.584  0.00  0.00     0.035 A 
ATOM     17  C   UNL d   1      59.699  -0.893  29.227  0.00  0.00     0.008 A 
ATOM     18  C   UNL d   1      58.903  -0.771  29.357  0.00  0.00     0.010 A 
ENDBRANCH  12  14
ENDBRANCH  11  12
ENDBRANCH  10  11
ENDBRANCH   7  10
TORSDOF 4
ENDMDL
MODEL 2
REMARK VINA RESULT:      -4.8      1.523      4.533
REMARK  4 active torsions:
REMARK  status: ('A' for Active; 'I' for Inactive)
REMARK    1  A    between atoms: C_3  and  C_1 
REMARK    2  A    between atoms: C_2  and  C_3 
REMARK    3  A    between atoms: C_6  and  C_2 
REMARK    4  A    between atoms: C_16  and  C_6 
ROOT
ATOM      1  C   UNL d   1      58.474  -0.652  29.800  0.00  0.00     0.119 A 
ATOM      2  C   UNL d   1      58.599   0.160  29.780  0.00  0.00     0.119 A 
ATOM      3  O   UNL d   1      58.943  -0.989  29.213  0.00  0.00    -0.300 OA
ATOM      4  O   UNL d   1      59.141   0.326  29.184  0.00  0.00    -0.300 OA
ATOM      5  C   UNL d   1      59.353  -0.394  28.833  0.00  0.00     0.304 A 
ATOM      6  C   UNL d   1      57.952  -0.978  30.350  0.00  0.00     0.026 A 
ATOM      7  C   UNL d   1      57.547  -0.478  30.888  0.00  0.00     0.002 A 
ATOM      8  C   UNL d   1      58.194   0.659  30.318  0.00  0.00     0.026 A 
ATOM      9  C   UNL d   1      57.669   0.343  30.871  0.00  0.00     0.002 A 
ENDROOT
BRANCH   7  10
ATOM     10  C   UNL d   1      57.009  -0.797  31.455  0.00  0.00     0.003 C 
BRANCH  10  11
ATOM     11  C   UNL d   1      56.754  -0.314  32.077  0.00  0.00     0.043 C 
BRANCH  11  12
ATOM     12  C   UNL d   1      56.256  -0.630  32.652  0.00  0.00     0.202 C 
ATOM     13  O   UNL d   1      56.075  -1.434  32.641  0.00  0.00    -0.286 OA
BRANCH  12  14
ATOM     14  C   UNL d   1      55.936  -0.150  33.240  0.00  0.00     0.068 A 
ATOM     15  S   UNL d   1      56.288   0.332  33.821  0.00  0.00    -0.083 SA
ATOM     16  C   UNL d   1      55.689   0.680  34.252  0.00  0.00     0.035 A 
ATOM     17  C   UNL d   1      54.980   0.426  33.951  0.00  0.00     0.008 A 
ATOM     18  C   UNL d   1      55.119  -0.084  33.330  0.00  0.00     0.010 A 
ENDBRANCH  12  14
ENDBRANCH  11  12
ENDBRANCH  10  11
ENDBRANCH   7  10
TORSDOF 4
ENDMDL
MODEL 3
REMARK VINA RESULT:      -4.1      1.834      4.534
REMARK  4 active torsions:
REMARK  status: ('A' for Active; 'I' for Inactive)
REMARK    1  A    between atoms: C_3  and  C_1 
REMARK    2  A    between atoms: C_2  and  C_3 
REMARK    3  A    between atoms: C_6  and  C_2 
REMARK    4  A    between atoms: C_16  and  C_6 
ROOT
ATOM      1  C   UNL d   1      59.028  -2.265  29.203  0.00  0.00     0.119 A 
ATOM      2  C   UNL d   1      59.783  -2.002  29.016  0.00  0.00     0.119 A 
ATOM      3  O   UNL d   1      58.999  -3.072  29.043  0.00  0.00    -0.300 OA
ATOM      4  O   UNL d   1      60.222  -2.643  28.741  0.00  0.00    -0.300 OA
ATOM      5  C   UNL d   1      59.727  -3.308  28.760  0.00  0.00     0.304 A 
ATOM      6  C   UNL d   1      58.466  -1.735  29.494  0.00  0.00     0.026 A 
ATOM      7  C   UNL d   1      58.668  -0.928  29.599  0.00  0.00     0.002 A 
ATOM      8  C   UNL d   1      59.985  -1.196  29.120  0.00  0.00     0.026 A 
ATOM      9  C   UNL d   1      59.430  -0.658  29.411  0.00  0.00     0.002 A 
ENDROOT
BRANCH   7  10
ATOM     10  C   UNL d   1      58.103  -0.374  29.896  0.00  0.00     0.003 C 
BRANCH  10  11
ATOM     11  C   UNL d   1      57.909  -0.398  30.700  0.00  0.00     0.043 C 
BRANCH  11  12
ATOM     12  C   UNL d   1      57.342   0.125  30.991  0.00  0.00     0.202 C 
ATOM     13  O   UNL d   1      57.000   0.680  30.487  0.00  0.00    -0.286 OA
BRANCH  12  14
ATOM     14  C   UNL d   1      57.114   0.099  31.782  0.00  0.00     0.068 A 
ATOM     15  S   UNL d   1      57.319   0.569  32.439  0.00  0.00    -0.083 SA
ATOM     16  C   UNL d   1      56.917   0.279  33.087  0.00  0.00     0.035 A 
ATOM     17  C   UNL d   1      56.471  -0.355  32.846  0.00  0.00     0.008 A 
ATOM     18  C   UNL d   1      56.585  -0.474  32.047  0.00  0.00     0.010 A 
ENDBRANCH  12  14
ENDBRANCH  11  12
ENDBRANCH  10  11
ENDBRANCH   7  10
TORSDOF 4
ENDMDL
MODEL 4
REMARK VINA RESULT:      -2.6      1.160      1.686
REMARK  4 active torsions:
REMARK  status: ('A' for Active; 'I' for Inactive)
REMARK    1  A    between atoms: C_3  and  C_1 
REMARK    2  A    between atoms: C_2  and  C_3 
REMARK    3  A    between atoms: C_6  and  C_2 
REMARK    4  A    between atoms: C_16  and  C_6 
ROOT
ATOM      1  C   UNL d   1      57.674   0.431  32.381  0.00  0.00     0.119 A 
ATOM      2  C   UNL d   1      56.872   0.324  32.239  0.00  0.00     0.119 A 
ATOM      3  O   UNL d   1      57.780   0.458  33.197  0.00  0.00    -0.300 OA
ATOM      4  O   UNL d   1      56.481   0.286  32.963  0.00  0.00    -0.300 OA
ATOM      5  C   UNL d   1      57.053   0.370  33.558  0.00  0.00     0.304 A 
ATOM      6  C   UNL d   1      58.202   0.488  31.749  0.00  0.00     0.026 A 
ATOM      7  C   UNL d   1      57.919   0.439  30.962  0.00  0.00     0.002 A 
ATOM      8  C   UNL d   1      56.589   0.275  31.452  0.00  0.00     0.026 A 
ATOM      9  C   UNL d   1      57.109   0.332  30.814  0.00  0.00     0.002 A 
ENDROOT
BRANCH   7  10
ATOM     10  C   UNL d   1      58.448   0.496  30.306  0.00  0.00     0.003 C 
BRANCH  10  11
ATOM     11  C   UNL d   1      58.744  -0.201  29.972  0.00  0.00     0.043 C 
BRANCH  11  12
ATOM     12  C   UNL d   1      59.356  -0.153  29.422  0.00  0.00     0.202 C 
ATOM     13  O   UNL d   1      59.567   0.578  29.106  0.00  0.00    -0.286 OA
BRANCH  12  14
ATOM     14  C   UNL d   1      59.761  -0.830  29.185  0.00  0.00     0.068 A 
ATOM     15  S   UNL d   1      59.506  -1.608  29.033  0.00  0.00    -0.083 SA
ATOM     16  C   UNL d   1      60.160  -2.046  28.815  0.00  0.00     0.035 A 
ATOM     17  C   UNL d   1      60.808  -1.557  28.829  0.00  0.00     0.008 A 
ATOM     18  C   UNL d   1      60.574  -0.809  29.055  0.00  0.00     0.010 A 
ENDBRANCH  12  14
ENDBRANCH  11  12
ENDBRANCH  10  11
ENDBRANCH   7  10
TORSDOF 4
ENDMDL
