MODEL 1
REMARK VINA RESULT:      -6.2      0.000      0.000
REMARK  2 active torsions:
REMARK  status: ('A' for Active; 'I' for Inactive)
REMARK    1  A    between atoms: C_9  and  C_1 
REMARK    2  A    between atoms: O_13  and  C_11 
ROOT
ATOM      1  C   UNL d   1     -41.682-122.736 -53.497  0.00  0.00     0.064 A 
ATOM      2  C   UNL d   1     -41.501-122.207 -52.898  0.00  0.00     0.199 A 
ATOM      3  C   UNL d   1     -41.401-122.452 -52.112  0.00  0.00     0.062 A 
ATOM      4  C   UNL d   1     -41.771-123.558 -53.311  0.00  0.00     0.126 A 
ATOM      5  C   UNL d   1     -41.488-123.253 -51.930  0.00  0.00     0.105 A 
ATOM      6  O   UNL d   1     -41.675-123.816 -52.533  0.00  0.00    -0.305 OA
ATOM      7  C   UNL d   1     -41.225-121.929 -51.539  0.00  0.00     0.007 A 
ATOM      8  C   UNL d   1     -41.399-123.538 -51.174  0.00  0.00     0.049 A 
ATOM      9  O   UNL d   1     -41.415-121.411 -53.079  0.00  0.00    -0.286 OA
ATOM     10  C   UNL d   1     -41.216-122.998 -50.577  0.00  0.00     0.096 A 
ATOM     11  C   UNL d   1     -41.127-122.176 -50.764  0.00  0.00     0.024 A 
ENDROOT
BRANCH   1  12
ATOM     12  C   UNL d   1     -41.772-122.462 -54.251  0.00  0.00     0.005 A 
ATOM     13  C   UNL d   1     -41.159-122.579 -54.819  0.00  0.00     0.000 A 
ATOM     14  C   UNL d   1     -41.249-122.305 -55.572  0.00  0.00     0.000 A 
ATOM     15  C   UNL d   1     -41.938-121.909 -55.800  0.00  0.00     0.000 A 
ATOM     16  C   UNL d   1     -42.554-121.787 -55.244  0.00  0.00     0.000 A 
ATOM     17  C   UNL d   1     -42.461-122.065 -54.479  0.00  0.00     0.000 A 
ENDBRANCH   1  12
BRANCH  10  18
ATOM     18  O   UNL d   1     -41.123-123.302 -49.777  0.00  0.00    -0.328 OA
ATOM     19  C   UNL d   1     -41.721-123.164 -49.234  0.00  0.00     0.181 C 
ENDBRANCH  10  18
TORSDOF 2
ENDMDL
MODEL 2
REMARK VINA RESULT:      -5.7      0.600      1.412
REMARK  2 active torsions:
REMARK  status: ('A' for Active; 'I' for Inactive)
REMARK    1  A    between atoms: C_9  and  C_1 
REMARK    2  A    between atoms: O_13  and  C_11 
ROOT
ATOM      1  C   UNL d   1     -41.544-122.334 -52.934  0.00  0.00     0.064 A 
ATOM      2  C   UNL d   1     -41.618-123.037 -52.520  0.00  0.00     0.199 A 
ATOM      3  C   UNL d   1     -41.501-123.078 -51.700  0.00  0.00     0.062 A 
ATOM      4  C   UNL d   1     -41.342-121.625 -52.514  0.00  0.00     0.126 A 
ATOM      5  C   UNL d   1     -41.305-122.388 -51.291  0.00  0.00     0.105 A 
ATOM      6  O   UNL d   1     -41.223-121.651 -51.698  0.00  0.00    -0.305 OA
ATOM      7  C   UNL d   1     -41.576-123.767 -51.309  0.00  0.00     0.007 A 
ATOM      8  C   UNL d   1     -41.181-122.381 -50.487  0.00  0.00     0.049 A 
ATOM      9  O   UNL d   1     -41.813-123.723 -52.927  0.00  0.00    -0.286 OA
ATOM     10  C   UNL d   1     -41.258-123.094 -50.079  0.00  0.00     0.096 A 
ATOM     11  C   UNL d   1     -41.460-123.802 -50.499  0.00  0.00     0.024 A 
ENDROOT
BRANCH   1  12
ATOM     12  C   UNL d   1     -41.665-122.331 -53.732  0.00  0.00     0.005 A 
ATOM     13  C   UNL d   1     -42.349-121.958 -54.054  0.00  0.00     0.000 A 
ATOM     14  C   UNL d   1     -42.470-121.955 -54.852  0.00  0.00     0.000 A 
ATOM     15  C   UNL d   1     -41.930-122.315 -55.364  0.00  0.00     0.000 A 
ATOM     16  C   UNL d   1     -41.245-122.689 -55.055  0.00  0.00     0.000 A 
ATOM     17  C   UNL d   1     -41.124-122.691 -54.245  0.00  0.00     0.000 A 
ENDBRANCH   1  12
BRANCH  10  18
ATOM     18  O   UNL d   1     -41.127-123.084 -49.228  0.00  0.00    -0.328 OA
ATOM     19  C   UNL d   1     -41.744-123.307 -48.735  0.00  0.00     0.181 C 
ENDBRANCH  10  18
TORSDOF 2
ENDMDL
MODEL 3
REMARK VINA RESULT:      -5.5      0.834      4.167
REMARK  2 active torsions:
REMARK  status: ('A' for Active; 'I' for Inactive)
REMARK    1  A    between atoms: C_9  and  C_1 
REMARK    2  A    between atoms: O_13  and  C_11 
ROOT
ATOM      1  C   UNL d   1     -41.623-122.436 -51.195  0.00  0.00     0.064 A 
ATOM      2  C   UNL d   1     -41.572-123.032 -51.754  0.00  0.00     0.199 A 
ATOM      3  C   UNL d   1     -41.461-122.870 -52.561  0.00  0.00     0.062 A 
ATOM      4  C   UNL d   1     -41.561-121.628 -51.445  0.00  0.00     0.126 A 
ATOM      5  C   UNL d   1     -41.400-122.083 -52.804  0.00  0.00     0.105 A 
ATOM      6  O   UNL d   1     -41.450-121.452 -52.243  0.00  0.00    -0.305 OA
ATOM      7  C   UNL d   1     -41.412-123.458 -53.094  0.00  0.00     0.007 A 
ATOM      8  C   UNL d   1     -41.290-121.878 -53.582  0.00  0.00     0.049 A 
ATOM      9  O   UNL d   1     -41.633-123.815 -51.513  0.00  0.00    -0.286 OA
ATOM     10  C   UNL d   1     -41.240-122.485 -54.139  0.00  0.00     0.096 A 
ATOM     11  C   UNL d   1     -41.302-123.293 -53.889  0.00  0.00     0.024 A 
ENDROOT
BRANCH   1  12
ATOM     12  C   UNL d   1     -41.732-122.631 -50.419  0.00  0.00     0.005 A 
ATOM     13  C   UNL d   1     -42.475-122.485 -50.048  0.00  0.00     0.000 A 
ATOM     14  C   UNL d   1     -42.584-122.680 -49.272  0.00  0.00     0.000 A 
ATOM     15  C   UNL d   1     -41.974-123.023 -48.832  0.00  0.00     0.000 A 
ATOM     16  C   UNL d   1     -41.232-123.173 -49.191  0.00  0.00     0.000 A 
ATOM     17  C   UNL d   1     -41.123-122.975 -49.979  0.00  0.00     0.000 A 
ENDBRANCH   1  12
BRANCH  10  18
ATOM     18  O   UNL d   1     -41.124-122.264 -54.963  0.00  0.00    -0.328 OA
ATOM     19  C   UNL d   1     -41.780-122.226 -55.453  0.00  0.00     0.181 C 
ENDBRANCH  10  18
TORSDOF 2
ENDMDL
MODEL 4
REMARK VINA RESULT:      -5.3      0.904      4.162
REMARK  2 active torsions:
REMARK  status: ('A' for Active; 'I' for Inactive)
REMARK    1  A    between atoms: C_9  and  C_1 
REMARK    2  A    between atoms: O_13  and  C_11 
ROOT
ATOM      1  C   UNL d   1     -41.647-123.110 -50.594  0.00  0.00     0.064 A 
ATOM      2  C   UNL d   1     -41.753-122.429 -51.038  0.00  0.00     0.199 A 
ATOM      3  C   UNL d   1     -41.606-122.411 -51.855  0.00  0.00     0.062 A 
ATOM      4  C   UNL d   1     -41.380-123.817 -50.977  0.00  0.00     0.126 A 
ATOM      5  C   UNL d   1     -41.346-123.100 -52.228  0.00  0.00     0.105 A 
ATOM      6  O   UNL d   1     -41.230-123.814 -51.788  0.00  0.00    -0.305 OA
ATOM      7  C   UNL d   1     -41.713-121.744 -52.275  0.00  0.00     0.007 A 
ATOM      8  C   UNL d   1     -41.190-123.129 -53.025  0.00  0.00     0.049 A 
ATOM      9  O   UNL d   1     -42.011-121.744 -50.667  0.00  0.00    -0.286 OA
ATOM     10  C   UNL d   1     -41.300-122.439 -53.465  0.00  0.00     0.096 A 
ATOM     11  C   UNL d   1     -41.567-121.732 -53.081  0.00  0.00     0.024 A 
ENDROOT
BRANCH   1  12
ATOM     12  C   UNL d   1     -41.799-123.091 -49.801  0.00  0.00     0.005 A 
ATOM     13  C   UNL d   1     -41.162-123.061 -49.250  0.00  0.00     0.000 A 
ATOM     14  C   UNL d   1     -41.314-123.042 -48.457  0.00  0.00     0.000 A 
ATOM     15  C   UNL d   1     -42.091-123.051 -48.175  0.00  0.00     0.000 A 
ATOM     16  C   UNL d   1     -42.732-123.080 -48.714  0.00  0.00     0.000 A 
ATOM     17  C   UNL d   1     -42.576-123.100 -49.518  0.00  0.00     0.000 A 
ENDBRANCH   1  12
BRANCH  10  18
ATOM     18  O   UNL d   1     -41.134-122.472 -54.309  0.00  0.00    -0.328 OA
ATOM     19  C   UNL d   1     -41.766-122.520 -54.829  0.00  0.00     0.181 C 
ENDBRANCH  10  18
TORSDOF 2
ENDMDL
MODEL 5
REMARK VINA RESULT:      -3.6      1.544      2.831
REMARK  2 active torsions:
REMARK  status: ('A' for Active; 'I' for Inactive)
REMARK    1  A    between atoms: C_9  and  C_1 
REMARK    2  A    between atoms: O_13  and  C_11 
ROOT
ATOM      1  C   UNL d   1     -41.933-122.666 -51.023  0.00  0.00     0.064 A 
ATOM      2  C   UNL d   1     -41.660-123.230 -50.495  0.00  0.00     0.199 A 
ATOM      3  C   UNL d   1     -41.910-123.249 -49.704  0.00  0.00     0.062 A 
ATOM      4  C   UNL d   1     -42.488-122.083 -50.755  0.00  0.00     0.126 A 
ATOM      5  C   UNL d   1     -42.450-122.681 -49.444  0.00  0.00     0.105 A 
ATOM      6  O   UNL d   1     -42.745-122.090 -49.972  0.00  0.00    -0.305 OA
ATOM      7  C   UNL d   1     -41.638-123.803 -49.201  0.00  0.00     0.007 A 
ATOM      8  C   UNL d   1     -42.722-122.662 -48.678  0.00  0.00     0.049 A 
ATOM      9  O   UNL d   1     -41.123-123.795 -50.754  0.00  0.00    -0.286 OA
ATOM     10  C   UNL d   1     -42.442-123.233 -48.154  0.00  0.00     0.096 A 
ATOM     11  C   UNL d   1     -41.888-123.817 -48.421  0.00  0.00     0.024 A 
ENDROOT
BRANCH   1  12
ATOM     12  C   UNL d   1     -41.668-122.678 -51.785  0.00  0.00     0.005 A 
ATOM     13  C   UNL d   1     -41.445-121.959 -52.166  0.00  0.00     0.000 A 
ATOM     14  C   UNL d   1     -41.180-121.971 -52.928  0.00  0.00     0.000 A 
ATOM     15  C   UNL d   1     -41.123-122.682 -53.346  0.00  0.00     0.000 A 
ATOM     16  C   UNL d   1     -41.342-123.403 -52.977  0.00  0.00     0.000 A 
ATOM     17  C   UNL d   1     -41.610-123.389 -52.204  0.00  0.00     0.000 A 
ENDBRANCH   1  12
BRANCH  10  18
ATOM     18  O   UNL d   1     -42.732-123.210 -47.344  0.00  0.00    -0.328 OA
ATOM     19  C   UNL d   1     -42.193-123.306 -46.733  0.00  0.00     0.181 C 
ENDBRANCH  10  18
TORSDOF 2
ENDMDL
