MODEL 1
REMARK VINA RESULT:     148.0      0.000      0.000
REMARK  6 active torsions:
REMARK  status: ('A' for Active; 'I' for Inactive)
REMARK    1  A    between atoms: N_10  and  C_3 
REMARK    2  A    between atoms: C_9  and  C_4 
REMARK    3  A    between atoms: C_20  and  N_13 
REMARK    4  A    between atoms: O_24  and  C_14 
REMARK    5  A    between atoms: O_26  and  C_16 
REMARK    6  A    between atoms: C_25  and  C_20 
ROOT
ATOM      1  N   UNL d   1      61.582  45.061  50.846  0.00  0.00    -0.196 N 
ATOM      2  C   UNL d   1      61.501  45.852  50.625  0.00  0.00     0.167 A 
ATOM      3  C   UNL d   1      62.049  44.570  50.397  0.00  0.00     0.152 A 
ATOM      4  C   UNL d   1      61.041  46.356  51.059  0.00  0.00     0.055 A 
ATOM      5  N   UNL d   1      60.734  45.281  51.944  0.00  0.00    -0.163 NA
ATOM      6  C   UNL d   1      60.653  46.071  51.723  0.00  0.00     0.104 A 
ATOM      7  N   UNL d   1      61.889  46.136  49.961  0.00  0.00    -0.227 NA
ATOM      8  C   UNL d   1      62.438  44.839  49.737  0.00  0.00     0.057 A 
ATOM      9  C   UNL d   1      62.358  45.630  49.517  0.00  0.00     0.086 A 
ATOM     10  C   UNL d   1      60.191  46.563  52.164  0.00  0.00     0.023 C 
ATOM     11  C   UNL d   1      62.760  45.922  48.829  0.00  0.00     0.021 C 
ENDROOT
BRANCH   3  12
ATOM     12  N   UNL d   1      62.132  43.759  50.624  0.00  0.00    -0.286 N 
ATOM     13  C   UNL d   1      62.865  43.541  50.264  0.00  0.00     0.101 A 
ATOM     14  C   UNL d   1      63.157  42.754  50.359  0.00  0.00     0.100 A 
ATOM     15  N   UNL d   1      62.726  42.185  50.807  0.00  0.00    -0.300 N 
ATOM     16  C   UNL d   1      61.984  42.412  51.168  0.00  0.00     0.100 A 
ATOM     17  C   UNL d   1      61.690  43.191  51.078  0.00  0.00     0.101 A 
BRANCH  15  18
ATOM     18  C   UNL d   1      63.028  41.394  50.896  0.00  0.00     0.080 C 
BRANCH  18  19
ATOM     19  C   UNL d   1      62.835  40.806  50.321  0.00  0.00     0.018 A 
ATOM     20  C   UNL d   1      62.324  40.173  50.522  0.00  0.00     0.002 A 
ATOM     21  C   UNL d   1      62.131  39.585  49.943  0.00  0.00     0.000 A 
ATOM     22  C   UNL d   1      62.454  39.640  49.171  0.00  0.00     0.000 A 
ATOM     23  C   UNL d   1      62.968  40.280  48.974  0.00  0.00     0.000 A 
ATOM     24  C   UNL d   1      63.157  40.861  49.549  0.00  0.00     0.002 A 
ENDBRANCH  18  19
ENDBRANCH  15  18
ENDBRANCH   3  12
BRANCH   4  25
ATOM     25  C   UNL d   1      60.961  47.134  50.842  0.00  0.00     0.007 A 
ATOM     26  C   UNL d   1      61.026  47.716  51.408  0.00  0.00     0.026 A 
ATOM     27  C   UNL d   1      60.945  48.506  51.187  0.00  0.00     0.116 A 
ATOM     28  C   UNL d   1      60.802  48.699  50.405  0.00  0.00     0.116 A 
ATOM     29  C   UNL d   1      60.740  48.110  49.855  0.00  0.00     0.026 A 
ATOM     30  C   UNL d   1      60.821  47.323  50.075  0.00  0.00     0.002 A 
BRANCH  27  31
ATOM     31  O   UNL d   1      61.009  49.111  51.756  0.00  0.00    -0.326 OA
ATOM     32  C   UNL d   1      60.341  49.623  51.910  0.00  0.00     0.181 C 
ENDBRANCH  27  31
BRANCH  28  33
ATOM     33  O   UNL d   1      60.719  49.515  50.178  0.00  0.00    -0.326 OA
ATOM     34  C   UNL d   1      60.583  49.708  49.359  0.00  0.00     0.181 C 
ENDBRANCH  28  33
ENDBRANCH   4  25
TORSDOF 6
ENDMDL
