MODEL 1
REMARK VINA RESULT:      61.6      0.000      0.000
REMARK  4 active torsions:
REMARK  status: ('A' for Active; 'I' for Inactive)
REMARK    1  A    between atoms: N_2  and  S_1 
REMARK    2  A    between atoms: C_5  and  S_1 
REMARK    3  A    between atoms: C_4  and  N_2 
REMARK    4  A    between atoms: C_7  and  C_3 
ROOT
ATOM      1  S   UNL d   1     -51.078  26.378  34.028  0.00  0.00     0.285 S 
ATOM      2  O   UNL d   1     -51.830  26.672  34.272  0.00  0.00    -0.198 OA
ATOM      3  O   UNL d   1     -50.320  26.081  33.778  0.00  0.00    -0.198 OA
ENDROOT
BRANCH   1   4
ATOM      4  N   UNL d   1     -51.426  26.074  33.322  0.00  0.00    -0.158 NA
BRANCH   4   5
ATOM      5  C   UNL d   1     -51.839  25.338  33.318  0.00  0.00     0.094 A 
ATOM      6  C   UNL d   1     -51.431  24.665  33.319  0.00  0.00     0.018 A 
ATOM      7  C   UNL d   1     -51.789  23.920  33.315  0.00  0.00     0.002 A 
ATOM      8  C   UNL d   1     -50.640  24.746  33.323  0.00  0.00     0.002 C 
ATOM      9  C   UNL d   1     -52.639  23.885  33.311  0.00  0.00     0.000 A 
ATOM     10  C   UNL d   1     -53.013  24.591  33.310  0.00  0.00     0.002 A 
ATOM     11  C   UNL d   1     -53.088  23.201  33.306  0.00  0.00     0.000 C 
ATOM     12  C   UNL d   1     -52.659  25.343  33.314  0.00  0.00     0.018 A 
ATOM     13  C   UNL d   1     -53.096  26.016  33.313  0.00  0.00     0.002 C 
ENDBRANCH   4   5
ENDBRANCH   1   4
BRANCH   1  14
ATOM     14  C   UNL d   1     -50.728  26.688  34.744  0.00  0.00     0.106 A 
ATOM     15  C   UNL d   1     -51.105  26.500  35.462  0.00  0.00     0.020 A 
ATOM     16  C   UNL d   1     -50.780  26.791  36.162  0.00  0.00     0.076 A 
ATOM     17  C   UNL d   1     -50.099  27.257  36.153  0.00  0.00     0.064 A 
ATOM     18  C   UNL d   1     -49.729  27.440  35.444  0.00  0.00     0.012 A 
ATOM     19 CL   UNL d   1     -49.782  27.544  36.869  0.00  0.00    -0.082 Cl
ATOM     20  C   UNL d   1     -50.015  27.176  34.734  0.00  0.00     0.014 A 
BRANCH  16  21
ATOM     21  C   UNL d   1     -51.157  26.604  36.887  0.00  0.00     0.212 C 
ATOM     22  O   UNL d   1     -50.655  26.586  37.525  0.00  0.00    -0.644 OA
ATOM     23  O   UNL d   1     -52.000  26.452  36.912  0.00  0.00    -0.644 OA
ENDBRANCH  16  21
ENDBRANCH   1  14
TORSDOF 4
ENDMDL
MODEL 2
REMARK VINA RESULT:      64.1      2.267      3.214
REMARK  4 active torsions:
REMARK  status: ('A' for Active; 'I' for Inactive)
REMARK    1  A    between atoms: N_2  and  S_1 
REMARK    2  A    between atoms: C_5  and  S_1 
REMARK    3  A    between atoms: C_4  and  N_2 
REMARK    4  A    between atoms: C_7  and  C_3 
ROOT
ATOM      1  S   UNL d   1     -51.917  23.932  33.788  0.00  0.00     0.285 S 
ATOM      2  O   UNL d   1     -51.378  23.480  33.322  0.00  0.00    -0.198 OA
ATOM      3  O   UNL d   1     -52.464  24.385  34.259  0.00  0.00    -0.198 OA
ENDROOT
BRANCH   1   4
ATOM      4  N   UNL d   1     -52.433  23.266  33.839  0.00  0.00    -0.158 NA
BRANCH   4   5
ATOM      5  C   UNL d   1     -53.075  23.248  34.386  0.00  0.00     0.094 A 
ATOM      6  C   UNL d   1     -53.813  23.243  34.115  0.00  0.00     0.018 A 
ATOM      7  C   UNL d   1     -54.476  23.225  34.610  0.00  0.00     0.002 A 
ATOM      8  C   UNL d   1     -53.887  23.257  33.323  0.00  0.00     0.002 C 
ATOM      9  C   UNL d   1     -54.346  23.211  35.451  0.00  0.00     0.000 A 
ATOM     10  C   UNL d   1     -53.581  23.217  35.682  0.00  0.00     0.002 A 
ATOM     11  C   UNL d   1     -54.930  23.193  36.023  0.00  0.00     0.000 C 
ATOM     12  C   UNL d   1     -52.912  23.235  35.190  0.00  0.00     0.018 A 
ATOM     13  C   UNL d   1     -52.167  23.239  35.488  0.00  0.00     0.002 C 
ENDBRANCH   4   5
ENDBRANCH   1   4
BRANCH   1  14
ATOM     14  C   UNL d   1     -51.393  24.606  33.736  0.00  0.00     0.106 A 
ATOM     15  C   UNL d   1     -50.575  24.453  33.767  0.00  0.00     0.020 A 
ATOM     16  C   UNL d   1     -50.056  25.092  33.718  0.00  0.00     0.076 A 
ATOM     17  C   UNL d   1     -50.337  25.863  33.640  0.00  0.00     0.064 A 
ATOM     18  C   UNL d   1     -51.144  26.011  33.609  0.00  0.00     0.012 A 
ATOM     19 CL   UNL d   1     -49.800  26.499  33.591  0.00  0.00    -0.082 Cl
ATOM     20  C   UNL d   1     -51.688  25.414  33.654  0.00  0.00     0.014 A 
BRANCH  16  21
ATOM     21  C   UNL d   1     -49.231  24.941  33.750  0.00  0.00     0.212 C 
ATOM     22  O   UNL d   1     -49.029  24.313  34.222  0.00  0.00    -0.644 OA
ATOM     23  O   UNL d   1     -48.684  25.430  33.308  0.00  0.00    -0.644 OA
ENDBRANCH  16  21
ENDBRANCH   1  14
TORSDOF 4
ENDMDL
MODEL 3
REMARK VINA RESULT:      64.3      2.408      3.178
REMARK  4 active torsions:
REMARK  status: ('A' for Active; 'I' for Inactive)
REMARK    1  A    between atoms: N_2  and  S_1 
REMARK    2  A    between atoms: C_5  and  S_1 
REMARK    3  A    between atoms: C_4  and  N_2 
REMARK    4  A    between atoms: C_7  and  C_3 
ROOT
ATOM      1  S   UNL d   1     -48.929  27.605  34.022  0.00  0.00     0.285 S 
ATOM      2  O   UNL d   1     -48.884  26.897  34.478  0.00  0.00    -0.198 OA
ATOM      3  O   UNL d   1     -48.975  28.317  33.558  0.00  0.00    -0.198 OA
ENDROOT
BRANCH   1   4
ATOM      4  N   UNL d   1     -49.176  27.157  33.351  0.00  0.00    -0.158 NA
BRANCH   4   5
ATOM      5  C   UNL d   1     -49.916  26.751  33.343  0.00  0.00     0.094 A 
ATOM      6  C   UNL d   1     -49.923  25.964  33.327  0.00  0.00     0.018 A 
ATOM      7  C   UNL d   1     -50.621  25.520  33.317  0.00  0.00     0.002 A 
ATOM      8  C   UNL d   1     -49.209  25.615  33.319  0.00  0.00     0.002 C 
ATOM      9  C   UNL d   1     -51.362  25.939  33.326  0.00  0.00     0.000 A 
ATOM     10  C   UNL d   1     -51.307  26.736  33.342  0.00  0.00     0.002 A 
ATOM     11  C   UNL d   1     -52.103  25.594  33.318  0.00  0.00     0.000 C 
ATOM     12  C   UNL d   1     -50.609  27.188  33.352  0.00  0.00     0.018 A 
ATOM     13  C   UNL d   1     -50.625  27.989  33.368  0.00  0.00     0.002 C 
ENDBRANCH   4   5
ENDBRANCH   1   4
BRANCH   1  14
ATOM     14  C   UNL d   1     -48.678  28.057  34.703  0.00  0.00     0.106 A 
ATOM     15  C   UNL d   1     -48.232  28.745  34.558  0.00  0.00     0.020 A 
ATOM     16  C   UNL d   1     -47.982  29.193  35.204  0.00  0.00     0.076 A 
ATOM     17  C   UNL d   1     -48.167  28.966  35.975  0.00  0.00     0.064 A 
ATOM     18  C   UNL d   1     -48.606  28.288  36.115  0.00  0.00     0.012 A 
ATOM     19 CL   UNL d   1     -47.907  29.429  36.619  0.00  0.00    -0.082 Cl
ATOM     20  C   UNL d   1     -48.872  27.820  35.511  0.00  0.00     0.014 A 
BRANCH  16  21
ATOM     21  C   UNL d   1     -47.533  29.887  35.061  0.00  0.00     0.212 C 
ATOM     22  O   UNL d   1     -46.734  29.757  35.009  0.00  0.00    -0.644 OA
ATOM     23  O   UNL d   1     -47.921  30.647  34.984  0.00  0.00    -0.644 OA
ENDBRANCH  16  21
ENDBRANCH   1  14
TORSDOF 4
ENDMDL
