MODEL 1
REMARK VINA RESULT:       7.6      0.000      0.000
REMARK  4 active torsions:
REMARK  status: ('A' for Active; 'I' for Inactive)
REMARK    1  A    between atoms: N_5  and  C_1 
REMARK    2  A    between atoms: C_10  and  C_2 
REMARK    3  A    between atoms: C_12  and  N_3 
REMARK       I    between atoms: C_8  and  N_5 
REMARK    4  A    between atoms: C_9  and  C_8 
ROOT
ATOM      1  C   UNL d   1      59.462   0.251  31.272  0.00  0.00     0.170 A 
ATOM      2  C   UNL d   1      59.216   0.398  32.047  0.00  0.00     0.076 A 
ATOM      3  N   UNL d   1      60.273   0.238  31.092  0.00  0.00    -0.212 N 
ATOM      4  N   UNL d   1      60.826   0.372  31.691  0.00  0.00    -0.161 NA
ATOM      5  C   UNL d   1      59.776   0.532  32.643  0.00  0.00     0.218 A 
ATOM      6  C   UNL d   1      60.579   0.519  32.466  0.00  0.00     0.140 A 
ATOM      7  O   UNL d   1      59.530   0.679  33.418  0.00  0.00    -0.285 OA
ATOM      8  C   UNL d   1      61.132   0.655  33.068  0.00  0.00     0.026 C 
ENDROOT
BRANCH   1   9
ATOM      9  N   UNL d   1      58.913   0.118  30.681  0.00  0.00    -0.188 NA
ATOM     10  C   UNL d   1      58.356  -0.373  30.315  0.00  0.00     0.286 C 
ATOM     11  O   UNL d   1      58.215  -1.119  30.630  0.00  0.00    -0.265 OA
BRANCH  10  12
ATOM     12  C   UNL d   1      57.955  -0.113  29.650  0.00  0.00     0.087 A 
ATOM     13  S   UNL d   1      57.774   0.671  29.457  0.00  0.00    -0.082 SA
ATOM     14  C   UNL d   1      57.368   0.664  28.741  0.00  0.00     0.036 A 
ATOM     15  C   UNL d   1      57.292  -0.110  28.485  0.00  0.00     0.008 A 
ATOM     16  C   UNL d   1      57.658  -0.598  29.051  0.00  0.00     0.012 A 
ENDBRANCH  10  12
ENDBRANCH   1   9
BRANCH   2  17
ATOM     17  C   UNL d   1      58.415   0.412  32.229  0.00  0.00     0.006 A 
ATOM     18  C   UNL d   1      58.159   0.177  32.972  0.00  0.00     0.001 A 
ATOM     19  C   UNL d   1      57.349   0.190  33.155  0.00  0.00     0.011 A 
ATOM     20  C   UNL d   1      56.807   0.441  32.589  0.00  0.00     0.058 A 
ATOM     21  C   UNL d   1      57.064   0.679  31.837  0.00  0.00     0.011 A 
ATOM     22 CL   UNL d   1      56.003   0.453  32.775  0.00  0.00    -0.082 Cl
ATOM     23  C   UNL d   1      57.869   0.662  31.663  0.00  0.00     0.001 A 
ENDBRANCH   2  17
BRANCH   3  24
ATOM     24  C   UNL d   1      60.521   0.092  30.321  0.00  0.00     0.085 A 
ATOM     25  C   UNL d   1      60.835  -0.648  30.125  0.00  0.00     0.019 A 
ATOM     26  C   UNL d   1      61.085  -0.794  29.345  0.00  0.00     0.002 A 
ATOM     27  C   UNL d   1      61.020  -0.208  28.776  0.00  0.00     0.000 A 
ATOM     28  C   UNL d   1      60.704   0.531  28.981  0.00  0.00     0.002 A 
ATOM     29  C   UNL d   1      60.456   0.678  29.752  0.00  0.00     0.019 A 
ENDBRANCH   3  24
TORSDOF 4
ENDMDL
MODEL 2
REMARK VINA RESULT:       8.0      1.538      3.041
REMARK  4 active torsions:
REMARK  status: ('A' for Active; 'I' for Inactive)
REMARK    1  A    between atoms: N_5  and  C_1 
REMARK    2  A    between atoms: C_10  and  C_2 
REMARK    3  A    between atoms: C_12  and  N_3 
REMARK       I    between atoms: C_8  and  N_5 
REMARK    4  A    between atoms: C_9  and  C_8 
ROOT
ATOM      1  C   UNL d   1      58.561  -1.217  30.285  0.00  0.00     0.170 A 
ATOM      2  C   UNL d   1      57.790  -1.298  30.572  0.00  0.00     0.076 A 
ATOM      3  N   UNL d   1      58.830  -1.717  29.679  0.00  0.00    -0.212 N 
ATOM      4  N   UNL d   1      58.324  -2.291  29.369  0.00  0.00    -0.161 NA
ATOM      5  C   UNL d   1      57.288  -1.877  30.256  0.00  0.00     0.218 A 
ATOM      6  C   UNL d   1      57.553  -2.372  29.656  0.00  0.00     0.140 A 
ATOM      7  O   UNL d   1      56.517  -1.958  30.544  0.00  0.00    -0.285 OA
ATOM      8  C   UNL d   1      57.044  -2.949  29.347  0.00  0.00     0.026 C 
ENDROOT
BRANCH   1   9
ATOM      9  N   UNL d   1      59.059  -0.648  30.593  0.00  0.00    -0.188 NA
ATOM     10  C   UNL d   1      59.338   0.132  30.608  0.00  0.00     0.286 C 
ATOM     11  O   UNL d   1      59.011   0.682  30.090  0.00  0.00    -0.265 OA
BRANCH  10  12
ATOM     12  C   UNL d   1      59.930   0.346  31.132  0.00  0.00     0.087 A 
ATOM     13  S   UNL d   1      59.846   0.479  31.944  0.00  0.00    -0.082 SA
ATOM     14  C   UNL d   1      60.586   0.681  32.241  0.00  0.00     0.036 A 
ATOM     15  C   UNL d   1      61.130   0.677  31.629  0.00  0.00     0.008 A 
ATOM     16  C   UNL d   1      60.723   0.468  30.934  0.00  0.00     0.012 A 
ENDBRANCH  10  12
ENDBRANCH   1   9
BRANCH   2  17
ATOM     17  C   UNL d   1      57.520  -0.805  31.172  0.00  0.00     0.006 A 
ATOM     18  C   UNL d   1      57.561  -1.051  31.954  0.00  0.00     0.001 A 
ATOM     19  C   UNL d   1      57.288  -0.552  32.560  0.00  0.00     0.011 A 
ATOM     20  C   UNL d   1      56.977   0.186  32.371  0.00  0.00     0.058 A 
ATOM     21  C   UNL d   1      56.935   0.435  31.581  0.00  0.00     0.011 A 
ATOM     22 CL   UNL d   1      56.707   0.678  32.975  0.00  0.00    -0.082 Cl
ATOM     23  C   UNL d   1      57.208  -0.065  30.986  0.00  0.00     0.001 A 
ENDBRANCH   2  17
BRANCH   3  24
ATOM     24  C   UNL d   1      59.597  -1.638  29.391  0.00  0.00     0.085 A 
ATOM     25  C   UNL d   1      59.773  -1.033  28.855  0.00  0.00     0.019 A 
ATOM     26  C   UNL d   1      60.548  -0.955  28.564  0.00  0.00     0.002 A 
ATOM     27  C   UNL d   1      61.133  -1.474  28.809  0.00  0.00     0.000 A 
ATOM     28  C   UNL d   1      60.948  -2.078  29.347  0.00  0.00     0.002 A 
ATOM     29  C   UNL d   1      60.181  -2.157  29.636  0.00  0.00     0.019 A 
ENDBRANCH   3  24
TORSDOF 4
ENDMDL
