MODEL 1
REMARK VINA RESULT:      50.0      0.000      0.000
REMARK  4 active torsions:
REMARK  status: ('A' for Active; 'I' for Inactive)
REMARK    1  A    between atoms: N_2  and  C_1 
REMARK    2  A    between atoms: C_3  and  C_1 
REMARK       I    between atoms: C_6  and  N_2 
REMARK    3  A    between atoms: S_9  and  C_6 
REMARK    4  A    between atoms: C_14  and  S_9 
ROOT
ATOM      1  C   UNL d   1     -57.283 -99.380 -43.946  0.00  0.00     0.385 A 
ATOM      2  O   UNL d   1     -57.898 -99.280 -44.468  0.00  0.00    -0.283 OA
ATOM      3  O   UNL d   1     -57.580 -99.256 -43.175  0.00  0.00    -0.283 OA
ATOM      4  C   UNL d   1     -58.383 -99.081 -43.244  0.00  0.00     0.121 A 
ATOM      5  C   UNL d   1     -58.582 -99.096 -44.053  0.00  0.00     0.121 A 
ATOM      6  C   UNL d   1     -59.347 -98.942 -44.288  0.00  0.00     0.026 A 
ATOM      7  C   UNL d   1     -58.952 -98.912 -42.686  0.00  0.00     0.026 A 
ATOM      8  C   UNL d   1     -59.730 -98.755 -42.930  0.00  0.00     0.002 A 
ATOM      9  C   UNL d   1     -59.923 -98.770 -43.715  0.00  0.00     0.002 A 
ENDROOT
BRANCH   1  10
ATOM     10  N   UNL d   1     -56.472 -99.569 -44.046  0.00  0.00    -0.171 NA
ATOM     11  C   UNL d   1     -56.176-100.283 -43.757  0.00  0.00     0.310 C 
ATOM     12  O   UNL d   1     -56.672-100.810 -43.369  0.00  0.00    -0.258 OA
BRANCH  11  13
ATOM     13  S   UNL d   1     -55.375-100.466 -43.857  0.00  0.00    -0.026 SA
BRANCH  13  14
ATOM     14  C   UNL d   1     -55.155-101.154 -44.256  0.00  0.00     0.034 A 
ATOM     15  C   UNL d   1     -55.016-101.850 -43.836  0.00  0.00     0.007 A 
ATOM     16  C   UNL d   1     -54.796-102.535 -44.235  0.00  0.00     0.001 A 
ATOM     17  C   UNL d   1     -54.714-102.526 -45.057  0.00  0.00     0.000 A 
ATOM     18  C   UNL d   1     -54.851-101.833 -45.482  0.00  0.00     0.001 A 
ATOM     19  C   UNL d   1     -55.072-101.145 -45.078  0.00  0.00     0.007 A 
ENDBRANCH  13  14
ENDBRANCH  11  13
ENDBRANCH   1  10
BRANCH   1  20
ATOM     20  C   UNL d   1     -57.407 -99.412 -44.757  0.00  0.00     0.470 C 
ATOM     21  F   UNL d   1     -57.543 -99.458 -45.574  0.00  0.00    -0.164 F 
ATOM     22  F   UNL d   1     -57.902-100.078 -44.643  0.00  0.00    -0.164 F 
ATOM     23  F   UNL d   1     -56.921 -98.759 -44.863  0.00  0.00    -0.164 F 
ENDBRANCH   1  20
TORSDOF 4
ENDMDL
