MODEL 1
REMARK VINA RESULT:      -3.2      0.000      0.000
REMARK  4 active torsions:
REMARK  status: ('A' for Active; 'I' for Inactive)
REMARK    1  A    between atoms: C_7  and  C_1 
REMARK    2  A    between atoms: S_4  and  O_12 
REMARK    3  A    between atoms: O_12  and  C_10 
REMARK    4  A    between atoms: C_25  and  C_13 
ROOT
ATOM      1  C   UNL d   1      33.138  19.499 -22.702  0.00  0.00     0.064 A 
ATOM      2  C   UNL d   1      33.167  20.917 -22.563  0.00  0.00     0.062 A 
ATOM      3  C   UNL d   1      33.182  20.248 -23.041  0.00  0.00     0.199 A 
ATOM      4  C   UNL d   1      33.078  19.416 -21.876  0.00  0.00     0.126 A 
ATOM      5  C   UNL d   1      33.108  20.839 -21.744  0.00  0.00     0.105 A 
ATOM      6  O   UNL d   1      33.063  20.097 -21.393  0.00  0.00    -0.305 OA
ATOM      7  C   UNL d   1      33.211  21.665 -22.897  0.00  0.00     0.007 A 
ATOM      8  C   UNL d   1      33.137  22.252 -21.600  0.00  0.00     0.115 A 
ATOM      9  C   UNL d   1      33.093  21.502 -21.263  0.00  0.00     0.050 A 
ATOM     10  C   UNL d   1      33.196  22.334 -22.419  0.00  0.00     0.024 A 
ATOM     11  O   UNL d   1      33.241  20.329 -23.850  0.00  0.00    -0.286 OA
ENDROOT
BRANCH   1  12
ATOM     12  C   UNL d   1      33.153  18.830 -23.184  0.00  0.00     0.007 A 
ATOM     13  C   UNL d   1      33.178  18.081 -22.836  0.00  0.00     0.027 A 
ATOM     14  C   UNL d   1      33.193  17.412 -23.317  0.00  0.00     0.123 A 
ATOM     15  O   UNL d   1      33.219  16.653 -22.965  0.00  0.00    -0.301 OA
ATOM     16  C   UNL d   1      33.183  17.495 -24.146  0.00  0.00     0.123 A 
ATOM     17  C   UNL d   1      33.234  15.983 -23.459  0.00  0.00     0.149 A 
ATOM     18  C   UNL d   1      33.224  16.065 -24.280  0.00  0.00     0.149 A 
ATOM     19  O   UNL d   1      33.198  16.818 -24.628  0.00  0.00    -0.301 OA
ATOM     20  C   UNL d   1      33.158  18.236 -24.479  0.00  0.00     0.027 A 
ATOM     21  C   UNL d   1      33.142  18.912 -24.004  0.00  0.00     0.002 A 
ENDBRANCH   1  12
BRANCH  10  22
ATOM     22  C   UNL d   1      33.241  23.083 -22.757  0.00  0.00     0.002 C 
ATOM     23  C   UNL d   1      33.200  23.176 -23.576  0.00  0.00     0.000 C 
ENDBRANCH  10  22
BRANCH   8  24
ATOM     24  O   UNL d   1      33.122  22.920 -21.120  0.00  0.00    -0.230 OA
BRANCH  24  25
ATOM     25  S   UNL d   1      32.597  22.960 -20.484  0.00  0.00     0.285 S 
ATOM     26  O   UNL d   1      31.975  23.121 -21.001  0.00  0.00    -0.197 OA
ATOM     27  O   UNL d   1      33.216  22.798 -19.963  0.00  0.00    -0.197 OA
ATOM     28  C   UNL d   1      32.077  22.998 -19.846  0.00  0.00     0.172 C 
ENDBRANCH  24  25
ENDBRANCH   8  24
TORSDOF 4
ENDMDL
MODEL 2
REMARK VINA RESULT:      -2.3      1.206      2.043
REMARK  4 active torsions:
REMARK  status: ('A' for Active; 'I' for Inactive)
REMARK    1  A    between atoms: C_7  and  C_1 
REMARK    2  A    between atoms: S_4  and  O_12 
REMARK    3  A    between atoms: O_12  and  C_10 
REMARK    4  A    between atoms: C_25  and  C_13 
ROOT
ATOM      1  C   UNL d   1      32.700  18.847 -23.623  0.00  0.00     0.064 A 
ATOM      2  C   UNL d   1      32.911  19.790 -22.575  0.00  0.00     0.062 A 
ATOM      3  C   UNL d   1      32.801  19.014 -22.823  0.00  0.00     0.199 A 
ATOM      4  C   UNL d   1      32.711  19.464 -24.183  0.00  0.00     0.126 A 
ATOM      5  C   UNL d   1      32.921  20.404 -23.127  0.00  0.00     0.105 A 
ATOM      6  O   UNL d   1      32.822  20.251 -23.929  0.00  0.00    -0.305 OA
ATOM      7  C   UNL d   1      33.011  19.960 -21.778  0.00  0.00     0.007 A 
ATOM      8  C   UNL d   1      33.131  21.347 -22.085  0.00  0.00     0.115 A 
ATOM      9  C   UNL d   1      33.031  21.178 -22.885  0.00  0.00     0.050 A 
ATOM     10  C   UNL d   1      33.121  20.736 -21.531  0.00  0.00     0.024 A 
ATOM     11  O   UNL d   1      32.791  18.411 -22.274  0.00  0.00    -0.286 OA
ENDROOT
BRANCH   1  12
ATOM     12  C   UNL d   1      32.590  18.068 -23.868  0.00  0.00     0.007 A 
ATOM     13  C   UNL d   1      31.843  17.828 -24.129  0.00  0.00     0.027 A 
ATOM     14  C   UNL d   1      31.732  17.049 -24.374  0.00  0.00     0.123 A 
ATOM     15  O   UNL d   1      30.977  16.805 -24.639  0.00  0.00    -0.301 OA
ATOM     16  C   UNL d   1      32.369  16.513 -24.358  0.00  0.00     0.123 A 
ATOM     17  C   UNL d   1      30.874  16.016 -24.884  0.00  0.00     0.149 A 
ATOM     18  C   UNL d   1      31.505  15.484 -24.868  0.00  0.00     0.149 A 
ATOM     19  O   UNL d   1      32.254  15.728 -24.606  0.00  0.00    -0.301 OA
ATOM     20  C   UNL d   1      33.100  16.759 -24.099  0.00  0.00     0.027 A 
ATOM     21  C   UNL d   1      33.220  17.537 -23.852  0.00  0.00     0.002 A 
ENDBRANCH   1  12
BRANCH  10  22
ATOM     22  C   UNL d   1      33.221  20.903 -20.731  0.00  0.00     0.002 C 
ATOM     23  C   UNL d   1      33.075  20.325 -20.161  0.00  0.00     0.000 C 
ENDBRANCH  10  22
BRANCH   8  24
ATOM     24  O   UNL d   1      33.241  22.124 -21.841  0.00  0.00    -0.230 OA
BRANCH  24  25
ATOM     25  S   UNL d   1      32.665  22.693 -22.000  0.00  0.00     0.285 S 
ATOM     26  O   UNL d   1      32.149  22.326 -21.472  0.00  0.00    -0.197 OA
ATOM     27  O   UNL d   1      33.178  23.064 -22.530  0.00  0.00    -0.197 OA
ATOM     28  C   UNL d   1      32.092  23.264 -22.163  0.00  0.00     0.172 C 
ENDBRANCH  24  25
ENDBRANCH   8  24
TORSDOF 4
ENDMDL
MODEL 3
REMARK VINA RESULT:      -0.4      2.121      5.491
REMARK  4 active torsions:
REMARK  status: ('A' for Active; 'I' for Inactive)
REMARK    1  A    between atoms: C_7  and  C_1 
REMARK    2  A    between atoms: S_4  and  O_12 
REMARK    3  A    between atoms: O_12  and  C_10 
REMARK    4  A    between atoms: C_25  and  C_13 
ROOT
ATOM      1  C   UNL d   1      32.253  19.541 -23.026  0.00  0.00     0.064 A 
ATOM      2  C   UNL d   1      32.391  18.129 -23.155  0.00  0.00     0.062 A 
ATOM      3  C   UNL d   1      32.630  18.840 -22.818  0.00  0.00     0.199 A 
ATOM      4  C   UNL d   1      31.629  19.533 -23.579  0.00  0.00     0.126 A 
ATOM      5  C   UNL d   1      31.774  18.117 -23.703  0.00  0.00     0.105 A 
ATOM      6  O   UNL d   1      31.389  18.810 -23.919  0.00  0.00    -0.305 OA
ATOM      7  C   UNL d   1      32.765  17.427 -22.950  0.00  0.00     0.007 A 
ATOM      8  C   UNL d   1      31.909  16.708 -23.834  0.00  0.00     0.115 A 
ATOM      9  C   UNL d   1      31.533  17.411 -24.041  0.00  0.00     0.050 A 
ATOM     10  C   UNL d   1      32.527  16.716 -23.287  0.00  0.00     0.024 A 
ATOM     11  O   UNL d   1      33.240  18.848 -22.277  0.00  0.00    -0.286 OA
ENDROOT
BRANCH   1  12
ATOM     12  C   UNL d   1      32.494  20.252 -22.687  0.00  0.00     0.007 A 
ATOM     13  C   UNL d   1      32.274  20.424 -21.908  0.00  0.00     0.027 A 
ATOM     14  C   UNL d   1      32.515  21.134 -21.568  0.00  0.00     0.123 A 
ATOM     15  O   UNL d   1      32.293  21.310 -20.780  0.00  0.00    -0.301 OA
ATOM     16  C   UNL d   1      32.976  21.672 -22.007  0.00  0.00     0.123 A 
ATOM     17  C   UNL d   1      32.541  22.030 -20.445  0.00  0.00     0.149 A 
ATOM     18  C   UNL d   1      32.997  22.562 -20.880  0.00  0.00     0.149 A 
ATOM     19  O   UNL d   1      33.217  22.388 -21.661  0.00  0.00    -0.301 OA
ATOM     20  C   UNL d   1      33.187  21.494 -22.772  0.00  0.00     0.027 A 
ATOM     21  C   UNL d   1      32.950  20.784 -23.121  0.00  0.00     0.002 A 
ENDBRANCH   1  12
BRANCH  10  22
ATOM     22  C   UNL d   1      32.904  16.015 -23.079  0.00  0.00     0.002 C 
ATOM     23  C   UNL d   1      33.087  15.857 -22.290  0.00  0.00     0.000 C 
ENDBRANCH  10  22
BRANCH   8  24
ATOM     24  O   UNL d   1      31.668  15.998 -24.173  0.00  0.00    -0.230 OA
BRANCH  24  25
ATOM     25  S   UNL d   1      30.879  15.888 -24.384  0.00  0.00     0.285 S 
ATOM     26  O   UNL d   1      31.009  16.284 -25.097  0.00  0.00    -0.197 OA
ATOM     27  O   UNL d   1      30.743  15.492 -23.674  0.00  0.00    -0.197 OA
ATOM     28  C   UNL d   1      30.088  15.776 -24.592  0.00  0.00     0.172 C 
ENDBRANCH  24  25
ENDBRANCH   8  24
TORSDOF 4
ENDMDL
MODEL 4
REMARK VINA RESULT:      -0.3      4.133      5.865
REMARK  4 active torsions:
REMARK  status: ('A' for Active; 'I' for Inactive)
REMARK    1  A    between atoms: C_7  and  C_1 
REMARK    2  A    between atoms: S_4  and  O_12 
REMARK    3  A    between atoms: O_12  and  C_10 
REMARK    4  A    between atoms: C_25  and  C_13 
ROOT
ATOM      1  C   UNL d   1      29.436  16.809 -24.161  0.00  0.00     0.064 A 
ATOM      2  C   UNL d   1      30.842  16.736 -23.941  0.00  0.00     0.062 A 
ATOM      3  C   UNL d   1      30.094  16.401 -23.882  0.00  0.00     0.199 A 
ATOM      4  C   UNL d   1      29.526  17.562 -24.505  0.00  0.00     0.126 A 
ATOM      5  C   UNL d   1      30.935  17.482 -24.281  0.00  0.00     0.105 A 
ATOM      6  O   UNL d   1      30.287  17.900 -24.565  0.00  0.00    -0.305 OA
ATOM      7  C   UNL d   1      31.500  16.332 -23.663  0.00  0.00     0.007 A 
ATOM      8  C   UNL d   1      32.338  17.413 -24.063  0.00  0.00     0.115 A 
ATOM      9  C   UNL d   1      31.679  17.820 -24.343  0.00  0.00     0.050 A 
ATOM     10  C   UNL d   1      32.248  16.667 -23.723  0.00  0.00     0.024 A 
ATOM     11  O   UNL d   1      30.005  15.663 -23.545  0.00  0.00    -0.286 OA
ENDROOT
BRANCH   1  12
ATOM     12  C   UNL d   1      28.687  16.470 -24.100  0.00  0.00     0.007 A 
ATOM     13  C   UNL d   1      28.249  16.579 -23.407  0.00  0.00     0.027 A 
ATOM     14  C   UNL d   1      27.501  16.240 -23.345  0.00  0.00     0.123 A 
ATOM     15  O   UNL d   1      27.056  16.349 -22.645  0.00  0.00    -0.301 OA
ATOM     16  C   UNL d   1      27.192  15.793 -23.977  0.00  0.00     0.123 A 
ATOM     17  C   UNL d   1      26.301  16.004 -22.591  0.00  0.00     0.149 A 
ATOM     18  C   UNL d   1      25.995  15.561 -23.216  0.00  0.00     0.149 A 
ATOM     19  O   UNL d   1      26.437  15.453 -23.911  0.00  0.00    -0.301 OA
ATOM     20  C   UNL d   1      27.631  15.692 -24.654  0.00  0.00     0.027 A 
ATOM     21  C   UNL d   1      28.382  16.027 -24.725  0.00  0.00     0.002 A 
ENDBRANCH   1  12
BRANCH  10  22
ATOM     22  C   UNL d   1      32.906  16.259 -23.443  0.00  0.00     0.002 C 
ATOM     23  C   UNL d   1      33.036  15.474 -23.661  0.00  0.00     0.000 C 
ENDBRANCH  10  22
BRANCH   8  24
ATOM     24  O   UNL d   1      33.085  17.751 -24.124  0.00  0.00    -0.230 OA
BRANCH  24  25
ATOM     25  S   UNL d   1      33.163  18.556 -24.289  0.00  0.00     0.285 S 
ATOM     26  O   UNL d   1      33.206  18.722 -23.482  0.00  0.00    -0.197 OA
ATOM     27  O   UNL d   1      33.119  18.395 -25.097  0.00  0.00    -0.197 OA
ATOM     28  C   UNL d   1      33.240  19.360 -24.458  0.00  0.00     0.172 C 
ENDBRANCH  24  25
ENDBRANCH   8  24
TORSDOF 4
ENDMDL
