MODEL 1
REMARK VINA RESULT:      27.7      0.000      0.000
REMARK  3 active torsions:
REMARK  status: ('A' for Active; 'I' for Inactive)
REMARK    1  A    between atoms: C_9  and  S_1 
REMARK       I    between atoms: C_4  and  N_8 
REMARK    2  A    between atoms: C_5  and  C_4 
REMARK    3  A    between atoms: N_8  and  C_18 
ROOT
ATOM      1  C   UNL d   1      46.303 -19.501  44.345  0.00  0.00     0.302 C 
ATOM      2  N   UNL d   1      46.097 -18.991  44.954  0.00  0.00    -0.206 NA
ATOM      3  O   UNL d   1      46.433 -20.298  44.500  0.00  0.00    -0.263 OA
ENDROOT
BRANCH   1   4
ATOM      4  C   UNL d   1      46.382 -19.221  43.577  0.00  0.00     0.161 A 
ATOM      5  O   UNL d   1      46.437 -18.400  43.443  0.00  0.00    -0.268 OA
ATOM      6  C   UNL d   1      46.517 -18.113  42.666  0.00  0.00     0.300 A 
ATOM      7  O   UNL d   1      46.571 -17.303  42.535  0.00  0.00    -0.259 OA
ATOM      8  C   UNL d   1      46.542 -18.637  42.026  0.00  0.00     0.064 A 
ATOM      9  C   UNL d   1      46.487 -19.457  42.167  0.00  0.00     0.007 A 
ATOM     10  C   UNL d   1      46.621 -18.353  41.261  0.00  0.00     0.005 A 
ATOM     11  C   UNL d   1      46.407 -19.749  42.936  0.00  0.00     0.030 A 
ATOM     12  C   UNL d   1      46.512 -19.981  41.526  0.00  0.00     0.000 A 
ATOM     13  C   UNL d   1      46.591 -19.685  40.761  0.00  0.00     0.000 A 
ATOM     14  C   UNL d   1      46.646 -18.875  40.629  0.00  0.00     0.000 A 
ENDBRANCH   1   4
BRANCH   2  15
ATOM     15  C   UNL d   1      45.968 -18.191  44.794  0.00  0.00     0.085 A 
ATOM     16  C   UNL d   1      45.242 -17.948  44.504  0.00  0.00     0.020 A 
ATOM     17  C   UNL d   1      45.109 -17.153  44.344  0.00  0.00     0.015 A 
ATOM     18  C   UNL d   1      45.712 -16.601  44.477  0.00  0.00     0.107 A 
ATOM     19  C   UNL d   1      46.440 -16.854  44.770  0.00  0.00     0.015 A 
ATOM     20  C   UNL d   1      46.571 -17.642  44.928  0.00  0.00     0.020 A 
BRANCH  18  21
ATOM     21  S   UNL d   1      45.580 -15.805  44.317  0.00  0.00     0.302 S 
ATOM     22  O   UNL d   1      45.025 -15.936  43.737  0.00  0.00    -0.197 OA
ATOM     23  O   UNL d   1      46.145 -15.681  44.908  0.00  0.00    -0.197 OA
ATOM     24  N   UNL d   1      45.508 -14.995  44.219  0.00  0.00    -0.043 N 
ENDBRANCH  18  21
ENDBRANCH   2  15
TORSDOF 3
ENDMDL
