MODEL 1
REMARK VINA RESULT:      14.5      0.000      0.000
REMARK  7 active torsions:
REMARK  status: ('A' for Active; 'I' for Inactive)
REMARK    1  A    between atoms: S_2  and  C_1 
REMARK    2  A    between atoms: C_7  and  S_2 
REMARK    3  A    between atoms: C_9  and  N_3 
REMARK    4  A    between atoms: C_11  and  C_7 
REMARK    5  A    between atoms: C_8  and  C_9 
REMARK       I    between atoms: N_10  and  C_8 
REMARK       I    between atoms: N_15  and  C_11 
REMARK    6  A    between atoms: C_12  and  C_16 
REMARK    7  A    between atoms: C_23  and  N_15 
ROOT
ATOM      1  C   UNL d   1     -41.828-122.086 -52.951  0.00  0.00     0.107 A 
ATOM      2  N   UNL d   1     -41.460-120.874 -53.357  0.00  0.00    -0.299 N 
ATOM      3  C   UNL d   1     -41.419-121.402 -52.727  0.00  0.00     0.092 A 
ATOM      4  C   UNL d   1     -42.116-121.974 -53.715  0.00  0.00     0.028 A 
ATOM      5  C   UNL d   1     -41.886-121.221 -53.964  0.00  0.00     0.065 A 
ATOM      6  C   UNL d   1     -42.556-122.458 -54.212  0.00  0.00     0.002 A 
ATOM      7  C   UNL d   1     -42.101-120.959 -54.716  0.00  0.00     0.018 A 
ATOM      8  C   UNL d   1     -42.772-122.197 -54.967  0.00  0.00     0.000 A 
ATOM      9  C   UNL d   1     -42.540-121.443 -55.214  0.00  0.00     0.002 A 
ENDROOT
BRANCH   1  10
ATOM     10  S   UNL d   1     -41.929-122.764 -52.487  0.00  0.00     0.217 S 
ATOM     11  O   UNL d   1     -41.124-122.887 -52.414  0.00  0.00    -0.217 OA
ATOM     12  O   UNL d   1     -42.747-122.636 -52.563  0.00  0.00    -0.217 OA
BRANCH  10  13
ATOM     13  C   UNL d   1     -42.036-123.442 -52.022  0.00  0.00     0.161 C 
BRANCH  13  14
ATOM     14  C   UNL d   1     -42.004-123.388 -51.211  0.00  0.00     0.291 C 
ATOM     15  N   UNL d   1     -42.669-123.159 -50.781  0.00  0.00    -0.207 NA
ATOM     16  O   UNL d   1     -41.300-123.562 -50.812  0.00  0.00    -0.264 OA
BRANCH  15  17
ATOM     17  C   UNL d   1     -42.633-123.105 -49.959  0.00  0.00     0.085 A 
ATOM     18  C   UNL d   1     -42.743-123.778 -49.491  0.00  0.00     0.019 A 
ATOM     19  C   UNL d   1     -42.708-123.731 -48.672  0.00  0.00     0.006 A 
ATOM     20  C   UNL d   1     -42.560-123.000 -48.303  0.00  0.00     0.059 A 
ATOM     21  C   UNL d   1     -42.449-122.321 -48.761  0.00  0.00     0.006 A 
ATOM     22  C   UNL d   1     -42.485-122.372 -49.594  0.00  0.00     0.019 A 
BRANCH  20  23
ATOM     23  C   UNL d   1     -42.524-122.943 -47.489  0.00  0.00     0.297 C 
ATOM     24  O   UNL d   1     -42.919-122.337 -47.085  0.00  0.00    -0.264 OA
ATOM     25  N   UNL d   1     -42.080-123.505 -47.055  0.00  0.00    -0.102 N 
ENDBRANCH  20  23
ENDBRANCH  15  17
ENDBRANCH  13  14
ENDBRANCH  10  13
ENDBRANCH   1  10
BRANCH   2  26
ATOM     26  C   UNL d   1     -41.126-120.121 -53.372  0.00  0.00     0.142 C 
BRANCH  26  27
ATOM     27  C   UNL d   1     -41.145-119.648 -52.699  0.00  0.00     0.282 C 
ATOM     28  N   UNL d   1     -41.152-118.827 -52.772  0.00  0.00    -0.271 N 
ATOM     29  C   UNL d   1     -41.140-118.471 -53.518  0.00  0.00     0.083 A 
ATOM     30  C   UNL d   1     -41.171-118.354 -52.100  0.00  0.00     0.083 A 
ATOM     31  C   UNL d   1     -41.147-117.646 -53.591  0.00  0.00     0.019 A 
ATOM     32  C   UNL d   1     -41.166-117.178 -52.917  0.00  0.00     0.003 A 
ATOM     33  C   UNL d   1     -41.178-117.526 -52.173  0.00  0.00     0.019 A 
ATOM     34  O   UNL d   1     -41.157-119.996 -51.955  0.00  0.00    -0.265 OA
ENDBRANCH  26  27
ENDBRANCH   2  26
TORSDOF 7
ENDMDL
