MODEL 1
REMARK VINA RESULT:      16.3      0.000      0.000
REMARK  3 active torsions:
REMARK  status: ('A' for Active; 'I' for Inactive)
REMARK    1  A    between atoms: C_2  and  S_1 
REMARK    2  A    between atoms: N_3  and  S_1 
REMARK    3  A    between atoms: C_10  and  N_3 
ROOT
ATOM      1  S   UNL d   1      45.445 -15.997  44.688  0.00  0.00     0.285 S 
ATOM      2  O   UNL d   1      46.222 -15.776  44.924  0.00  0.00    -0.198 OA
ATOM      3  O   UNL d   1      44.688 -16.229  44.451  0.00  0.00    -0.198 OA
ENDROOT
BRANCH   1   4
ATOM      4  C   UNL d   1      45.736 -16.732  44.414  0.00  0.00     0.107 A 
ATOM      5  C   UNL d   1      45.790 -16.881  43.602  0.00  0.00     0.040 A 
ATOM      6  C   UNL d   1      46.075 -17.600  43.356  0.00  0.00     0.123 A 
ATOM      7  O   UNL d   1      46.136 -17.767  42.554  0.00  0.00    -0.301 OA
ATOM      8  C   UNL d   1      46.307 -18.176  43.920  0.00  0.00     0.123 A 
ATOM      9  C   UNL d   1      46.429 -18.506  42.315  0.00  0.00     0.149 A 
ATOM     10  C   UNL d   1      46.647 -19.047  42.843  0.00  0.00     0.149 A 
ATOM     11  O   UNL d   1      46.593 -18.899  43.662  0.00  0.00    -0.301 OA
ATOM     12  C   UNL d   1      46.247 -18.013  44.710  0.00  0.00     0.028 A 
ATOM     13  C   UNL d   1      45.953 -17.273  44.943  0.00  0.00     0.015 A 
ENDBRANCH   1   4
BRANCH   1  14
ATOM     14  N   UNL d   1      45.137 -15.273  44.955  0.00  0.00    -0.158 NA
BRANCH  14  15
ATOM     15  C   UNL d   1      45.468 -14.560  44.657  0.00  0.00     0.094 A 
ATOM     16  C   UNL d   1      45.062 -14.154  44.056  0.00  0.00     0.020 A 
ATOM     17  C   UNL d   1      45.390 -13.446  43.760  0.00  0.00     0.002 A 
ATOM     18  C   UNL d   1      44.993 -13.022  43.152  0.00  0.00     0.000 C 
ATOM     19  C   UNL d   1      46.103 -13.162  44.061  0.00  0.00     0.000 A 
ATOM     20  C   UNL d   1      46.476 -13.592  44.655  0.00  0.00     0.002 A 
ATOM     21  C   UNL d   1      46.163 -14.277  44.946  0.00  0.00     0.020 A 
ENDBRANCH  14  15
ENDBRANCH   1  14
TORSDOF 3
ENDMDL
MODEL 2
REMARK VINA RESULT:      16.5      1.039      1.680
REMARK  3 active torsions:
REMARK  status: ('A' for Active; 'I' for Inactive)
REMARK    1  A    between atoms: C_2  and  S_1 
REMARK    2  A    between atoms: N_3  and  S_1 
REMARK    3  A    between atoms: C_10  and  N_3 
ROOT
ATOM      1  S   UNL d   1      46.260 -16.900  44.333  0.00  0.00     0.285 S 
ATOM      2  O   UNL d   1      46.342 -16.360  43.693  0.00  0.00    -0.198 OA
ATOM      3  O   UNL d   1      46.180 -17.442  44.952  0.00  0.00    -0.198 OA
ENDROOT
BRANCH   1   4
ATOM      4  C   UNL d   1      46.257 -17.540  43.796  0.00  0.00     0.107 A 
ATOM      5  C   UNL d   1      46.277 -18.319  44.076  0.00  0.00     0.040 A 
ATOM      6  C   UNL d   1      46.274 -18.927  43.538  0.00  0.00     0.123 A 
ATOM      7  O   UNL d   1      46.293 -19.706  43.797  0.00  0.00    -0.301 OA
ATOM      8  C   UNL d   1      46.251 -18.762  42.716  0.00  0.00     0.123 A 
ATOM      9  C   UNL d   1      46.290 -20.319  43.237  0.00  0.00     0.149 A 
ATOM     10  C   UNL d   1      46.268 -20.165  42.466  0.00  0.00     0.149 A 
ATOM     11  O   UNL d   1      46.248 -19.381  42.181  0.00  0.00    -0.301 OA
ATOM     12  C   UNL d   1      46.232 -17.994  42.460  0.00  0.00     0.028 A 
ATOM     13  C   UNL d   1      46.236 -17.385  43.024  0.00  0.00     0.015 A 
ENDBRANCH   1   4
BRANCH   1  14
ATOM     14  N   UNL d   1      46.261 -16.277  44.883  0.00  0.00    -0.158 NA
BRANCH  14  15
ATOM     15  C   UNL d   1      45.720 -15.643  44.775  0.00  0.00     0.094 A 
ATOM     16  C   UNL d   1      46.005 -14.921  44.478  0.00  0.00     0.020 A 
ATOM     17  C   UNL d   1      45.468 -14.292  44.371  0.00  0.00     0.002 A 
ATOM     18  C   UNL d   1      45.739 -13.555  44.071  0.00  0.00     0.000 C 
ATOM     19  C   UNL d   1      44.670 -14.391  44.557  0.00  0.00     0.000 A 
ATOM     20  C   UNL d   1      44.425 -15.121  44.849  0.00  0.00     0.002 A 
ATOM     21  C   UNL d   1      44.941 -15.733  44.955  0.00  0.00     0.020 A 
ENDBRANCH  14  15
ENDBRANCH   1  14
TORSDOF 3
ENDMDL
MODEL 3
REMARK VINA RESULT:      17.0      1.182      4.266
REMARK  3 active torsions:
REMARK  status: ('A' for Active; 'I' for Inactive)
REMARK    1  A    between atoms: C_2  and  S_1 
REMARK    2  A    between atoms: N_3  and  S_1 
REMARK    3  A    between atoms: C_10  and  N_3 
ROOT
ATOM      1  S   UNL d   1      45.748 -16.185  44.812  0.00  0.00     0.285 S 
ATOM      2  O   UNL d   1      46.571 -16.030  44.734  0.00  0.00    -0.198 OA
ATOM      3  O   UNL d   1      44.936 -16.322  44.886  0.00  0.00    -0.198 OA
ENDROOT
BRANCH   1   4
ATOM      4  C   UNL d   1      45.580 -15.378  44.673  0.00  0.00     0.107 A 
ATOM      5  C   UNL d   1      46.131 -14.797  44.883  0.00  0.00     0.040 A 
ATOM      6  C   UNL d   1      45.950 -14.019  44.740  0.00  0.00     0.123 A 
ATOM      7  O   UNL d   1      46.484 -13.428  44.941  0.00  0.00    -0.301 OA
ATOM      8  C   UNL d   1      45.217 -13.815  44.386  0.00  0.00     0.123 A 
ATOM      9  C   UNL d   1      46.287 -12.635  44.789  0.00  0.00     0.149 A 
ATOM     10  C   UNL d   1      45.599 -12.444  44.458  0.00  0.00     0.149 A 
ATOM     11  O   UNL d   1      45.044 -13.027  44.246  0.00  0.00    -0.301 OA
ATOM     12  C   UNL d   1      44.691 -14.396  44.188  0.00  0.00     0.028 A 
ATOM     13  C   UNL d   1      44.893 -15.187  44.342  0.00  0.00     0.015 A 
ENDBRANCH   1   4
BRANCH   1  14
ATOM     14  N   UNL d   1      45.894 -16.991  44.952  0.00  0.00    -0.158 NA
BRANCH  14  15
ATOM     15  C   UNL d   1      46.062 -17.490  44.297  0.00  0.00     0.094 A 
ATOM     16  C   UNL d   1      46.260 -18.284  44.441  0.00  0.00     0.020 A 
ATOM     17  C   UNL d   1      46.427 -18.779  43.791  0.00  0.00     0.002 A 
ATOM     18  C   UNL d   1      46.630 -19.585  43.918  0.00  0.00     0.000 C 
ATOM     19  C   UNL d   1      46.394 -18.481  43.023  0.00  0.00     0.000 A 
ATOM     20  C   UNL d   1      46.194 -17.689  42.919  0.00  0.00     0.002 A 
ATOM     21  C   UNL d   1      46.032 -17.205  43.545  0.00  0.00     0.020 A 
ENDBRANCH  14  15
ENDBRANCH   1  14
TORSDOF 3
ENDMDL
MODEL 4
REMARK VINA RESULT:      17.9      1.300      4.210
REMARK  3 active torsions:
REMARK  status: ('A' for Active; 'I' for Inactive)
REMARK    1  A    between atoms: C_2  and  S_1 
REMARK    2  A    between atoms: N_3  and  S_1 
REMARK    3  A    between atoms: C_10  and  N_3 
ROOT
ATOM      1  S   UNL d   1      46.272 -17.477  44.202  0.00  0.00     0.285 S 
ATOM      2  O   UNL d   1      46.503 -17.205  43.440  0.00  0.00    -0.198 OA
ATOM      3  O   UNL d   1      46.037 -17.730  44.953  0.00  0.00    -0.198 OA
ENDROOT
BRANCH   1   4
ATOM      4  C   UNL d   1      45.889 -16.748  44.348  0.00  0.00     0.107 A 
ATOM      5  C   UNL d   1      46.290 -16.035  44.224  0.00  0.00     0.040 A 
ATOM      6  C   UNL d   1      45.901 -15.338  44.372  0.00  0.00     0.123 A 
ATOM      7  O   UNL d   1      46.283 -14.621  44.255  0.00  0.00    -0.301 OA
ATOM      8  C   UNL d   1      45.108 -15.348  44.644  0.00  0.00     0.123 A 
ATOM      9  C   UNL d   1      45.874 -13.914  44.410  0.00  0.00     0.149 A 
ATOM     10  C   UNL d   1      45.130 -13.923  44.665  0.00  0.00     0.149 A 
ATOM     11  O   UNL d   1      44.724 -14.640  44.789  0.00  0.00    -0.301 OA
ATOM     12  C   UNL d   1      44.731 -16.055  44.758  0.00  0.00     0.028 A 
ATOM     13  C   UNL d   1      45.144 -16.758  44.603  0.00  0.00     0.015 A 
ENDBRANCH   1   4
BRANCH   1  14
ATOM     14  N   UNL d   1      46.647 -18.208  44.075  0.00  0.00    -0.158 NA
BRANCH  14  15
ATOM     15  C   UNL d   1      46.393 -18.685  43.432  0.00  0.00     0.094 A 
ATOM     16  C   UNL d   1      46.637 -18.482  42.664  0.00  0.00     0.020 A 
ATOM     17  C   UNL d   1      46.385 -18.956  42.026  0.00  0.00     0.002 A 
ATOM     18  C   UNL d   1      46.622 -18.766  41.242  0.00  0.00     0.000 C 
ATOM     19  C   UNL d   1      45.902 -19.612  42.160  0.00  0.00     0.000 A 
ATOM     20  C   UNL d   1      45.681 -19.781  42.935  0.00  0.00     0.002 A 
ATOM     21  C   UNL d   1      45.922 -19.326  43.557  0.00  0.00     0.020 A 
ENDBRANCH  14  15
ENDBRANCH   1  14
TORSDOF 3
ENDMDL
