MODEL 1
REMARK VINA RESULT:      13.2      0.000      0.000
REMARK  2 active torsions:
REMARK  status: ('A' for Active; 'I' for Inactive)
REMARK       I    between atoms: N_2  and  C_1 
REMARK    1  A    between atoms: C_3  and  C_1 
REMARK    2  A    between atoms: C_4  and  N_2 
ROOT
ATOM      1  C   UNL d   1      46.275 -17.729  43.917  0.00  0.00     0.059 A 
ATOM      2  C   UNL d   1      46.368 -17.848  43.107  0.00  0.00     0.025 A 
ATOM      3  C   UNL d   1      46.461 -18.621  42.810  0.00  0.00     0.099 A 
ATOM      4  N   UNL d   1      46.554 -18.743  41.998  0.00  0.00    -0.241 NA
ATOM      5  N   UNL d   1      46.550 -20.030  43.044  0.00  0.00    -0.241 NA
ATOM      6  C   UNL d   1      46.459 -19.265  43.326  0.00  0.00     0.099 A 
ATOM      7  C   UNL d   1      46.273 -18.376  44.435  0.00  0.00     0.006 A 
ATOM      8  C   UNL d   1      46.365 -19.140  44.142  0.00  0.00     0.021 A 
ATOM      9  C   UNL d   1      46.646 -19.513  41.709  0.00  0.00     0.120 A 
ATOM     10  C   UNL d   1      46.644 -20.154  42.229  0.00  0.00     0.120 A 
ENDROOT
BRANCH   1  11
ATOM     11  C   UNL d   1      46.183 -16.965  44.210  0.00  0.00     0.281 C 
ATOM     12  N   UNL d   1      45.763 -16.403  43.776  0.00  0.00    -0.189 NA
ATOM     13  O   UNL d   1      46.512 -16.763  44.938  0.00  0.00    -0.265 OA
BRANCH  12  14
ATOM     14  C   UNL d   1      45.672 -15.639  44.070  0.00  0.00     0.166 A 
ATOM     15  N   UNL d   1      46.192 -15.045  43.830  0.00  0.00    -0.225 NA
ATOM     16  C   UNL d   1      46.101 -14.277  44.124  0.00  0.00     0.107 A 
ATOM     17  C   UNL d   1      45.493 -14.109  44.656  0.00  0.00     0.054 A 
ATOM     18  C   UNL d   1      44.975 -14.709  44.894  0.00  0.00     0.011 A 
ATOM     19 BR   UNL d   1      45.401 -13.345  44.951  0.00  0.00    -0.048 Br
ATOM     20  C   UNL d   1      45.067 -15.472  44.599  0.00  0.00     0.039 A 
ENDBRANCH  12  14
ENDBRANCH   1  11
TORSDOF 2
ENDMDL
