MODEL 1
REMARK VINA RESULT:      75.2      0.000      0.000
REMARK  5 active torsions:
REMARK  status: ('A' for Active; 'I' for Inactive)
REMARK    1  A    between atoms: C_10  and  C_4 
REMARK    2  A    between atoms: C_19  and  N_5 
REMARK       I    between atoms: N_11  and  C_10 
REMARK    3  A    between atoms: C_22  and  C_19 
REMARK    4  A    between atoms: C_26  and  C_22 
REMARK    5  A    between atoms: O_23  and  C_26 
ROOT
ATOM      1  C   UNL d   1     -51.078  25.262  33.618  0.00  0.00     0.154 A 
ATOM      2  C   UNL d   1     -51.700  25.773  33.797  0.00  0.00     0.093 A 
ATOM      3  N   UNL d   1     -51.225  24.484  33.454  0.00  0.00    -0.210 NA
ATOM      4  C   UNL d   1     -50.187  26.293  33.768  0.00  0.00     0.122 A 
ATOM      5  N   UNL d   1     -50.329  25.522  33.604  0.00  0.00    -0.286 N 
ATOM      6  C   UNL d   1     -52.464  25.513  33.812  0.00  0.00     0.269 A 
ATOM      7  N   UNL d   1     -52.600  24.732  33.646  0.00  0.00    -0.258 N 
ATOM      8  C   UNL d   1     -51.978  24.221  33.467  0.00  0.00     0.152 A 
ATOM      9  C   UNL d   1     -50.800  26.796  33.944  0.00  0.00     0.030 A 
ATOM     10  C   UNL d   1     -53.364  24.479  33.663  0.00  0.00     0.084 A 
ATOM     11  O   UNL d   1     -53.086  26.025  33.991  0.00  0.00    -0.266 OA
ATOM     12  C   UNL d   1     -52.119  23.456  33.306  0.00  0.00     0.038 A 
ATOM     13  C   UNL d   1     -53.490  23.702  33.497  0.00  0.00     0.019 A 
ATOM     14  C   UNL d   1     -52.868  23.190  33.318  0.00  0.00     0.005 A 
ENDROOT
BRANCH   4  15
ATOM     15  C   UNL d   1     -49.418  26.558  33.753  0.00  0.00     0.281 C 
ATOM     16  N   UNL d   1     -49.216  27.238  34.196  0.00  0.00    -0.267 N 
ATOM     17  C   UNL d   1     -48.426  27.512  34.183  0.00  0.00     0.110 A 
ATOM     18  C   UNL d   1     -49.800  27.634  34.646  0.00  0.00     0.110 A 
ATOM     19  C   UNL d   1     -48.217  28.193  34.625  0.00  0.00     0.142 A 
ATOM     20  O   UNL d   1     -48.796  28.596  35.078  0.00  0.00    -0.300 OA
ATOM     21  C   UNL d   1     -49.586  28.316  35.087  0.00  0.00     0.142 A 
ATOM     22  O   UNL d   1     -48.854  26.160  33.308  0.00  0.00    -0.265 OA
ENDBRANCH   4  15
BRANCH   5  23
ATOM     23  C   UNL d   1     -49.706  24.998  33.423  0.00  0.00     0.084 C 
BRANCH  23  24
ATOM     24  C   UNL d   1     -49.696  24.232  33.746  0.00  0.00     0.045 C 
BRANCH  24  25
ATOM     25  C   UNL d   1     -49.112  24.028  34.304  0.00  0.00     0.118 C 
BRANCH  25  26
ATOM     26  O   UNL d   1     -48.671  23.332  34.200  0.00  0.00    -0.326 OA
ATOM     27  C   UNL d   1     -48.228  23.218  33.498  0.00  0.00     0.181 C 
ENDBRANCH  25  26
ENDBRANCH  24  25
ENDBRANCH  23  24
ENDBRANCH   5  23
TORSDOF 5
ENDMDL
MODEL 2
REMARK VINA RESULT:      77.8      1.108      4.077
REMARK  5 active torsions:
REMARK  status: ('A' for Active; 'I' for Inactive)
REMARK    1  A    between atoms: C_10  and  C_4 
REMARK    2  A    between atoms: C_19  and  N_5 
REMARK       I    between atoms: N_11  and  C_10 
REMARK    3  A    between atoms: C_22  and  C_19 
REMARK    4  A    between atoms: C_26  and  C_22 
REMARK    5  A    between atoms: O_23  and  C_26 
ROOT
ATOM      1  C   UNL d   1     -50.228  26.726  33.784  0.00  0.00     0.154 A 
ATOM      2  C   UNL d   1     -50.814  27.294  33.668  0.00  0.00     0.093 A 
ATOM      3  N   UNL d   1     -49.477  26.950  33.983  0.00  0.00    -0.210 NA
ATOM      4  C   UNL d   1     -51.133  25.735  33.505  0.00  0.00     0.122 A 
ATOM      5  N   UNL d   1     -50.388  25.953  33.702  0.00  0.00    -0.286 N 
ATOM      6  C   UNL d   1     -50.656  28.081  33.749  0.00  0.00     0.269 A 
ATOM      7  N   UNL d   1     -49.901  28.295  33.949  0.00  0.00    -0.258 N 
ATOM      8  C   UNL d   1     -49.314  27.727  34.065  0.00  0.00     0.152 A 
ATOM      9  C   UNL d   1     -51.710  26.294  33.390  0.00  0.00     0.030 A 
ATOM     10  C   UNL d   1     -49.750  29.082  34.029  0.00  0.00     0.084 A 
ATOM     11  O   UNL d   1     -51.243  28.649  33.633  0.00  0.00    -0.266 OA
ATOM     12  C   UNL d   1     -48.576  27.945  34.261  0.00  0.00     0.038 A 
ATOM     13  C   UNL d   1     -48.997  29.286  34.228  0.00  0.00     0.019 A 
ATOM     14  C   UNL d   1     -48.410  28.717  34.344  0.00  0.00     0.005 A 
ENDROOT
BRANCH   4  15
ATOM     15  C   UNL d   1     -51.295  24.941  33.421  0.00  0.00     0.281 C 
ATOM     16  N   UNL d   1     -52.093  24.691  33.408  0.00  0.00    -0.267 N 
ATOM     17  C   UNL d   1     -52.263  23.877  33.323  0.00  0.00     0.110 A 
ATOM     18  C   UNL d   1     -52.710  25.253  33.480  0.00  0.00     0.110 A 
ATOM     19  C   UNL d   1     -53.061  23.620  33.309  0.00  0.00     0.142 A 
ATOM     20  O   UNL d   1     -53.684  24.176  33.381  0.00  0.00    -0.300 OA
ATOM     21  C   UNL d   1     -53.507  24.991  33.466  0.00  0.00     0.142 A 
ATOM     22  O   UNL d   1     -50.681  24.401  33.352  0.00  0.00    -0.265 OA
ENDBRANCH   4  15
BRANCH   5  23
ATOM     23  C   UNL d   1     -49.789  25.386  33.821  0.00  0.00     0.084 C 
BRANCH  23  24
ATOM     24  C   UNL d   1     -49.136  25.352  33.307  0.00  0.00     0.045 C 
BRANCH  24  25
ATOM     25  C   UNL d   1     -48.593  24.724  33.373  0.00  0.00     0.118 C 
BRANCH  25  26
ATOM     26  O   UNL d   1     -48.621  24.225  34.037  0.00  0.00    -0.326 OA
ATOM     27  C   UNL d   1     -47.985  23.703  34.195  0.00  0.00     0.181 C 
ENDBRANCH  25  26
ENDBRANCH  24  25
ENDBRANCH  23  24
ENDBRANCH   5  23
TORSDOF 5
ENDMDL
