MODEL 1
REMARK VINA RESULT:      13.3      0.000      0.000
REMARK  7 active torsions:
REMARK  status: ('A' for Active; 'I' for Inactive)
REMARK    1  A    between atoms: C_6  and  N_2 
REMARK    2  A    between atoms: C_7  and  C_3 
REMARK    3  A    between atoms: C_12  and  C_6 
REMARK    4  A    between atoms: C_21  and  C_7 
REMARK    5  A    between atoms: C_9  and  O_11 
REMARK    6  A    between atoms: O_11  and  C_12 
REMARK    7  A    between atoms: C_19  and  C_21 
ROOT
ATOM      1  N   UNL d   1      46.185 -18.878  42.679  0.00  0.00    -0.227 NA
ATOM      2  N   UNL d   1      46.418 -17.954  43.650  0.00  0.00    -0.287 N 
ATOM      3  C   UNL d   1      46.259 -18.059  42.836  0.00  0.00     0.148 A 
ATOM      4  C   UNL d   1      46.442 -18.716  43.997  0.00  0.00     0.083 A 
ATOM      5  C   UNL d   1      46.300 -19.276  43.404  0.00  0.00     0.099 A 
ATOM      6  C   UNL d   1      46.575 -18.969  44.774  0.00  0.00     0.019 A 
ATOM      7  C   UNL d   1      46.290 -20.080  43.584  0.00  0.00     0.021 A 
ATOM      8  C   UNL d   1      46.565 -19.774  44.954  0.00  0.00     0.002 A 
ATOM      9  C   UNL d   1      46.422 -20.330  44.358  0.00  0.00     0.002 A 
ENDROOT
BRANCH   2  10
ATOM     10  C   UNL d   1      46.531 -17.242  44.042  0.00  0.00     0.108 C 
BRANCH  10  11
ATOM     11  C   UNL d   1      45.881 -16.772  44.258  0.00  0.00     0.142 C 
BRANCH  11  12
ATOM     12  O   UNL d   1      45.958 -16.223  44.861  0.00  0.00    -0.304 OA
BRANCH  12  13
ATOM     13  C   UNL d   1      45.544 -15.513  44.825  0.00  0.00     0.100 A 
ATOM     14  C   UNL d   1      45.955 -14.806  44.747  0.00  0.00     0.025 A 
ATOM     15  C   UNL d   1      45.541 -14.092  44.711  0.00  0.00     0.002 A 
ATOM     16  C   UNL d   1      45.952 -13.381  44.631  0.00  0.00     0.000 C 
ATOM     17  C   UNL d   1      44.713 -14.089  44.754  0.00  0.00     0.000 A 
ATOM     18  C   UNL d   1      44.305 -14.808  44.834  0.00  0.00     0.002 A 
ATOM     19  C   UNL d   1      44.719 -15.518  44.869  0.00  0.00     0.025 A 
ENDBRANCH  12  13
ENDBRANCH  11  12
ENDBRANCH  10  11
ENDBRANCH   2  10
BRANCH   3  20
ATOM     20  C   UNL d   1      46.127 -17.809  42.061  0.00  0.00     0.041 C 
BRANCH  20  21
ATOM     21  C   UNL d   1      46.507 -18.190  41.437  0.00  0.00     0.049 C 
BRANCH  21  22
ATOM     22  C   UNL d   1      46.397 -17.922  40.664  0.00  0.00     0.234 C 
ATOM     23  O   UNL d   1      45.908 -18.337  40.148  0.00  0.00    -0.283 OA
ENDBRANCH  21  22
ENDBRANCH  20  21
ENDBRANCH   3  20
TORSDOF 7
ENDMDL
