MODEL 1
REMARK VINA RESULT:      79.1      0.000      0.000
REMARK  4 active torsions:
REMARK  status: ('A' for Active; 'I' for Inactive)
REMARK    1  A    between atoms: C_17  and  N_3 
REMARK    2  A    between atoms: C_9  and  C_5 
REMARK    3  A    between atoms: O_21  and  C_12 
REMARK    4  A    between atoms: C_19  and  C_17 
ROOT
ATOM      1  C   UNL d   1      59.071  49.307  51.003  0.00  0.00     0.083 A 
ATOM      2  C   UNL d   1      58.677  49.416  51.715  0.00  0.00     0.161 A 
ATOM      3  N   UNL d   1      59.983  49.231  52.012  0.00  0.00    -0.272 N 
ATOM      4  C   UNL d   1      59.226  49.371  52.332  0.00  0.00     0.288 A 
ATOM      5  C   UNL d   1      59.898  49.190  51.186  0.00  0.00     0.072 A 
ATOM      6  C   UNL d   1      58.666  49.324  50.285  0.00  0.00     0.201 A 
ATOM      7  O   UNL d   1      57.851  49.545  51.706  0.00  0.00    -0.302 OA
ATOM      8  C   UNL d   1      57.848  49.451  50.280  0.00  0.00     0.062 A 
ATOM      9  C   UNL d   1      57.437  49.563  50.996  0.00  0.00     0.103 A 
ATOM     10  O   UNL d   1      59.059  49.450  53.140  0.00  0.00    -0.264 OA
ATOM     11  O   UNL d   1      59.072  49.213  49.575  0.00  0.00    -0.286 OA
ATOM     12  C   UNL d   1      57.434  49.469  49.561  0.00  0.00     0.005 A 
ATOM     13  C   UNL d   1      56.618  49.690  50.986  0.00  0.00     0.025 A 
ATOM     14  C   UNL d   1      56.616  49.597  49.561  0.00  0.00     0.000 A 
ATOM     15  C   UNL d   1      56.210  49.707  50.270  0.00  0.00     0.002 A 
ENDROOT
BRANCH   5  16
ATOM     16  C   UNL d   1      60.498  49.060  50.639  0.00  0.00     0.019 A 
ATOM     17  C   UNL d   1      60.777  48.302  50.510  0.00  0.00     0.029 A 
ATOM     18  C   UNL d   1      61.377  48.160  49.966  0.00  0.00     0.133 A 
ATOM     19  C   UNL d   1      61.699  48.792  49.546  0.00  0.00     0.218 A 
ATOM     20  C   UNL d   1      61.417  49.564  49.675  0.00  0.00     0.044 A 
ATOM     21  O   UNL d   1      62.302  48.663  48.996  0.00  0.00    -0.284 OA
ATOM     22  C   UNL d   1      60.821  49.689  50.219  0.00  0.00     0.005 A 
BRANCH  18  23
ATOM     23  O   UNL d   1      61.657  47.401  49.837  0.00  0.00    -0.325 OA
ATOM     24  C   UNL d   1      61.242  46.750  50.138  0.00  0.00     0.181 C 
ENDBRANCH  18  23
ENDBRANCH   5  16
BRANCH   3  25
ATOM     25  C   UNL d   1      60.688  49.148  52.429  0.00  0.00     0.083 C 
BRANCH  25  26
ATOM     26  C   UNL d   1      60.889  49.692  53.014  0.00  0.00     0.019 C 
ATOM     27  C   UNL d   1      61.652  49.702  53.325  0.00  0.00     0.002 C 
ENDBRANCH  25  26
ENDBRANCH   3  25
TORSDOF 4
ENDMDL
MODEL 2
REMARK VINA RESULT:      81.7      1.418      4.605
REMARK  4 active torsions:
REMARK  status: ('A' for Active; 'I' for Inactive)
REMARK    1  A    between atoms: C_17  and  N_3 
REMARK    2  A    between atoms: C_9  and  C_5 
REMARK    3  A    between atoms: O_21  and  C_12 
REMARK    4  A    between atoms: C_19  and  C_17 
ROOT
ATOM      1  C   UNL d   1      58.533  49.376  51.098  0.00  0.00     0.083 A 
ATOM      2  C   UNL d   1      58.702  49.379  50.294  0.00  0.00     0.161 A 
ATOM      3  N   UNL d   1      57.371  49.578  50.418  0.00  0.00    -0.272 N 
ATOM      4  C   UNL d   1      57.999  49.501  49.876  0.00  0.00     0.288 A 
ATOM      5  C   UNL d   1      57.692  49.501  51.181  0.00  0.00     0.072 A 
ATOM      6  C   UNL d   1      59.129  49.264  51.658  0.00  0.00     0.201 A 
ATOM      7  O   UNL d   1      59.492  49.267  50.045  0.00  0.00    -0.302 OA
ATOM      8  C   UNL d   1      59.910  49.154  51.407  0.00  0.00     0.062 A 
ATOM      9  C   UNL d   1      60.093  49.155  50.595  0.00  0.00     0.103 A 
ATOM     10  O   UNL d   1      57.923  49.542  49.052  0.00  0.00    -0.264 OA
ATOM     11  O   UNL d   1      58.948  49.263  52.463  0.00  0.00    -0.286 OA
ATOM     12  C   UNL d   1      60.514  49.042  51.966  0.00  0.00     0.005 A 
ATOM     13  C   UNL d   1      60.878  49.044  50.349  0.00  0.00     0.025 A 
ATOM     14  C   UNL d   1      61.293  48.932  51.710  0.00  0.00     0.000 A 
ATOM     15  C   UNL d   1      61.474  48.933  50.906  0.00  0.00     0.002 A 
ENDROOT
BRANCH   5  16
ATOM     16  C   UNL d   1      57.279  49.539  51.891  0.00  0.00     0.019 A 
ATOM     17  C   UNL d   1      57.685  49.557  52.601  0.00  0.00     0.029 A 
ATOM     18  C   UNL d   1      57.283  49.595  53.316  0.00  0.00     0.133 A 
ATOM     19  C   UNL d   1      56.458  49.614  53.316  0.00  0.00     0.218 A 
ATOM     20  C   UNL d   1      56.043  49.595  52.596  0.00  0.00     0.044 A 
ATOM     21  O   UNL d   1      56.042  49.652  54.028  0.00  0.00    -0.284 OA
ATOM     22  C   UNL d   1      56.456  49.558  51.893  0.00  0.00     0.005 A 
BRANCH  18  23
ATOM     23  O   UNL d   1      57.690  49.613  54.027  0.00  0.00    -0.325 OA
ATOM     24  C   UNL d   1      57.274  49.593  54.743  0.00  0.00     0.181 C 
ENDBRANCH  18  23
ENDBRANCH   5  16
BRANCH   3  25
ATOM     25  C   UNL d   1      56.576  49.705  50.239  0.00  0.00     0.083 C 
BRANCH  25  26
ATOM     26  C   UNL d   1      56.294  49.553  49.481  0.00  0.00     0.019 C 
ATOM     27  C   UNL d   1      56.191  48.777  49.226  0.00  0.00     0.002 C 
ENDBRANCH  25  26
ENDBRANCH   3  25
TORSDOF 4
ENDMDL
