MODEL 1
REMARK VINA RESULT:      -2.1      0.000      0.000
REMARK  6 active torsions:
REMARK  status: ('A' for Active; 'I' for Inactive)
REMARK    1  A    between atoms: C_6  and  N_2 
REMARK    2  A    between atoms: C_7  and  C_3 
REMARK    3  A    between atoms: C_10  and  C_6 
REMARK    4  A    between atoms: C_15  and  C_7 
REMARK    5  A    between atoms: O_8  and  C_10 
REMARK    6  A    between atoms: C_9  and  O_8 
ROOT
ATOM      1  N   UNL d   1      30.308  15.846 -23.997  0.00  0.00    -0.227 NA
ATOM      2  N   UNL d   1      31.141  16.859 -24.256  0.00  0.00    -0.287 N 
ATOM      3  C   UNL d   1      31.108  16.084 -23.942  0.00  0.00     0.148 A 
ATOM      4  C   UNL d   1      30.388  17.081 -24.493  0.00  0.00     0.083 A 
ATOM      5  C   UNL d   1      29.851  16.428 -24.326  0.00  0.00     0.099 A 
ATOM      6  C   UNL d   1      30.117  17.771 -24.830  0.00  0.00     0.019 A 
ATOM      7  C   UNL d   1      29.053  16.556 -24.532  0.00  0.00     0.021 A 
ATOM      8  C   UNL d   1      29.328  17.823 -25.004  0.00  0.00     0.002 A 
ATOM      9  C   UNL d   1      28.824  17.210 -24.847  0.00  0.00     0.002 A 
ENDROOT
BRANCH   2  10
ATOM     10  C   UNL d   1      31.872  17.181 -24.249  0.00  0.00     0.108 C 
BRANCH  10  11
ATOM     11  C   UNL d   1      32.010  17.964 -24.441  0.00  0.00     0.142 C 
BRANCH  11  12
ATOM     12  O   UNL d   1      32.759  18.283 -24.506  0.00  0.00    -0.304 OA
BRANCH  12  13
ATOM     13  C   UNL d   1      32.917  19.089 -24.431  0.00  0.00     0.100 A 
ATOM     14  C   UNL d   1      32.996  19.601 -25.073  0.00  0.00     0.025 A 
ATOM     15  C   UNL d   1      33.154  20.405 -24.997  0.00  0.00     0.002 A 
ATOM     16  C   UNL d   1      33.239  20.719 -24.230  0.00  0.00     0.000 A 
ATOM     17  C   UNL d   1      33.164  20.220 -23.562  0.00  0.00     0.002 A 
ATOM     18  C   UNL d   1      33.002  19.403 -23.665  0.00  0.00     0.025 A 
ENDBRANCH  12  13
ENDBRANCH  11  12
ENDBRANCH  10  11
ENDBRANCH   2  10
BRANCH   3  19
ATOM     19  C   UNL d   1      31.894  16.028 -23.767  0.00  0.00     0.037 C 
BRANCH  19  20
ATOM     20  C   UNL d   1      32.153  15.465 -23.204  0.00  0.00     0.003 C 
ATOM     21  C   UNL d   1      32.937  15.478 -22.919  0.00  0.00     0.000 C 
ENDBRANCH  19  20
ENDBRANCH   3  19
TORSDOF 6
ENDMDL
MODEL 2
REMARK VINA RESULT:      -2.1      3.075      5.790
REMARK  6 active torsions:
REMARK  status: ('A' for Active; 'I' for Inactive)
REMARK    1  A    between atoms: C_6  and  N_2 
REMARK    2  A    between atoms: C_7  and  C_3 
REMARK    3  A    between atoms: C_10  and  C_6 
REMARK    4  A    between atoms: C_15  and  C_7 
REMARK    5  A    between atoms: O_8  and  C_10 
REMARK    6  A    between atoms: C_9  and  O_8 
ROOT
ATOM      1  N   UNL d   1      32.649  23.296 -21.897  0.00  0.00    -0.227 NA
ATOM      2  N   UNL d   1      33.017  22.098 -22.364  0.00  0.00    -0.287 N 
ATOM      3  C   UNL d   1      32.849  22.885 -22.598  0.00  0.00     0.148 A 
ATOM      4  C   UNL d   1      32.922  22.037 -21.552  0.00  0.00     0.083 A 
ATOM      5  C   UNL d   1      32.685  22.810 -21.251  0.00  0.00     0.099 A 
ATOM      6  C   UNL d   1      33.015  21.403 -21.050  0.00  0.00     0.019 A 
ATOM      7  C   UNL d   1      32.562  22.853 -20.428  0.00  0.00     0.021 A 
ATOM      8  C   UNL d   1      32.878  21.521 -20.261  0.00  0.00     0.002 A 
ATOM      9  C   UNL d   1      32.656  22.245 -19.979  0.00  0.00     0.002 A 
ENDROOT
BRANCH   2  10
ATOM     10  C   UNL d   1      33.221  21.617 -22.968  0.00  0.00     0.108 C 
BRANCH  10  11
ATOM     11  C   UNL d   1      33.113  20.807 -22.941  0.00  0.00     0.142 C 
BRANCH  11  12
ATOM     12  O   UNL d   1      33.238  20.317 -23.583  0.00  0.00    -0.304 OA
BRANCH  12  13
ATOM     13  C   UNL d   1      33.082  19.508 -23.573  0.00  0.00     0.100 A 
ATOM     14  C   UNL d   1      32.787  19.091 -24.221  0.00  0.00     0.025 A 
ATOM     15  C   UNL d   1      32.632  18.283 -24.211  0.00  0.00     0.002 A 
ATOM     16  C   UNL d   1      32.781  17.862 -23.507  0.00  0.00     0.000 A 
ATOM     17  C   UNL d   1      33.080  18.262 -22.835  0.00  0.00     0.002 A 
ATOM     18  C   UNL d   1      33.231  19.087 -22.870  0.00  0.00     0.025 A 
ENDBRANCH  12  13
ENDBRANCH  11  12
ENDBRANCH  10  11
ENDBRANCH   2  10
BRANCH   3  19
ATOM     19  C   UNL d   1      32.985  22.771 -23.386  0.00  0.00     0.037 C 
BRANCH  19  20
ATOM     20  C   UNL d   1      32.939  23.422 -23.910  0.00  0.00     0.003 C 
ATOM     21  C   UNL d   1      33.215  23.356 -24.694  0.00  0.00     0.000 C 
ENDBRANCH  19  20
ENDBRANCH   3  19
TORSDOF 6
ENDMDL
MODEL 3
REMARK VINA RESULT:      -1.5      2.635      5.194
REMARK  6 active torsions:
REMARK  status: ('A' for Active; 'I' for Inactive)
REMARK    1  A    between atoms: C_6  and  N_2 
REMARK    2  A    between atoms: C_7  and  C_3 
REMARK    3  A    between atoms: C_10  and  C_6 
REMARK    4  A    between atoms: C_15  and  C_7 
REMARK    5  A    between atoms: O_8  and  C_10 
REMARK    6  A    between atoms: C_9  and  O_8 
ROOT
ATOM      1  N   UNL d   1      32.671  22.771 -22.448  0.00  0.00    -0.227 NA
ATOM      2  N   UNL d   1      33.042  21.546 -22.836  0.00  0.00    -0.287 N 
ATOM      3  C   UNL d   1      32.804  21.993 -22.169  0.00  0.00     0.148 A 
ATOM      4  C   UNL d   1      33.051  22.036 -23.493  0.00  0.00     0.083 A 
ATOM      5  C   UNL d   1      32.812  22.825 -23.243  0.00  0.00     0.099 A 
ATOM      6  C   UNL d   1      33.240  21.882 -24.270  0.00  0.00     0.019 A 
ATOM      7  C   UNL d   1      32.790  23.402 -23.844  0.00  0.00     0.021 A 
ATOM      8  C   UNL d   1      33.195  22.493 -24.799  0.00  0.00     0.002 A 
ATOM      9  C   UNL d   1      32.971  23.233 -24.564  0.00  0.00     0.002 A 
ENDROOT
BRANCH   2  10
ATOM     10  C   UNL d   1      33.195  20.779 -22.673  0.00  0.00     0.108 C 
BRANCH  10  11
ATOM     11  C   UNL d   1      33.149  20.192 -23.241  0.00  0.00     0.142 C 
BRANCH  11  12
ATOM     12  O   UNL d   1      33.241  19.398 -23.072  0.00  0.00    -0.304 OA
BRANCH  12  13
ATOM     13  C   UNL d   1      32.963  18.794 -23.560  0.00  0.00     0.100 A 
ATOM     14  C   UNL d   1      32.459  18.195 -23.303  0.00  0.00     0.025 A 
ATOM     15  C   UNL d   1      32.182  17.592 -23.791  0.00  0.00     0.002 A 
ATOM     16  C   UNL d   1      32.424  17.588 -24.588  0.00  0.00     0.000 A 
ATOM     17  C   UNL d   1      32.936  18.186 -24.873  0.00  0.00     0.002 A 
ATOM     18  C   UNL d   1      33.205  18.790 -24.357  0.00  0.00     0.025 A 
ENDBRANCH  12  13
ENDBRANCH  11  12
ENDBRANCH  10  11
ENDBRANCH   2  10
BRANCH   3  19
ATOM     19  C   UNL d   1      32.847  21.386 -21.638  0.00  0.00     0.037 C 
BRANCH  19  20
ATOM     20  C   UNL d   1      32.948  21.556 -20.824  0.00  0.00     0.003 C 
ATOM     21  C   UNL d   1      32.465  21.189 -20.251  0.00  0.00     0.000 C 
ENDBRANCH  19  20
ENDBRANCH   3  19
TORSDOF 6
ENDMDL
MODEL 4
REMARK VINA RESULT:      -0.2      1.264      3.955
REMARK  6 active torsions:
REMARK  status: ('A' for Active; 'I' for Inactive)
REMARK    1  A    between atoms: C_6  and  N_2 
REMARK    2  A    between atoms: C_7  and  C_3 
REMARK    3  A    between atoms: C_10  and  C_6 
REMARK    4  A    between atoms: C_15  and  C_7 
REMARK    5  A    between atoms: O_8  and  C_10 
REMARK    6  A    between atoms: C_9  and  O_8 
ROOT
ATOM      1  N   UNL d   1      33.111  17.834 -23.111  0.00  0.00    -0.227 NA
ATOM      2  N   UNL d   1      32.250  17.303 -23.985  0.00  0.00    -0.287 N 
ATOM      3  C   UNL d   1      32.691  17.133 -23.293  0.00  0.00     0.148 A 
ATOM      4  C   UNL d   1      32.399  18.077 -24.211  0.00  0.00     0.083 A 
ATOM      5  C   UNL d   1      32.954  18.419 -23.647  0.00  0.00     0.099 A 
ATOM      6  C   UNL d   1      32.115  18.513 -24.837  0.00  0.00     0.019 A 
ATOM      7  C   UNL d   1      33.171  19.211 -23.791  0.00  0.00     0.021 A 
ATOM      8  C   UNL d   1      32.371  19.277 -24.913  0.00  0.00     0.002 A 
ATOM      9  C   UNL d   1      32.891  19.598 -24.384  0.00  0.00     0.002 A 
ENDROOT
BRANCH   2  10
ATOM     10  C   UNL d   1      31.808  16.690 -24.245  0.00  0.00     0.108 C 
BRANCH  10  11
ATOM     11  C   UNL d   1      30.990  16.713 -24.259  0.00  0.00     0.142 C 
BRANCH  11  12
ATOM     12  O   UNL d   1      30.534  16.156 -24.645  0.00  0.00    -0.304 OA
BRANCH  12  13
ATOM     13  C   UNL d   1      29.736  16.030 -24.481  0.00  0.00     0.100 A 
ATOM     14  C   UNL d   1      29.390  16.180 -23.748  0.00  0.00     0.025 A 
ATOM     15  C   UNL d   1      28.593  16.055 -23.585  0.00  0.00     0.002 A 
ATOM     16  C   UNL d   1      28.109  15.760 -24.195  0.00  0.00     0.000 A 
ATOM     17  C   UNL d   1      28.436  15.599 -24.949  0.00  0.00     0.002 A 
ATOM     18  C   UNL d   1      29.252  15.735 -25.091  0.00  0.00     0.025 A 
ENDBRANCH  12  13
ENDBRANCH  11  12
ENDBRANCH  10  11
ENDBRANCH   2  10
BRANCH   3  19
ATOM     19  C   UNL d   1      32.438  16.371 -23.214  0.00  0.00     0.037 C 
BRANCH  19  20
ATOM     20  C   UNL d   1      32.994  15.767 -23.045  0.00  0.00     0.003 C 
ATOM     21  C   UNL d   1      33.241  15.626 -22.261  0.00  0.00     0.000 C 
ENDBRANCH  19  20
ENDBRANCH   3  19
TORSDOF 6
ENDMDL
