MODEL 1
REMARK VINA RESULT:      27.8      0.000      0.000
REMARK  4 active torsions:
REMARK  status: ('A' for Active; 'I' for Inactive)
REMARK    1  A    between atoms: N_4  and  S_1 
REMARK    2  A    between atoms: C_5  and  S_1 
REMARK    3  A    between atoms: S_2  and  N_3 
REMARK    4  A    between atoms: C_6  and  S_2 
ROOT
ATOM      1  N   UNL d   1      13.630  12.099  -1.723  0.00  0.00    -0.226 N 
ATOM      2  N   UNL d   1      13.562  12.106  -3.371  0.00  0.00    -0.226 N 
ATOM      3  C   UNL d   1      14.275  11.795  -2.175  0.00  0.00     0.111 A 
ATOM      4  C   UNL d   1      14.236  11.801  -2.991  0.00  0.00     0.111 A 
ATOM      5  C   UNL d   1      12.929  12.405  -2.927  0.00  0.00     0.111 A 
ATOM      6  C   UNL d   1      12.961  12.402  -2.096  0.00  0.00     0.111 A 
ENDROOT
BRANCH   1   7
ATOM      7  S   UNL d   1      13.640  12.106  -0.859  0.00  0.00     0.277 S 
ATOM      8  O   UNL d   1      12.842  11.863  -0.831  0.00  0.00    -0.199 OA
ATOM      9  O   UNL d   1      13.670  12.119  -0.018  0.00  0.00    -0.199 OA
BRANCH   7  10
ATOM     10  C   UNL d   1      14.455  12.355  -0.878  0.00  0.00     0.133 A 
ATOM     11  S   UNL d   1      15.132  11.975  -1.053  0.00  0.00    -0.074 SA
ATOM     12  C   UNL d   1      15.744  12.502  -0.975  0.00  0.00     0.036 A 
ATOM     13  C   UNL d   1      15.456  13.231  -0.746  0.00  0.00     0.008 A 
ATOM     14  C   UNL d   1      14.647  13.148  -0.682  0.00  0.00     0.020 A 
ENDBRANCH   7  10
ENDBRANCH   1   7
BRANCH   2  15
ATOM     15  S   UNL d   1      13.528  12.110  -4.208  0.00  0.00     0.277 S 
ATOM     16  O   UNL d   1      12.769  12.438  -4.169  0.00  0.00    -0.199 OA
ATOM     17  O   UNL d   1      14.295  11.779  -4.228  0.00  0.00    -0.199 OA
BRANCH  15  18
ATOM     18  C   UNL d   1      13.500  12.111  -5.033  0.00  0.00     0.133 A 
ATOM     19  S   UNL d   1      14.044  12.342  -5.608  0.00  0.00    -0.074 SA
ATOM     20  C   UNL d   1      13.698  12.213  -6.348  0.00  0.00     0.036 A 
ATOM     21  C   UNL d   1      12.956  11.908  -6.229  0.00  0.00     0.008 A 
ATOM     22  C   UNL d   1      12.820  11.840  -5.422  0.00  0.00     0.020 A 
ENDBRANCH  15  18
ENDBRANCH   2  15
TORSDOF 4
ENDMDL
