MODEL 1
REMARK VINA RESULT:       5.6      0.000      0.000
REMARK  2 active torsions:
REMARK  status: ('A' for Active; 'I' for Inactive)
REMARK    1  A    between atoms: C_6  and  C_1 
REMARK    2  A    between atoms: C_9  and  C_2 
ROOT
ATOM      1  C   UNL d   1     -41.553-121.849 -51.782  0.00  0.00     0.039 A 
ATOM      2  C   UNL d   1     -41.569-121.842 -52.602  0.00  0.00     0.120 A 
ATOM      3  N   UNL d   1     -41.415-121.071 -52.860  0.00  0.00    -0.164 NA
ATOM      4  N   UNL d   1     -41.304-120.609 -52.192  0.00  0.00    -0.228 N 
ATOM      5  C   UNL d   1     -41.389-121.088 -51.525  0.00  0.00     0.085 A 
ATOM      6  C   UNL d   1     -41.139-119.840 -51.932  0.00  0.00     0.101 A 
ATOM      7  C   UNL d   1     -41.276-120.612 -50.852  0.00  0.00     0.021 A 
ATOM      8  C   UNL d   1     -41.123-119.845 -51.107  0.00  0.00     0.022 A 
ENDROOT
BRANCH   1   9
ATOM      9  C   UNL d   1     -41.678-122.504 -51.297  0.00  0.00     0.006 A 
ATOM     10  C   UNL d   1     -42.344-122.548 -50.829  0.00  0.00     0.018 A 
ATOM     11  C   UNL d   1     -42.469-123.203 -50.344  0.00  0.00     0.085 A 
ATOM     12  C   UNL d   1     -42.899-121.932 -50.841  0.00  0.00     0.005 A 
ATOM     13  C   UNL d   1     -43.150-123.248 -49.867  0.00  0.00     0.061 A 
ATOM     14  N   UNL d   1     -41.918-123.817 -50.331  0.00  0.00    -0.244 NA
ATOM     15  C   UNL d   1     -43.697-122.628 -49.886  0.00  0.00     0.197 A 
ATOM     16  C   UNL d   1     -43.573-121.980 -50.366  0.00  0.00     0.042 A 
ATOM     17  O   UNL d   1     -44.371-122.676 -49.411  0.00  0.00    -0.286 OA
ATOM     18  C   UNL d   1     -41.245-123.776 -50.802  0.00  0.00     0.099 A 
ATOM     19  C   UNL d   1     -41.123-123.116 -51.287  0.00  0.00     0.021 A 
ENDBRANCH   1   9
BRANCH   2  20
ATOM     20  C   UNL d   1     -41.713-122.490 -53.091  0.00  0.00     0.101 A 
ATOM     21  N   UNL d   1     -42.439-122.567 -53.469  0.00  0.00    -0.242 NA
ATOM     22  C   UNL d   1     -42.587-123.205 -53.953  0.00  0.00     0.099 A 
ATOM     23  C   UNL d   1     -42.001-123.784 -54.067  0.00  0.00     0.021 A 
ATOM     24  C   UNL d   1     -41.269-123.707 -53.686  0.00  0.00     0.003 A 
ATOM     25  C   UNL d   1     -41.134-123.056 -53.200  0.00  0.00     0.021 A 
ENDBRANCH   2  20
TORSDOF 2
ENDMDL
MODEL 2
REMARK VINA RESULT:       7.4      1.506      2.947
REMARK  2 active torsions:
REMARK  status: ('A' for Active; 'I' for Inactive)
REMARK    1  A    between atoms: C_6  and  C_1 
REMARK    2  A    between atoms: C_9  and  C_2 
ROOT
ATOM      1  C   UNL d   1     -41.599-121.817 -51.778  0.00  0.00     0.039 A 
ATOM      2  C   UNL d   1     -41.825-121.827 -50.989  0.00  0.00     0.120 A 
ATOM      3  N   UNL d   1     -41.785-121.054 -50.696  0.00  0.00    -0.164 NA
ATOM      4  N   UNL d   1     -41.534-120.574 -51.311  0.00  0.00    -0.228 N 
ATOM      5  C   UNL d   1     -41.418-121.044 -51.980  0.00  0.00     0.085 A 
ATOM      6  C   UNL d   1     -41.351-119.792 -51.516  0.00  0.00     0.101 A 
ATOM      7  C   UNL d   1     -41.163-120.549 -52.599  0.00  0.00     0.021 A 
ATOM      8  C   UNL d   1     -41.123-119.780 -52.309  0.00  0.00     0.022 A 
ENDROOT
BRANCH   1   9
ATOM      9  C   UNL d   1     -41.560-122.468 -52.282  0.00  0.00     0.006 A 
ATOM     10  C   UNL d   1     -41.907-122.439 -53.020  0.00  0.00     0.018 A 
ATOM     11  C   UNL d   1     -41.867-123.089 -53.524  0.00  0.00     0.085 A 
ATOM     12  C   UNL d   1     -42.301-121.752 -53.263  0.00  0.00     0.005 A 
ATOM     13  C   UNL d   1     -42.222-123.060 -54.277  0.00  0.00     0.061 A 
ATOM     14  N   UNL d   1     -41.474-123.775 -53.282  0.00  0.00    -0.244 NA
ATOM     15  C   UNL d   1     -42.613-122.370 -54.511  0.00  0.00     0.197 A 
ATOM     16  C   UNL d   1     -42.652-121.726 -54.012  0.00  0.00     0.042 A 
ATOM     17  O   UNL d   1     -42.963-122.344 -55.258  0.00  0.00    -0.286 OA
ATOM     18  C   UNL d   1     -41.124-123.807 -52.540  0.00  0.00     0.099 A 
ATOM     19  C   UNL d   1     -41.166-123.151 -52.036  0.00  0.00     0.021 A 
ENDBRANCH   1   9
BRANCH   2  20
ATOM     20  C   UNL d   1     -42.054-122.491 -50.557  0.00  0.00     0.101 A 
ATOM     21  N   UNL d   1     -42.851-122.675 -50.475  0.00  0.00    -0.242 NA
ATOM     22  C   UNL d   1     -43.082-123.330 -50.050  0.00  0.00     0.099 A 
ATOM     23  C   UNL d   1     -42.509-123.817 -49.695  0.00  0.00     0.021 A 
ATOM     24  C   UNL d   1     -41.706-123.632 -49.777  0.00  0.00     0.003 A 
ATOM     25  C   UNL d   1     -41.487-122.967 -50.210  0.00  0.00     0.021 A 
ENDBRANCH   2  20
TORSDOF 2
ENDMDL
