MODEL 1
REMARK VINA RESULT:      39.9      0.000      0.000
REMARK  5 active torsions:
REMARK  status: ('A' for Active; 'I' for Inactive)
REMARK    1  A    between atoms: N_14  and  C_6 
REMARK    2  A    between atoms: C_20  and  N_14 
REMARK    3  A    between atoms: N_15  and  C_21 
REMARK    4  A    between atoms: C_17  and  C_20 
REMARK    5  A    between atoms: C_21  and  C_17 
ROOT
ATOM      1  N   UNL d   1     -51.232  25.724  33.312  0.00  0.00    -0.183 N 
ATOM      2  C   UNL d   1     -51.347  24.902  33.312  0.00  0.00     0.169 A 
ATOM      3  C   UNL d   1     -52.102  24.586  33.311  0.00  0.00     0.073 A 
ATOM      4  C   UNL d   1     -52.740  25.096  33.311  0.00  0.00     0.185 A 
ATOM      5  N   UNL d   1     -52.626  25.918  33.311  0.00  0.00    -0.142 NA
ATOM      6  C   UNL d   1     -50.471  26.021  33.312  0.00  0.00     0.218 A 
ATOM      7  N   UNL d   1     -50.697  24.399  33.312  0.00  0.00    -0.226 NA
ATOM      8  C   UNL d   1     -52.215  23.773  33.311  0.00  0.00     0.007 A 
ATOM      9  N   UNL d   1     -53.511  24.791  33.310  0.00  0.00    -0.225 NA
ATOM     10  C   UNL d   1     -49.825  25.528  33.313  0.00  0.00     0.071 A 
ATOM     11  C   UNL d   1     -52.968  23.456  33.310  0.00  0.00     0.019 A 
ATOM     12  C   UNL d   1     -49.939  24.706  33.312  0.00  0.00     0.087 A 
ATOM     13  C   UNL d   1     -53.625  23.969  33.310  0.00  0.00     0.083 A 
ATOM     14  C   UNL d   1     -51.561  23.269  33.311  0.00  0.00     0.000 C 
ATOM     15  C   UNL d   1     -49.261  24.186  33.312  0.00  0.00     0.021 C 
ATOM     16  C   UNL d   1     -54.379  23.661  33.310  0.00  0.00     0.021 C 
ENDROOT
BRANCH   6  17
ATOM     17  N   UNL d   1     -50.362  26.870  33.313  0.00  0.00    -0.380 NA
BRANCH  17  18
ATOM     18  C   UNL d   1     -50.240  27.701  33.371  0.00  0.00     0.164 C 
BRANCH  18  19
ATOM     19  C   UNL d   1     -49.519  27.995  33.711  0.00  0.00     0.054 C 
BRANCH  19  20
ATOM     20  C   UNL d   1     -49.471  28.109  34.557  0.00  0.00     0.083 C 
BRANCH  20  21
ATOM     21  N   UNL d   1     -48.850  28.586  34.891  0.00  0.00    -0.300 N 
ATOM     22  C   UNL d   1     -48.485  27.907  35.254  0.00  0.00     0.100 C 
ATOM     23  C   UNL d   1     -48.491  29.350  35.000  0.00  0.00     0.100 C 
ENDBRANCH  20  21
ENDBRANCH  19  20
ENDBRANCH  18  19
ENDBRANCH  17  18
ENDBRANCH   6  17
TORSDOF 5
ENDMDL
