MODEL 1
REMARK VINA RESULT:      -9.2      0.000      0.000
REMARK  7 active torsions:
REMARK  status: ('A' for Active; 'I' for Inactive)
REMARK    1  A    between atoms: N_2  and  C_1 
REMARK    2  A    between atoms: S_4  and  C_3 
REMARK    3  A    between atoms: C_6  and  S_4 
REMARK    4  A    between atoms: C_5  and  C_8 
REMARK    5  A    between atoms: C_9  and  C_6 
REMARK    6  A    between atoms: O_14  and  C_9 
REMARK    7  A    between atoms: C_12  and  O_14 
ROOT
ATOM      1  S   UNL d   1      52.202  33.535  52.907  0.00  0.00     0.096 S 
ATOM      2  O   UNL d   1      52.300  33.202  52.166  0.00  0.00    -0.247 OA
ENDROOT
BRANCH   1   3
ATOM      3  C   UNL d   1      52.812  33.485  53.464  0.00  0.00     0.082 A 
ATOM      4  C   UNL d   1      53.179  32.750  53.627  0.00  0.00     0.135 A 
ATOM      5  C   UNL d   1      53.786  32.713  54.184  0.00  0.00     0.028 A 
ATOM      6  C   UNL d   1      54.037  33.389  54.583  0.00  0.00     0.073 A 
ATOM      7  C   UNL d   1      53.673  34.118  54.422  0.00  0.00     0.005 A 
ATOM      8  C   UNL d   1      53.061  34.166  53.863  0.00  0.00     0.011 A 
BRANCH   4   9
ATOM      9  N   UNL d   1      52.928  32.073  53.227  0.00  0.00    -0.113 N 
ATOM     10  O   UNL d   1      53.291  31.864  52.506  0.00  0.00    -0.532 OA
ATOM     11  O   UNL d   1      52.318  31.604  53.540  0.00  0.00    -0.532 OA
ENDBRANCH   4   9
BRANCH   6  12
ATOM     12  C   UNL d   1      54.644  33.353  55.140  0.00  0.00     0.419 C 
ATOM     13  F   UNL d   1      54.649  32.943  55.910  0.00  0.00    -0.166 F 
ATOM     14  F   UNL d   1      55.191  33.312  55.658  0.00  0.00    -0.166 F 
ATOM     15  F   UNL d   1      55.438  33.704  55.126  0.00  0.00    -0.166 F 
ENDBRANCH   6  12
ENDBRANCH   1   3
BRANCH   1  16
ATOM     16  C   UNL d   1      51.498  33.919  53.101  0.00  0.00     0.137 C 
BRANCH  16  17
ATOM     17  C   UNL d   1      50.954  34.109  52.507  0.00  0.00     0.309 C 
ATOM     18  O   UNL d   1      51.207  34.514  51.834  0.00  0.00    -0.258 OA
BRANCH  17  19
ATOM     19  O   UNL d   1      50.162  33.894  52.588  0.00  0.00    -0.273 OA
BRANCH  19  20
ATOM     20  C   UNL d   1      49.657  34.352  52.441  0.00  0.00     0.103 A 
ATOM     21  C   UNL d   1      49.450  34.818  52.917  0.00  0.00     0.025 A 
ATOM     22  C   UNL d   1      48.941  35.282  52.773  0.00  0.00     0.002 A 
ATOM     23  C   UNL d   1      48.733  35.748  53.249  0.00  0.00     0.000 C 
ATOM     24  C   UNL d   1      48.641  35.272  52.138  0.00  0.00     0.000 A 
ATOM     25  C   UNL d   1      48.851  34.797  51.648  0.00  0.00     0.002 A 
ATOM     26  C   UNL d   1      49.358  34.342  51.806  0.00  0.00     0.025 A 
ATOM     27  C   UNL d   1      48.546  34.786  51.003  0.00  0.00     0.000 C 
ENDBRANCH  19  20
ENDBRANCH  17  19
ENDBRANCH  16  17
ENDBRANCH   1  16
TORSDOF 7
ENDMDL
MODEL 2
REMARK VINA RESULT:      -9.0      3.016      4.639
REMARK  7 active torsions:
REMARK  status: ('A' for Active; 'I' for Inactive)
REMARK    1  A    between atoms: N_2  and  C_1 
REMARK    2  A    between atoms: S_4  and  C_3 
REMARK    3  A    between atoms: C_6  and  S_4 
REMARK    4  A    between atoms: C_5  and  C_8 
REMARK    5  A    between atoms: C_9  and  C_6 
REMARK    6  A    between atoms: O_14  and  C_9 
REMARK    7  A    between atoms: C_12  and  O_14 
ROOT
ATOM      1  S   UNL d   1      54.022  32.780  53.665  0.00  0.00     0.096 S 
ATOM      2  O   UNL d   1      54.732  32.728  53.261  0.00  0.00    -0.247 OA
ENDROOT
BRANCH   1   3
ATOM      3  C   UNL d   1      53.742  33.520  53.909  0.00  0.00     0.082 A 
ATOM      4  C   UNL d   1      54.033  33.873  54.611  0.00  0.00     0.135 A 
ATOM      5  C   UNL d   1      53.746  34.611  54.844  0.00  0.00     0.028 A 
ATOM      6  C   UNL d   1      53.177  35.005  54.396  0.00  0.00     0.073 A 
ATOM      7  C   UNL d   1      52.889  34.655  53.701  0.00  0.00     0.005 A 
ATOM      8  C   UNL d   1      53.171  33.913  53.457  0.00  0.00     0.011 A 
BRANCH   4   9
ATOM      9  N   UNL d   1      54.602  33.478  55.059  0.00  0.00    -0.113 N 
ATOM     10  O   UNL d   1      55.411  33.608  54.902  0.00  0.00    -0.532 OA
ATOM     11  O   UNL d   1      54.372  32.955  55.662  0.00  0.00    -0.532 OA
ENDBRANCH   4   9
BRANCH   6  12
ATOM     12  C   UNL d   1      52.890  35.742  54.629  0.00  0.00     0.419 C 
ATOM     13  F   UNL d   1      53.246  36.529  54.499  0.00  0.00    -0.166 F 
ATOM     14  F   UNL d   1      52.638  36.423  54.836  0.00  0.00    -0.166 F 
ATOM     15  F   UNL d   1      52.166  35.950  55.061  0.00  0.00    -0.166 F 
ENDBRANCH   6  12
ENDBRANCH   1   3
BRANCH   1  16
ATOM     16  C   UNL d   1      53.585  32.100  53.831  0.00  0.00     0.137 C 
BRANCH  16  17
ATOM     17  C   UNL d   1      53.571  31.477  53.287  0.00  0.00     0.309 C 
ATOM     18  O   UNL d   1      53.202  31.579  52.556  0.00  0.00    -0.258 OA
BRANCH  17  19
ATOM     19  O   UNL d   1      53.924  30.755  53.475  0.00  0.00    -0.273 OA
BRANCH  19  20
ATOM     20  C   UNL d   1      53.530  30.199  53.620  0.00  0.00     0.103 A 
ATOM     21  C   UNL d   1      53.005  30.015  53.199  0.00  0.00     0.025 A 
ATOM     22  C   UNL d   1      52.605  29.454  53.342  0.00  0.00     0.002 A 
ATOM     23  C   UNL d   1      52.080  29.270  52.920  0.00  0.00     0.000 C 
ATOM     24  C   UNL d   1      52.741  29.078  53.918  0.00  0.00     0.000 A 
ATOM     25  C   UNL d   1      53.277  29.263  54.351  0.00  0.00     0.002 A 
ATOM     26  C   UNL d   1      53.667  29.822  54.197  0.00  0.00     0.025 A 
ATOM     27  C   UNL d   1      53.416  28.879  54.938  0.00  0.00     0.000 C 
ENDBRANCH  19  20
ENDBRANCH  17  19
ENDBRANCH  16  17
ENDBRANCH   1  16
TORSDOF 7
ENDMDL
MODEL 3
REMARK VINA RESULT:      -8.9      2.933      4.977
REMARK  7 active torsions:
REMARK  status: ('A' for Active; 'I' for Inactive)
REMARK    1  A    between atoms: N_2  and  C_1 
REMARK    2  A    between atoms: S_4  and  C_3 
REMARK    3  A    between atoms: C_6  and  S_4 
REMARK    4  A    between atoms: C_5  and  C_8 
REMARK    5  A    between atoms: C_9  and  C_6 
REMARK    6  A    between atoms: O_14  and  C_9 
REMARK    7  A    between atoms: C_12  and  O_14 
ROOT
ATOM      1  S   UNL d   1      52.730  33.271  53.830  0.00  0.00     0.096 S 
ATOM      2  O   UNL d   1      53.092  33.616  54.478  0.00  0.00    -0.247 OA
ENDROOT
BRANCH   1   3
ATOM      3  C   UNL d   1      52.035  33.599  53.524  0.00  0.00     0.082 A 
ATOM      4  C   UNL d   1      52.031  34.383  53.227  0.00  0.00     0.135 A 
ATOM      5  C   UNL d   1      51.332  34.699  52.924  0.00  0.00     0.028 A 
ATOM      6  C   UNL d   1      50.637  34.256  52.909  0.00  0.00     0.073 A 
ATOM      7  C   UNL d   1      50.641  33.479  53.203  0.00  0.00     0.005 A 
ATOM      8  C   UNL d   1      51.339  33.151  53.510  0.00  0.00     0.011 A 
BRANCH   4   9
ATOM      9  N   UNL d   1      52.726  34.827  53.243  0.00  0.00    -0.113 N 
ATOM     10  O   UNL d   1      53.244  34.801  52.589  0.00  0.00    -0.532 OA
ATOM     11  O   UNL d   1      52.910  35.295  53.904  0.00  0.00    -0.532 OA
ENDBRANCH   4   9
BRANCH   6  12
ATOM     12  C   UNL d   1      49.938  34.572  52.606  0.00  0.00     0.419 C 
ATOM     13  F   UNL d   1      49.347  35.070  53.012  0.00  0.00    -0.166 F 
ATOM     14  F   UNL d   1      49.296  34.866  52.341  0.00  0.00    -0.166 F 
ATOM     15  F   UNL d   1      49.591  34.504  51.813  0.00  0.00    -0.166 F 
ENDBRANCH   6  12
ENDBRANCH   1   3
BRANCH   1  16
ATOM     16  C   UNL d   1      53.055  32.597  53.481  0.00  0.00     0.137 C 
BRANCH  16  17
ATOM     17  C   UNL d   1      53.460  32.046  53.948  0.00  0.00     0.309 C 
ATOM     18  O   UNL d   1      53.450  32.118  54.769  0.00  0.00    -0.258 OA
BRANCH  17  19
ATOM     19  O   UNL d   1      53.872  31.427  53.591  0.00  0.00    -0.273 OA
BRANCH  19  20
ATOM     20  C   UNL d   1      53.607  30.783  53.591  0.00  0.00     0.103 A 
ATOM     21  C   UNL d   1      53.669  30.372  54.152  0.00  0.00     0.025 A 
ATOM     22  C   UNL d   1      53.402  29.721  54.157  0.00  0.00     0.002 A 
ATOM     23  C   UNL d   1      53.463  29.311  54.718  0.00  0.00     0.000 C 
ATOM     24  C   UNL d   1      53.069  29.486  53.584  0.00  0.00     0.000 A 
ATOM     25  C   UNL d   1      53.004  29.903  53.009  0.00  0.00     0.002 A 
ATOM     26  C   UNL d   1      53.274  30.548  53.019  0.00  0.00     0.025 A 
ATOM     27  C   UNL d   1      52.666  29.664  52.427  0.00  0.00     0.000 C 
ENDBRANCH  19  20
ENDBRANCH  17  19
ENDBRANCH  16  17
ENDBRANCH   1  16
TORSDOF 7
ENDMDL
MODEL 4
REMARK VINA RESULT:      -8.5      1.898      2.259
REMARK  7 active torsions:
REMARK  status: ('A' for Active; 'I' for Inactive)
REMARK    1  A    between atoms: N_2  and  C_1 
REMARK    2  A    between atoms: S_4  and  C_3 
REMARK    3  A    between atoms: C_6  and  S_4 
REMARK    4  A    between atoms: C_5  and  C_8 
REMARK    5  A    between atoms: C_9  and  C_6 
REMARK    6  A    between atoms: O_14  and  C_9 
REMARK    7  A    between atoms: C_12  and  O_14 
ROOT
ATOM      1  S   UNL d   1      52.784  33.003  53.063  0.00  0.00     0.096 S 
ATOM      2  O   UNL d   1      53.312  33.454  52.630  0.00  0.00    -0.247 OA
ENDROOT
BRANCH   1   3
ATOM      3  C   UNL d   1      52.976  32.223  53.263  0.00  0.00     0.082 A 
ATOM      4  C   UNL d   1      53.551  32.065  53.852  0.00  0.00     0.135 A 
ATOM      5  C   UNL d   1      53.733  31.284  54.041  0.00  0.00     0.028 A 
ATOM      6  C   UNL d   1      53.359  30.656  53.661  0.00  0.00     0.073 A 
ATOM      7  C   UNL d   1      52.790  30.812  53.078  0.00  0.00     0.005 A 
ATOM      8  C   UNL d   1      52.598  31.595  52.879  0.00  0.00     0.011 A 
BRANCH   4   9
ATOM      9  N   UNL d   1      53.925  32.694  54.232  0.00  0.00    -0.113 N 
ATOM     10  O   UNL d   1      54.624  33.012  53.908  0.00  0.00    -0.532 OA
ATOM     11  O   UNL d   1      53.609  33.008  54.934  0.00  0.00    -0.532 OA
ENDBRANCH   4   9
BRANCH   6  12
ATOM     12  C   UNL d   1      53.542  29.874  53.850  0.00  0.00     0.419 C 
ATOM     13  F   UNL d   1      54.212  29.390  53.570  0.00  0.00    -0.166 F 
ATOM     14  F   UNL d   1      53.720  29.160  54.016  0.00  0.00    -0.166 F 
ATOM     15  F   UNL d   1      53.131  29.315  54.373  0.00  0.00    -0.166 F 
ENDBRANCH   6  12
ENDBRANCH   1   3
BRANCH   1  16
ATOM     16  C   UNL d   1      52.061  33.322  53.302  0.00  0.00     0.137 C 
BRANCH  16  17
ATOM     17  C   UNL d   1      51.619  33.783  52.775  0.00  0.00     0.309 C 
ATOM     18  O   UNL d   1      51.938  34.482  52.474  0.00  0.00    -0.258 OA
BRANCH  17  19
ATOM     19  O   UNL d   1      50.862  33.543  52.550  0.00  0.00    -0.273 OA
BRANCH  19  20
ATOM     20  C   UNL d   1      50.352  34.012  52.480  0.00  0.00     0.103 A 
ATOM     21  C   UNL d   1      50.141  34.394  53.024  0.00  0.00     0.025 A 
ATOM     22  C   UNL d   1      49.627  34.869  52.957  0.00  0.00     0.002 A 
ATOM     23  C   UNL d   1      49.416  35.251  53.501  0.00  0.00     0.000 C 
ATOM     24  C   UNL d   1      49.324  34.955  52.329  0.00  0.00     0.000 A 
ATOM     25  C   UNL d   1      49.537  34.567  51.769  0.00  0.00     0.002 A 
ATOM     26  C   UNL d   1      50.050  34.098  51.852  0.00  0.00     0.025 A 
ATOM     27  C   UNL d   1      49.230  34.655  51.131  0.00  0.00     0.000 C 
ENDBRANCH  19  20
ENDBRANCH  17  19
ENDBRANCH  16  17
ENDBRANCH   1  16
TORSDOF 7
ENDMDL
