MODEL 1
REMARK VINA RESULT:      53.4      0.000      0.000
REMARK  4 active torsions:
REMARK  status: ('A' for Active; 'I' for Inactive)
REMARK    1  A    between atoms: C_4  and  C_1 
REMARK    2  A    between atoms: C_9  and  N_2 
REMARK    3  A    between atoms: C_10  and  N_3 
REMARK    4  A    between atoms: O_15  and  C_12 
ROOT
ATOM      1  C   UNL d   1     -58.691 -98.791 -45.060  0.00  0.00     0.133 A 
ATOM      2  N   UNL d   1     -59.168 -98.791 -44.397  0.00  0.00    -0.290 N 
ATOM      3  N   UNL d   1     -59.178 -98.790 -45.719  0.00  0.00    -0.290 N 
ATOM      4  C   UNL d   1     -59.961 -98.790 -45.451  0.00  0.00     0.101 A 
ATOM      5  C   UNL d   1     -59.946 -98.791 -44.666  0.00  0.00     0.101 A 
ENDROOT
BRANCH   1   6
ATOM      6  C   UNL d   1     -57.873 -98.792 -44.940  0.00  0.00     0.036 A 
ATOM      7  C   UNL d   1     -57.362 -98.807 -45.601  0.00  0.00     0.047 A 
ATOM      8  C   UNL d   1     -56.546 -98.808 -45.481  0.00  0.00     0.218 A 
ATOM      9  O   UNL d   1     -56.032 -98.824 -46.145  0.00  0.00    -0.284 OA
ATOM     10  C   UNL d   1     -56.245 -98.793 -44.715  0.00  0.00     0.133 A 
ATOM     11  C   UNL d   1     -56.752 -98.778 -44.067  0.00  0.00     0.028 A 
ATOM     12  C   UNL d   1     -57.565 -98.777 -44.186  0.00  0.00     0.005 A 
BRANCH  10  13
ATOM     13  O   UNL d   1     -55.412 -98.794 -44.589  0.00  0.00    -0.325 OA
ATOM     14  C   UNL d   1     -55.040 -99.487 -44.342  0.00  0.00     0.181 C 
ENDBRANCH  10  13
ENDBRANCH   1   6
BRANCH   2  15
ATOM     15  C   UNL d   1     -59.177 -98.792 -43.560  0.00  0.00     0.066 A 
ATOM     16  C   UNL d   1     -59.888 -98.819 -43.156  0.00  0.00     0.018 A 
ATOM     17  C   UNL d   1     -59.919 -98.820 -42.339  0.00  0.00     0.002 A 
ATOM     18  C   UNL d   1     -59.212 -98.795 -41.899  0.00  0.00     0.000 A 
ATOM     19  C   UNL d   1     -58.480 -98.767 -42.302  0.00  0.00     0.002 A 
ATOM     20  C   UNL d   1     -58.469 -98.767 -43.139  0.00  0.00     0.018 A 
ENDBRANCH   2  15
BRANCH   3  21
ATOM     21  C   UNL d   1     -59.056 -98.789 -46.535  0.00  0.00     0.066 A 
ATOM     22  C   UNL d   1     -59.693 -98.810 -47.061  0.00  0.00     0.018 A 
ATOM     23  C   UNL d   1     -59.574 -98.809 -47.857  0.00  0.00     0.002 A 
ATOM     24  C   UNL d   1     -58.801 -98.788 -48.178  0.00  0.00     0.000 A 
ATOM     25  C   UNL d   1     -58.162 -98.767 -47.648  0.00  0.00     0.002 A 
ATOM     26  C   UNL d   1     -58.286 -98.767 -46.834  0.00  0.00     0.018 A 
ENDBRANCH   3  21
TORSDOF 4
ENDMDL
