MODEL 1
REMARK VINA RESULT:      77.8      0.000      0.000
REMARK  8 active torsions:
REMARK  status: ('A' for Active; 'I' for Inactive)
REMARK    1  A    between atoms: C_9  and  N_1 
REMARK    2  A    between atoms: C_13  and  C_5 
REMARK    3  A    between atoms: C_8  and  C_6 
REMARK    4  A    between atoms: C_7  and  N_11 
REMARK    5  A    between atoms: C_10  and  C_9 
REMARK       I    between atoms: N_11  and  C_10 
REMARK    6  A    between atoms: C_15  and  C_13 
REMARK    7  A    between atoms: C_18  and  C_15 
REMARK    8  A    between atoms: C_20  and  C_18 
ROOT
ATOM      1  N   UNL d   1      60.791  47.802  50.735  0.00  0.00    -0.230 N 
ATOM      2  C   UNL d   1      61.365  48.400  50.768  0.00  0.00     0.299 A 
ATOM      3  C   UNL d   1      60.049  48.153  50.816  0.00  0.00     0.274 A 
ATOM      4  S   UNL d   1      60.972  49.124  50.870  0.00  0.00    -0.022 SA
ATOM      5  C   UNL d   1      60.165  48.967  50.899  0.00  0.00     0.090 A 
ATOM      6  O   UNL d   1      62.184  48.294  50.710  0.00  0.00    -0.259 OA
ATOM      7  O   UNL d   1      59.323  47.764  50.815  0.00  0.00    -0.266 OA
ENDROOT
BRANCH   1   8
ATOM      8  C   UNL d   1      60.944  46.999  50.638  0.00  0.00     0.149 C 
BRANCH   8   9
ATOM      9  C   UNL d   1      61.418  46.745  50.006  0.00  0.00     0.297 C 
ATOM     10  N   UNL d   1      61.613  45.947  49.932  0.00  0.00    -0.206 NA
ATOM     11  O   UNL d   1      61.692  47.297  49.453  0.00  0.00    -0.264 OA
BRANCH  10  12
ATOM     12  C   UNL d   1      61.335  45.408  50.487  0.00  0.00     0.090 A 
ATOM     13  C   UNL d   1      61.240  44.621  50.278  0.00  0.00     0.082 A 
ATOM     14  C   UNL d   1      60.962  44.079  50.830  0.00  0.00     0.008 A 
ATOM     15  C   UNL d   1      60.779  44.331  51.598  0.00  0.00     0.000 A 
ATOM     16  C   UNL d   1      60.878  45.127  51.801  0.00  0.00     0.002 A 
ATOM     17  C   UNL d   1      61.155  45.661  51.244  0.00  0.00     0.019 A 
BRANCH  13  18
ATOM     18  C   UNL d   1      61.423  44.372  49.512  0.00  0.00     0.212 C 
ATOM     19  O   UNL d   1      62.013  43.802  49.390  0.00  0.00    -0.644 OA
ATOM     20  O   UNL d   1      61.020  44.690  48.870  0.00  0.00    -0.644 OA
ENDBRANCH  13  18
ENDBRANCH  10  12
ENDBRANCH   8   9
ENDBRANCH   1   8
BRANCH   5  21
ATOM     21  C   UNL d   1      59.565  49.530  50.994  0.00  0.00     0.011 C 
BRANCH  21  22
ATOM     22  C   UNL d   1      58.890  49.503  50.516  0.00  0.00     0.001 C 
BRANCH  22  23
ATOM     23  C   UNL d   1      58.147  49.622  50.843  0.00  0.00     0.000 C 
BRANCH  23  24
ATOM     24  C   UNL d   1      57.474  49.585  50.365  0.00  0.00     0.000 A 
ATOM     25  C   UNL d   1      56.746  49.426  50.701  0.00  0.00     0.000 A 
ATOM     26  C   UNL d   1      56.072  49.388  50.228  0.00  0.00     0.000 A 
ATOM     27  C   UNL d   1      56.131  49.510  49.410  0.00  0.00     0.000 A 
ATOM     28  C   UNL d   1      56.873  49.670  49.074  0.00  0.00     0.000 A 
ATOM     29  C   UNL d   1      57.539  49.707  49.552  0.00  0.00     0.000 A 
ENDBRANCH  23  24
ENDBRANCH  22  23
ENDBRANCH  21  22
ENDBRANCH   5  21
TORSDOF 8
ENDMDL
MODEL 2
REMARK VINA RESULT:      78.3      1.619      5.355
REMARK  8 active torsions:
REMARK  status: ('A' for Active; 'I' for Inactive)
REMARK    1  A    between atoms: C_9  and  N_1 
REMARK    2  A    between atoms: C_13  and  C_5 
REMARK    3  A    between atoms: C_8  and  C_6 
REMARK    4  A    between atoms: C_7  and  N_11 
REMARK    5  A    between atoms: C_10  and  C_9 
REMARK       I    between atoms: N_11  and  C_10 
REMARK    6  A    between atoms: C_15  and  C_13 
REMARK    7  A    between atoms: C_18  and  C_15 
REMARK    8  A    between atoms: C_20  and  C_18 
ROOT
ATOM      1  N   UNL d   1      60.188  48.529  50.589  0.00  0.00    -0.230 N 
ATOM      2  C   UNL d   1      60.822  48.880  50.993  0.00  0.00     0.299 A 
ATOM      3  C   UNL d   1      60.480  47.892  50.154  0.00  0.00     0.274 A 
ATOM      4  S   UNL d   1      61.510  48.454  50.804  0.00  0.00    -0.022 SA
ATOM      5  C   UNL d   1      61.295  47.850  50.289  0.00  0.00     0.090 A 
ATOM      6  O   UNL d   1      60.777  49.537  51.494  0.00  0.00    -0.259 OA
ATOM      7  O   UNL d   1      60.042  47.389  49.672  0.00  0.00    -0.266 OA
ENDROOT
BRANCH   1   8
ATOM      8  C   UNL d   1      59.405  48.780  50.622  0.00  0.00     0.149 C 
BRANCH   8   9
ATOM      9  C   UNL d   1      59.153  49.260  51.251  0.00  0.00     0.297 C 
ATOM     10  N   UNL d   1      58.459  49.699  51.182  0.00  0.00    -0.206 NA
ATOM     11  O   UNL d   1      59.604  49.293  51.945  0.00  0.00    -0.264 OA
BRANCH  10  12
ATOM     12  C   UNL d   1      58.020  49.658  50.489  0.00  0.00     0.090 A 
ATOM     13  C   UNL d   1      57.206  49.568  50.527  0.00  0.00     0.082 A 
ATOM     14  C   UNL d   1      56.763  49.527  49.836  0.00  0.00     0.008 A 
ATOM     15  C   UNL d   1      57.142  49.577  49.101  0.00  0.00     0.000 A 
ATOM     16  C   UNL d   1      57.965  49.668  49.071  0.00  0.00     0.002 A 
ATOM     17  C   UNL d   1      58.398  49.708  49.765  0.00  0.00     0.019 A 
BRANCH  13  18
ATOM     18  C   UNL d   1      56.830  49.518  51.260  0.00  0.00     0.212 C 
ATOM     19  O   UNL d   1      57.256  49.279  51.931  0.00  0.00    -0.644 OA
ATOM     20  O   UNL d   1      56.033  49.707  51.328  0.00  0.00    -0.644 OA
ENDBRANCH  13  18
ENDBRANCH  10  12
ENDBRANCH   8   9
ENDBRANCH   1   8
BRANCH   5  21
ATOM     21  C   UNL d   1      61.808  47.289  49.960  0.00  0.00     0.011 C 
BRANCH  21  22
ATOM     22  C   UNL d   1      61.532  46.530  49.780  0.00  0.00     0.001 C 
BRANCH  22  23
ATOM     23  C   UNL d   1      61.881  46.094  49.179  0.00  0.00     0.000 C 
BRANCH  23  24
ATOM     24  C   UNL d   1      61.799  45.272  49.162  0.00  0.00     0.000 A 
ATOM     25  C   UNL d   1      61.120  44.939  48.852  0.00  0.00     0.000 A 
ATOM     26  C   UNL d   1      61.033  44.119  48.833  0.00  0.00     0.000 A 
ATOM     27  C   UNL d   1      61.634  43.631  49.129  0.00  0.00     0.000 A 
ATOM     28  C   UNL d   1      62.321  43.975  49.443  0.00  0.00     0.000 A 
ATOM     29  C   UNL d   1      62.400  44.792  49.458  0.00  0.00     0.000 A 
ENDBRANCH  23  24
ENDBRANCH  22  23
ENDBRANCH  21  22
ENDBRANCH   5  21
TORSDOF 8
ENDMDL
