MODEL 1
REMARK VINA RESULT:      -8.1      0.000      0.000
REMARK  5 active torsions:
REMARK  status: ('A' for Active; 'I' for Inactive)
REMARK    1  A    between atoms: C_11  and  N_1 
REMARK    2  A    between atoms: S_14  and  C_2 
REMARK    3  A    between atoms: C_12  and  C_3 
REMARK    4  A    between atoms: C_8  and  C_12 
REMARK    5  A    between atoms: C_20  and  S_14 
ROOT
ATOM      1  N   UNL d   1     -48.310  13.455  22.718  0.00  0.00    -0.269 N 
ATOM      2  C   UNL d   1     -48.455  14.241  22.859  0.00  0.00     0.201 A 
ATOM      3  C   UNL d   1     -47.496  13.344  22.753  0.00  0.00     0.172 A 
ATOM      4  N   UNL d   1     -47.753  14.628  22.982  0.00  0.00    -0.121 NA
ATOM      5  N   UNL d   1     -47.152  14.068  22.916  0.00  0.00    -0.128 NA
ENDROOT
BRANCH   3   6
ATOM      6  C   UNL d   1     -47.182  12.605  22.633  0.00  0.00     0.059 C 
BRANCH   6   7
ATOM      7  C   UNL d   1     -46.367  12.503  22.659  0.00  0.00     0.094 A 
ATOM      8  C   UNL d   1     -45.879  12.963  22.186  0.00  0.00     0.082 A 
ATOM      9  C   UNL d   1     -45.061  12.858  22.215  0.00  0.00     0.285 A 
ATOM     10  O   UNL d   1     -44.556  13.328  21.731  0.00  0.00    -0.265 OA
ATOM     11  N   UNL d   1     -44.742  12.282  22.726  0.00  0.00    -0.152 NA
ATOM     12  C   UNL d   1     -45.229  11.827  23.194  0.00  0.00     0.371 A 
ATOM     13  N   UNL d   1     -46.052  11.938  23.160  0.00  0.00    -0.191 NA
ATOM     14  O   UNL d   1     -44.902  11.259  23.697  0.00  0.00    -0.242 OA
ENDBRANCH   6   7
ENDBRANCH   3   6
BRANCH   1  15
ATOM     15  C   UNL d   1     -48.894  12.900  22.571  0.00  0.00     0.067 A 
ATOM     16  C   UNL d   1     -49.257  12.509  23.203  0.00  0.00     0.018 A 
ATOM     17  C   UNL d   1     -49.851  11.945  23.054  0.00  0.00     0.001 A 
ATOM     18  C   UNL d   1     -50.221  11.548  23.695  0.00  0.00     0.000 C 
ATOM     19  C   UNL d   1     -50.071  11.781  22.278  0.00  0.00     0.000 A 
ATOM     20  C   UNL d   1     -49.705  12.175  21.651  0.00  0.00     0.002 A 
ATOM     21  C   UNL d   1     -49.117  12.733  21.798  0.00  0.00     0.018 A 
ENDBRANCH   1  15
BRANCH   2  22
ATOM     22  S   UNL d   1     -49.220  14.592  22.873  0.00  0.00    -0.048 SA
BRANCH  22  23
ATOM     23  C   UNL d   1     -49.290  15.419  22.966  0.00  0.00     0.032 C 
ATOM     24  C   UNL d   1     -49.763  15.726  23.573  0.00  0.00     0.007 C 
ATOM     25  C   UNL d   1     -48.885  15.922  22.452  0.00  0.00     0.007 C 
ENDBRANCH  22  23
ENDBRANCH   2  22
TORSDOF 5
ENDMDL
MODEL 2
REMARK VINA RESULT:      -6.4      7.342      9.274
REMARK  5 active torsions:
REMARK  status: ('A' for Active; 'I' for Inactive)
REMARK    1  A    between atoms: C_11  and  N_1 
REMARK    2  A    between atoms: S_14  and  C_2 
REMARK    3  A    between atoms: C_12  and  C_3 
REMARK    4  A    between atoms: C_8  and  C_12 
REMARK    5  A    between atoms: C_20  and  S_14 
ROOT
ATOM      1  N   UNL d   1     -39.537  14.920  20.317  0.00  0.00    -0.269 N 
ATOM      2  C   UNL d   1     -38.925  14.972  20.846  0.00  0.00     0.201 A 
ATOM      3  C   UNL d   1     -39.216  14.734  19.584  0.00  0.00     0.172 A 
ATOM      4  N   UNL d   1     -38.224  14.823  20.465  0.00  0.00    -0.121 NA
ATOM      5  N   UNL d   1     -38.405  14.674  19.675  0.00  0.00    -0.128 NA
ENDROOT
BRANCH   3   6
ATOM      6  C   UNL d   1     -39.701  14.644  18.939  0.00  0.00     0.059 C 
BRANCH   6   7
ATOM      7  C   UNL d   1     -39.390  14.352  18.236  0.00  0.00     0.094 A 
ATOM      8  C   UNL d   1     -39.168  14.867  17.638  0.00  0.00     0.082 A 
ATOM      9  C   UNL d   1     -38.857  14.571  16.934  0.00  0.00     0.285 A 
ATOM     10  O   UNL d   1     -38.627  15.096  16.317  0.00  0.00    -0.265 OA
ATOM     11  N   UNL d   1     -38.772  13.747  16.842  0.00  0.00    -0.152 NA
ATOM     12  C   UNL d   1     -38.994  13.237  17.438  0.00  0.00     0.371 A 
ATOM     13  N   UNL d   1     -39.306  13.543  18.144  0.00  0.00    -0.191 NA
ATOM     14  O   UNL d   1     -38.905  12.422  17.335  0.00  0.00    -0.242 OA
ENDBRANCH   6   7
ENDBRANCH   3   6
BRANCH   1  15
ATOM     15  C   UNL d   1     -40.323  15.039  20.513  0.00  0.00     0.067 A 
ATOM     16  C   UNL d   1     -40.794  14.393  20.729  0.00  0.00     0.018 A 
ATOM     17  C   UNL d   1     -41.594  14.513  20.929  0.00  0.00     0.001 A 
ATOM     18  C   UNL d   1     -42.072  13.858  21.148  0.00  0.00     0.000 C 
ATOM     19  C   UNL d   1     -41.909  15.273  20.909  0.00  0.00     0.000 A 
ATOM     20  C   UNL d   1     -41.434  15.914  20.692  0.00  0.00     0.002 A 
ATOM     21  C   UNL d   1     -40.643  15.795  20.495  0.00  0.00     0.018 A 
ENDBRANCH   1  15
BRANCH   2  22
ATOM     22  S   UNL d   1     -39.011  15.154  21.664  0.00  0.00    -0.048 SA
BRANCH  22  23
ATOM     23  C   UNL d   1     -38.332  15.199  22.148  0.00  0.00     0.032 C 
ATOM     24  C   UNL d   1     -37.940  15.922  22.240  0.00  0.00     0.007 C 
ATOM     25  C   UNL d   1     -38.059  14.519  22.529  0.00  0.00     0.007 C 
ENDBRANCH  22  23
ENDBRANCH   2  22
TORSDOF 5
ENDMDL
MODEL 3
REMARK VINA RESULT:      -5.3      8.512      9.736
REMARK  5 active torsions:
REMARK  status: ('A' for Active; 'I' for Inactive)
REMARK    1  A    between atoms: C_11  and  N_1 
REMARK    2  A    between atoms: S_14  and  C_2 
REMARK    3  A    between atoms: C_12  and  C_3 
REMARK    4  A    between atoms: C_8  and  C_12 
REMARK    5  A    between atoms: C_20  and  S_14 
ROOT
ATOM      1  N   UNL d   1     -39.547  14.919  18.302  0.00  0.00    -0.269 N 
ATOM      2  C   UNL d   1     -40.223  15.272  18.027  0.00  0.00     0.201 A 
ATOM      3  C   UNL d   1     -39.495  15.077  19.106  0.00  0.00     0.172 A 
ATOM      4  N   UNL d   1     -40.599  15.650  18.638  0.00  0.00    -0.121 NA
ATOM      5  N   UNL d   1     -40.144  15.529  19.314  0.00  0.00    -0.128 NA
ENDROOT
BRANCH   3   6
ATOM      6  C   UNL d   1     -38.868  14.792  19.537  0.00  0.00     0.059 C 
BRANCH   6   7
ATOM      7  C   UNL d   1     -38.905  14.799  20.358  0.00  0.00     0.094 A 
ATOM      8  C   UNL d   1     -38.475  15.352  20.784  0.00  0.00     0.082 A 
ATOM      9  C   UNL d   1     -38.514  15.356  21.609  0.00  0.00     0.285 A 
ATOM     10  O   UNL d   1     -38.074  15.922  22.051  0.00  0.00    -0.265 OA
ATOM     11  N   UNL d   1     -38.992  14.794  21.997  0.00  0.00    -0.152 NA
ATOM     12  C   UNL d   1     -39.417  14.246  21.570  0.00  0.00     0.371 A 
ATOM     13  N   UNL d   1     -39.374  14.247  20.740  0.00  0.00    -0.191 NA
ATOM     14  O   UNL d   1     -39.888  13.694  21.965  0.00  0.00    -0.242 OA
ENDBRANCH   6   7
ENDBRANCH   3   6
BRANCH   1  15
ATOM     15  C   UNL d   1     -39.032  14.488  17.833  0.00  0.00     0.067 A 
ATOM     16  C   UNL d   1     -39.091  13.663  17.808  0.00  0.00     0.018 A 
ATOM     17  C   UNL d   1     -38.568  13.225  17.332  0.00  0.00     0.001 A 
ATOM     18  C   UNL d   1     -38.627  12.387  17.305  0.00  0.00     0.000 C 
ATOM     19  C   UNL d   1     -37.995  13.617  16.890  0.00  0.00     0.000 A 
ATOM     20  C   UNL d   1     -37.940  14.441  16.919  0.00  0.00     0.002 A 
ATOM     21  C   UNL d   1     -38.458  14.874  17.390  0.00  0.00     0.018 A 
ENDBRANCH   1  15
BRANCH   2  22
ATOM     22  S   UNL d   1     -40.488  15.246  17.227  0.00  0.00    -0.048 SA
BRANCH  22  23
ATOM     23  C   UNL d   1     -41.192  15.640  17.015  0.00  0.00     0.032 C 
ATOM     24  C   UNL d   1     -41.759  15.810  17.595  0.00  0.00     0.007 C 
ATOM     25  C   UNL d   1     -41.315  15.858  16.228  0.00  0.00     0.007 C 
ENDBRANCH  22  23
ENDBRANCH   2  22
TORSDOF 5
ENDMDL
MODEL 4
REMARK VINA RESULT:      -5.2      7.034      9.483
REMARK  5 active torsions:
REMARK  status: ('A' for Active; 'I' for Inactive)
REMARK    1  A    between atoms: C_11  and  N_1 
REMARK    2  A    between atoms: S_14  and  C_2 
REMARK    3  A    between atoms: C_12  and  C_3 
REMARK    4  A    between atoms: C_8  and  C_12 
REMARK    5  A    between atoms: C_20  and  S_14 
ROOT
ATOM      1  N   UNL d   1     -39.886  14.500  19.954  0.00  0.00    -0.269 N 
ATOM      2  C   UNL d   1     -40.652  14.281  20.105  0.00  0.00     0.201 A 
ATOM      3  C   UNL d   1     -39.760  14.420  19.146  0.00  0.00     0.172 A 
ATOM      4  N   UNL d   1     -41.013  14.064  19.411  0.00  0.00    -0.121 NA
ATOM      5  N   UNL d   1     -40.456  14.151  18.811  0.00  0.00    -0.128 NA
ENDROOT
BRANCH   3   6
ATOM      6  C   UNL d   1     -39.036  14.602  18.827  0.00  0.00     0.059 C 
BRANCH   6   7
ATOM      7  C   UNL d   1     -38.922  14.536  18.016  0.00  0.00     0.094 A 
ATOM      8  C   UNL d   1     -38.636  13.838  17.695  0.00  0.00     0.082 A 
ATOM      9  C   UNL d   1     -38.523  13.776  16.880  0.00  0.00     0.285 A 
ATOM     10  O   UNL d   1     -38.230  13.061  16.546  0.00  0.00    -0.265 OA
ATOM     11  N   UNL d   1     -38.703  14.428  16.393  0.00  0.00    -0.152 NA
ATOM     12  C   UNL d   1     -38.987  15.121  16.715  0.00  0.00     0.371 A 
ATOM     13  N   UNL d   1     -39.098  15.177  17.537  0.00  0.00    -0.191 NA
ATOM     14  O   UNL d   1     -39.161  15.761  16.223  0.00  0.00    -0.242 OA
ENDBRANCH   6   7
ENDBRANCH   3   6
BRANCH   1  15
ATOM     15  C   UNL d   1     -39.359  14.751  20.529  0.00  0.00     0.067 A 
ATOM     16  C   UNL d   1     -38.921  14.193  20.956  0.00  0.00     0.018 A 
ATOM     17  C   UNL d   1     -38.386  14.447  21.541  0.00  0.00     0.001 A 
ATOM     18  C   UNL d   1     -37.941  13.882  21.975  0.00  0.00     0.000 C 
ATOM     19  C   UNL d   1     -38.297  15.252  21.688  0.00  0.00     0.000 A 
ATOM     20  C   UNL d   1     -38.736  15.805  21.259  0.00  0.00     0.002 A 
ATOM     21  C   UNL d   1     -39.266  15.553  20.680  0.00  0.00     0.018 A 
ENDBRANCH   1  15
BRANCH   2  22
ATOM     22  S   UNL d   1     -41.010  14.281  20.867  0.00  0.00    -0.048 SA
BRANCH  22  23
ATOM     23  C   UNL d   1     -41.815  14.073  20.942  0.00  0.00     0.032 C 
ATOM     24  C   UNL d   1     -42.393  14.666  20.960  0.00  0.00     0.007 C 
ATOM     25  C   UNL d   1     -42.027  13.277  20.997  0.00  0.00     0.007 C 
ENDBRANCH  22  23
ENDBRANCH   2  22
TORSDOF 5
ENDMDL
