MODEL 1
REMARK VINA RESULT:      21.9      0.000      0.000
REMARK  4 active torsions:
REMARK  status: ('A' for Active; 'I' for Inactive)
REMARK    1  A    between atoms: C_7  and  C_5 
REMARK    2  A    between atoms: C_8  and  C_7 
REMARK    3  A    between atoms: C_10  and  C_8 
REMARK    4  A    between atoms: O_18  and  C_11 
ROOT
ATOM      1  C   UNL d   1      13.017  13.474  -3.801  0.00  0.00     0.303 A 
ATOM      2  N   UNL d   1      13.425  11.881  -3.635  0.00  0.00    -0.222 NA
ATOM      3  O   UNL d   1      13.027  13.125  -3.052  0.00  0.00    -0.255 OA
ATOM      4  C   UNL d   1      13.212  13.025  -4.468  0.00  0.00     0.081 A 
ATOM      5  C   UNL d   1      13.230  12.333  -2.970  0.00  0.00     0.186 A 
ATOM      6  C   UNL d   1      13.415  12.234  -4.386  0.00  0.00     0.089 A 
ATOM      7  O   UNL d   1      12.813  14.273  -3.884  0.00  0.00    -0.259 OA
ATOM      8  C   UNL d   1      13.201  13.375  -5.210  0.00  0.00     0.007 A 
ATOM      9  C   UNL d   1      13.609  11.781  -5.044  0.00  0.00     0.019 A 
ATOM     10  C   UNL d   1      13.396  12.926  -5.875  0.00  0.00     0.000 A 
ATOM     11  C   UNL d   1      13.598  12.134  -5.793  0.00  0.00     0.002 A 
ENDROOT
BRANCH   5  12
ATOM     12  C   UNL d   1      13.243  11.966  -2.206  0.00  0.00     0.045 C 
BRANCH  12  13
ATOM     13  C   UNL d   1      13.967  11.780  -1.860  0.00  0.00     0.004 C 
BRANCH  13  14
ATOM     14  C   UNL d   1      14.365  12.337  -1.400  0.00  0.00     0.000 A 
ATOM     15  C   UNL d   1      14.103  12.511  -0.642  0.00  0.00     0.002 A 
ATOM     16  C   UNL d   1      14.501  13.068  -0.182  0.00  0.00     0.024 A 
ATOM     17  C   UNL d   1      15.167  13.455  -0.488  0.00  0.00     0.094 A 
ATOM     18  C   UNL d   1      15.430  13.279  -1.250  0.00  0.00     0.024 A 
ATOM     19  C   UNL d   1      15.032  12.724  -1.706  0.00  0.00     0.002 A 
BRANCH  17  20
ATOM     20  O   UNL d   1      15.567  14.020  -0.015  0.00  0.00    -0.328 OA
ATOM     21  C   UNL d   1      15.421  14.824  -0.110  0.00  0.00     0.181 C 
ENDBRANCH  17  20
ENDBRANCH  13  14
ENDBRANCH  12  13
ENDBRANCH   5  12
TORSDOF 4
ENDMDL
