MODEL 1
REMARK VINA RESULT:      52.7      0.000      0.000
REMARK  4 active torsions:
REMARK  status: ('A' for Active; 'I' for Inactive)
REMARK    1  A    between atoms: C_3  and  S_1 
REMARK    2  A    between atoms: N_4  and  S_1 
REMARK    3  A    between atoms: C_2  and  C_8 
REMARK       I    between atoms: N_5  and  C_2 
REMARK    4  A    between atoms: C_14  and  N_5 
ROOT
ATOM      1  C   UNL d   1      13.802  17.819  -5.774  0.00  0.00     0.104 A 
ATOM      2  C   UNL d   1      13.690  16.187  -5.404  0.00  0.00     0.058 A 
ATOM      3  C   UNL d   1      14.296  17.480  -5.252  0.00  0.00     0.013 A 
ATOM      4  C   UNL d   1      13.241  17.350  -6.123  0.00  0.00     0.013 A 
ATOM      5  C   UNL d   1      13.160  16.545  -5.962  0.00  0.00     0.005 A 
ATOM      6  C   UNL d   1      14.243  16.673  -5.067  0.00  0.00     0.005 A 
ENDROOT
BRANCH   2   7
ATOM      7  C   UNL d   1      13.635  15.361  -5.214  0.00  0.00     0.279 C 
ATOM      8  N   UNL d   1      13.210  15.094  -4.614  0.00  0.00    -0.208 NA
ATOM      9  O   UNL d   1      14.072  14.828  -5.715  0.00  0.00    -0.265 OA
BRANCH   8  10
ATOM     10  C   UNL d   1      13.175  14.285  -4.453  0.00  0.00     0.085 A 
ATOM     11  C   UNL d   1      12.818  13.791  -4.984  0.00  0.00     0.020 A 
ATOM     12  C   UNL d   1      12.784  12.983  -4.822  0.00  0.00     0.013 A 
ATOM     13  C   UNL d   1      13.106  12.669  -4.130  0.00  0.00     0.058 A 
ATOM     14  C   UNL d   1      13.473  13.190  -3.588  0.00  0.00     0.013 A 
ATOM     15 CL   UNL d   1      13.045  11.802  -4.002  0.00  0.00    -0.082 Cl
ATOM     16  C   UNL d   1      13.505  13.997  -3.754  0.00  0.00     0.020 A 
ENDBRANCH   8  10
ENDBRANCH   2   7
BRANCH   1  17
ATOM     17  S   UNL d   1      13.803  18.674  -6.019  0.00  0.00     0.271 S 
ATOM     18  O   UNL d   1      13.047  18.641  -6.389  0.00  0.00    -0.200 OA
ATOM     19  O   UNL d   1      14.526  18.700  -5.663  0.00  0.00    -0.200 OA
BRANCH  17  20
ATOM     20  N   UNL d   1      13.869  19.525  -6.229  0.00  0.00    -0.226 N 
ATOM     21  C   UNL d   1      14.623  19.886  -6.267  0.00  0.00     0.111 C 
ATOM     22  C   UNL d   1      13.190  19.967  -6.389  0.00  0.00     0.111 C 
ENDBRANCH  17  20
ENDBRANCH   1  17
TORSDOF 4
ENDMDL
