MODEL 1
REMARK VINA RESULT:      -7.1      0.000      0.000
REMARK  5 active torsions:
REMARK  status: ('A' for Active; 'I' for Inactive)
REMARK    1  A    between atoms: C_6  and  C_1 
REMARK    2  A    between atoms: N_7  and  C_2 
REMARK    3  A    between atoms: O_11  and  C_6 
REMARK       I    between atoms: C_8  and  N_7 
REMARK    4  A    between atoms: C_14  and  C_8 
REMARK    5  A    between atoms: C_15  and  O_11 
ROOT
ATOM      1  C   UNL d   1     -48.518  14.442  22.605  0.00  0.00     0.162 A 
ATOM      2  C   UNL d   1     -48.411  13.630  22.510  0.00  0.00     0.109 A 
ATOM      3  N   UNL d   1     -47.787  14.781  22.770  0.00  0.00    -0.239 NA
ATOM      4  C   UNL d   1     -47.613  13.467  22.617  0.00  0.00     0.037 A 
ATOM      5  C   UNL d   1     -47.223  14.174  22.778  0.00  0.00     0.083 A 
ATOM      6  C   UNL d   1     -47.191  12.757  22.588  0.00  0.00     0.003 A 
ATOM      7  C   UNL d   1     -46.407  14.179  22.911  0.00  0.00     0.019 A 
ATOM      8  C   UNL d   1     -46.375  12.761  22.721  0.00  0.00     0.000 A 
ATOM      9  C   UNL d   1     -45.988  13.469  22.881  0.00  0.00     0.002 A 
ENDROOT
BRANCH   1  10
ATOM     10  C   UNL d   1     -49.238  14.842  22.543  0.00  0.00     0.320 C 
ATOM     11  O   UNL d   1     -49.641  14.857  21.826  0.00  0.00    -0.257 OA
BRANCH  10  12
ATOM     12  O   UNL d   1     -49.560  15.230  23.196  0.00  0.00    -0.270 OA
BRANCH  12  13
ATOM     13  C   UNL d   1     -50.174  15.768  23.083  0.00  0.00     0.126 C 
ATOM     14  C   UNL d   1     -50.696  15.918  23.695  0.00  0.00     0.029 C 
ENDBRANCH  12  13
ENDBRANCH  10  12
ENDBRANCH   1  10
BRANCH   2  15
ATOM     15  N   UNL d   1     -49.003  13.077  22.338  0.00  0.00    -0.206 NA
ATOM     16  C   UNL d   1     -49.272  12.562  22.939  0.00  0.00     0.279 C 
ATOM     17  O   UNL d   1     -48.944  12.610  23.697  0.00  0.00    -0.265 OA
BRANCH  16  18
ATOM     18  C   UNL d   1     -49.861  12.013  22.765  0.00  0.00     0.062 C 
ATOM     19  C   UNL d   1     -50.313  11.691  23.381  0.00  0.00     0.005 C 
ENDBRANCH  16  18
ENDBRANCH   2  15
TORSDOF 5
ENDMDL
MODEL 2
REMARK VINA RESULT:      -6.9      0.816      2.384
REMARK  5 active torsions:
REMARK  status: ('A' for Active; 'I' for Inactive)
REMARK    1  A    between atoms: C_6  and  C_1 
REMARK    2  A    between atoms: N_7  and  C_2 
REMARK    3  A    between atoms: O_11  and  C_6 
REMARK       I    between atoms: C_8  and  N_7 
REMARK    4  A    between atoms: C_14  and  C_8 
REMARK    5  A    between atoms: C_15  and  O_11 
ROOT
ATOM      1  C   UNL d   1     -48.563  12.777  22.611  0.00  0.00     0.162 A 
ATOM      2  C   UNL d   1     -48.295  13.549  22.495  0.00  0.00     0.109 A 
ATOM      3  N   UNL d   1     -47.923  12.313  22.837  0.00  0.00    -0.239 NA
ATOM      4  C   UNL d   1     -47.488  13.560  22.649  0.00  0.00     0.037 A 
ATOM      5  C   UNL d   1     -47.253  12.799  22.861  0.00  0.00     0.083 A 
ATOM      6  C   UNL d   1     -46.934  14.173  22.622  0.00  0.00     0.003 A 
ATOM      7  C   UNL d   1     -46.463  12.645  23.049  0.00  0.00     0.019 A 
ATOM      8  C   UNL d   1     -46.144  14.019  22.810  0.00  0.00     0.000 A 
ATOM      9  C   UNL d   1     -45.913  13.258  23.021  0.00  0.00     0.002 A 
ENDROOT
BRANCH   1  10
ATOM     10  C   UNL d   1     -49.342  12.520  22.516  0.00  0.00     0.320 C 
ATOM     11  O   UNL d   1     -49.674  12.480  21.764  0.00  0.00    -0.257 OA
BRANCH  10  12
ATOM     12  O   UNL d   1     -49.795  12.302  23.170  0.00  0.00    -0.270 OA
BRANCH  12  13
ATOM     13  C   UNL d   1     -50.488  11.871  23.055  0.00  0.00     0.126 C 
ATOM     14  C   UNL d   1     -51.054  11.852  23.647  0.00  0.00     0.029 C 
ENDBRANCH  12  13
ENDBRANCH  10  12
ENDBRANCH   1  10
BRANCH   2  15
ATOM     15  N   UNL d   1     -48.756  14.196  22.263  0.00  0.00    -0.206 NA
ATOM     16  C   UNL d   1     -48.989  14.759  22.833  0.00  0.00     0.279 C 
ATOM     17  O   UNL d   1     -48.757  14.665  23.622  0.00  0.00    -0.265 OA
BRANCH  16  18
ATOM     18  C   UNL d   1     -49.449  15.402  22.600  0.00  0.00     0.062 C 
ATOM     19  C   UNL d   1     -49.892  15.813  23.167  0.00  0.00     0.005 C 
ENDBRANCH  16  18
ENDBRANCH   2  15
TORSDOF 5
ENDMDL
MODEL 3
REMARK VINA RESULT:      -6.8      1.521      3.548
REMARK  5 active torsions:
REMARK  status: ('A' for Active; 'I' for Inactive)
REMARK    1  A    between atoms: C_6  and  C_1 
REMARK    2  A    between atoms: N_7  and  C_2 
REMARK    3  A    between atoms: O_11  and  C_6 
REMARK       I    between atoms: C_8  and  N_7 
REMARK    4  A    between atoms: C_14  and  C_8 
REMARK    5  A    between atoms: C_15  and  O_11 
ROOT
ATOM      1  C   UNL d   1     -47.110  12.781  23.228  0.00  0.00     0.162 A 
ATOM      2  C   UNL d   1     -47.837  13.166  23.302  0.00  0.00     0.109 A 
ATOM      3  N   UNL d   1     -47.237  11.973  23.320  0.00  0.00    -0.239 NA
ATOM      4  C   UNL d   1     -48.411  12.596  23.440  0.00  0.00     0.037 A 
ATOM      5  C   UNL d   1     -48.046  11.857  23.452  0.00  0.00     0.083 A 
ATOM      6  C   UNL d   1     -49.227  12.658  23.557  0.00  0.00     0.003 A 
ATOM      7  C   UNL d   1     -48.494  11.174  23.581  0.00  0.00     0.019 A 
ATOM      8  C   UNL d   1     -49.674  11.975  23.686  0.00  0.00     0.000 A 
ATOM      9  C   UNL d   1     -49.307  11.239  23.698  0.00  0.00     0.002 A 
ENDROOT
BRANCH   1  10
ATOM     10  C   UNL d   1     -46.385  13.148  23.086  0.00  0.00     0.320 C 
ATOM     11  O   UNL d   1     -46.055  13.645  23.653  0.00  0.00    -0.257 OA
BRANCH  10  12
ATOM     12  O   UNL d   1     -45.982  13.021  22.377  0.00  0.00    -0.270 OA
BRANCH  12  13
ATOM     13  C   UNL d   1     -45.183  13.215  22.327  0.00  0.00     0.126 C 
ATOM     14  C   UNL d   1     -44.756  12.998  21.662  0.00  0.00     0.029 C 
ENDBRANCH  12  13
ENDBRANCH  10  12
ENDBRANCH   1  10
BRANCH   2  15
ATOM     15  N   UNL d   1     -47.963  13.983  23.248  0.00  0.00    -0.206 NA
ATOM     16  C   UNL d   1     -48.306  14.300  22.555  0.00  0.00     0.279 C 
ATOM     17  O   UNL d   1     -48.515  13.796  21.933  0.00  0.00    -0.265 OA
BRANCH  16  18
ATOM     18  C   UNL d   1     -48.430  15.113  22.503  0.00  0.00     0.062 C 
ATOM     19  C   UNL d   1     -49.030  15.403  22.011  0.00  0.00     0.005 C 
ENDBRANCH  16  18
ENDBRANCH   2  15
TORSDOF 5
ENDMDL
MODEL 4
REMARK VINA RESULT:      -6.7      1.394      3.108
REMARK  5 active torsions:
REMARK  status: ('A' for Active; 'I' for Inactive)
REMARK    1  A    between atoms: C_6  and  C_1 
REMARK    2  A    between atoms: N_7  and  C_2 
REMARK    3  A    between atoms: O_11  and  C_6 
REMARK       I    between atoms: C_8  and  N_7 
REMARK    4  A    between atoms: C_14  and  C_8 
REMARK    5  A    between atoms: C_15  and  O_11 
ROOT
ATOM      1  C   UNL d   1     -47.267  14.037  22.899  0.00  0.00     0.162 A 
ATOM      2  C   UNL d   1     -47.963  13.734  23.223  0.00  0.00     0.109 A 
ATOM      3  N   UNL d   1     -47.444  14.751  22.531  0.00  0.00    -0.239 NA
ATOM      4  C   UNL d   1     -48.569  14.262  23.055  0.00  0.00     0.037 A 
ATOM      5  C   UNL d   1     -48.254  14.891  22.627  0.00  0.00     0.083 A 
ATOM      6  C   UNL d   1     -49.375  14.246  23.239  0.00  0.00     0.003 A 
ATOM      7  C   UNL d   1     -48.742  15.511  22.380  0.00  0.00     0.019 A 
ATOM      8  C   UNL d   1     -49.862  14.866  22.992  0.00  0.00     0.000 A 
ATOM      9  C   UNL d   1     -49.545  15.494  22.566  0.00  0.00     0.002 A 
ENDROOT
BRANCH   1  10
ATOM     10  C   UNL d   1     -46.523  13.680  22.940  0.00  0.00     0.320 C 
ATOM     11  O   UNL d   1     -46.170  13.545  23.670  0.00  0.00    -0.257 OA
BRANCH  10  12
ATOM     12  O   UNL d   1     -46.127  13.457  22.252  0.00  0.00    -0.270 OA
BRANCH  12  13
ATOM     13  C   UNL d   1     -45.319  13.297  22.286  0.00  0.00     0.126 C 
ATOM     14  C   UNL d   1     -44.948  12.954  21.641  0.00  0.00     0.029 C 
ENDBRANCH  12  13
ENDBRANCH  10  12
ENDBRANCH   1  10
BRANCH   2  15
ATOM     15  N   UNL d   1     -48.036  13.024  23.644  0.00  0.00    -0.206 NA
ATOM     16  C   UNL d   1     -48.360  12.354  23.266  0.00  0.00     0.279 C 
ATOM     17  O   UNL d   1     -48.605  12.407  22.477  0.00  0.00    -0.265 OA
BRANCH  16  18
ATOM     18  C   UNL d   1     -48.432  11.649  23.686  0.00  0.00     0.062 C 
ATOM     19  C   UNL d   1     -48.877  11.027  23.367  0.00  0.00     0.005 C 
ENDBRANCH  16  18
ENDBRANCH   2  15
TORSDOF 5
ENDMDL
MODEL 5
REMARK VINA RESULT:      -6.0      1.593      2.753
REMARK  5 active torsions:
REMARK  status: ('A' for Active; 'I' for Inactive)
REMARK    1  A    between atoms: C_6  and  C_1 
REMARK    2  A    between atoms: N_7  and  C_2 
REMARK    3  A    between atoms: O_11  and  C_6 
REMARK       I    between atoms: C_8  and  N_7 
REMARK    4  A    between atoms: C_14  and  C_8 
REMARK    5  A    between atoms: C_15  and  O_11 
ROOT
ATOM      1  C   UNL d   1     -48.808  12.288  23.211  0.00  0.00     0.162 A 
ATOM      2  C   UNL d   1     -48.125  12.729  23.352  0.00  0.00     0.109 A 
ATOM      3  N   UNL d   1     -48.609  11.490  23.230  0.00  0.00    -0.239 NA
ATOM      4  C   UNL d   1     -47.504  12.202  23.458  0.00  0.00     0.037 A 
ATOM      5  C   UNL d   1     -47.797  11.436  23.384  0.00  0.00     0.083 A 
ATOM      6  C   UNL d   1     -46.702  12.326  23.615  0.00  0.00     0.003 A 
ATOM      7  C   UNL d   1     -47.292  10.787  23.466  0.00  0.00     0.019 A 
ATOM      8  C   UNL d   1     -46.196  11.677  23.696  0.00  0.00     0.000 A 
ATOM      9  C   UNL d   1     -46.492  10.913  23.622  0.00  0.00     0.002 A 
ENDROOT
BRANCH   1  10
ATOM     10  C   UNL d   1     -49.561  12.600  23.074  0.00  0.00     0.320 C 
ATOM     11  O   UNL d   1     -49.993  12.922  23.696  0.00  0.00    -0.257 OA
BRANCH  10  12
ATOM     12  O   UNL d   1     -49.887  12.592  22.317  0.00  0.00    -0.270 OA
BRANCH  12  13
ATOM     13  C   UNL d   1     -50.699  12.697  22.226  0.00  0.00     0.126 C 
ATOM     14  C   UNL d   1     -51.008  12.829  21.479  0.00  0.00     0.029 C 
ENDBRANCH  12  13
ENDBRANCH  10  12
ENDBRANCH   1  10
BRANCH   2  15
ATOM     15  N   UNL d   1     -48.074  13.555  23.380  0.00  0.00    -0.206 NA
ATOM     16  C   UNL d   1     -47.722  13.967  22.746  0.00  0.00     0.279 C 
ATOM     17  O   UNL d   1     -47.427  13.547  22.096  0.00  0.00    -0.265 OA
BRANCH  16  18
ATOM     18  C   UNL d   1     -47.673  14.789  22.777  0.00  0.00     0.062 C 
ATOM     19  C   UNL d   1     -47.693  15.226  22.073  0.00  0.00     0.005 C 
ENDBRANCH  16  18
ENDBRANCH   2  15
TORSDOF 5
ENDMDL
MODEL 6
REMARK VINA RESULT:      -5.6      8.630     10.158
REMARK  5 active torsions:
REMARK  status: ('A' for Active; 'I' for Inactive)
REMARK    1  A    between atoms: C_6  and  C_1 
REMARK    2  A    between atoms: N_7  and  C_2 
REMARK    3  A    between atoms: O_11  and  C_6 
REMARK       I    between atoms: C_8  and  N_7 
REMARK    4  A    between atoms: C_14  and  C_8 
REMARK    5  A    between atoms: C_15  and  O_11 
ROOT
ATOM      1  C   UNL d   1     -39.516  14.459  18.829  0.00  0.00     0.162 A 
ATOM      2  C   UNL d   1     -39.508  14.686  18.035  0.00  0.00     0.109 A 
ATOM      3  N   UNL d   1     -39.075  13.768  18.903  0.00  0.00    -0.239 NA
ATOM      4  C   UNL d   1     -39.063  14.134  17.621  0.00  0.00     0.037 A 
ATOM      5  C   UNL d   1     -38.793  13.566  18.151  0.00  0.00     0.083 A 
ATOM      6  C   UNL d   1     -38.869  14.080  16.819  0.00  0.00     0.003 A 
ATOM      7  C   UNL d   1     -38.326  12.937  17.886  0.00  0.00     0.019 A 
ATOM      8  C   UNL d   1     -38.402  13.451  16.554  0.00  0.00     0.000 A 
ATOM      9  C   UNL d   1     -38.134  12.885  17.086  0.00  0.00     0.002 A 
ENDROOT
BRANCH   1  10
ATOM     10  C   UNL d   1     -39.901  14.860  19.439  0.00  0.00     0.320 C 
ATOM     11  O   UNL d   1     -39.673  15.626  19.638  0.00  0.00    -0.257 OA
BRANCH  10  12
ATOM     12  O   UNL d   1     -40.515  14.501  19.856  0.00  0.00    -0.270 OA
BRANCH  12  13
ATOM     13  C   UNL d   1     -40.726  14.794  20.597  0.00  0.00     0.126 C 
ATOM     14  C   UNL d   1     -41.316  14.421  21.025  0.00  0.00     0.029 C 
ENDBRANCH  12  13
ENDBRANCH  10  12
ENDBRANCH   1  10
BRANCH   2  15
ATOM     15  N   UNL d   1     -39.884  15.351  17.715  0.00  0.00    -0.206 NA
ATOM     16  C   UNL d   1     -40.607  15.258  17.308  0.00  0.00     0.279 C 
ATOM     17  O   UNL d   1     -40.940  14.505  17.228  0.00  0.00    -0.265 OA
BRANCH  16  18
ATOM     18  C   UNL d   1     -40.978  15.922  16.990  0.00  0.00     0.062 C 
ATOM     19  C   UNL d   1     -41.691  15.832  16.577  0.00  0.00     0.005 C 
ENDBRANCH  16  18
ENDBRANCH   2  15
TORSDOF 5
ENDMDL
MODEL 7
REMARK VINA RESULT:      -5.5      1.235      3.507
REMARK  5 active torsions:
REMARK  status: ('A' for Active; 'I' for Inactive)
REMARK    1  A    between atoms: C_6  and  C_1 
REMARK    2  A    between atoms: N_7  and  C_2 
REMARK    3  A    between atoms: O_11  and  C_6 
REMARK       I    between atoms: C_8  and  N_7 
REMARK    4  A    between atoms: C_14  and  C_8 
REMARK    5  A    between atoms: C_15  and  O_11 
ROOT
ATOM      1  C   UNL d   1     -49.141  13.198  22.905  0.00  0.00     0.162 A 
ATOM      2  C   UNL d   1     -48.806  13.914  22.668  0.00  0.00     0.109 A 
ATOM      3  N   UNL d   1     -49.826  13.363  23.329  0.00  0.00    -0.239 NA
ATOM      4  C   UNL d   1     -49.285  14.520  22.946  0.00  0.00     0.037 A 
ATOM      5  C   UNL d   1     -49.917  14.185  23.355  0.00  0.00     0.083 A 
ATOM      6  C   UNL d   1     -49.223  15.341  22.876  0.00  0.00     0.003 A 
ATOM      7  C   UNL d   1     -50.493  14.668  23.698  0.00  0.00     0.019 A 
ATOM      8  C   UNL d   1     -49.799  15.824  23.220  0.00  0.00     0.000 A 
ATOM      9  C   UNL d   1     -50.429  15.487  23.627  0.00  0.00     0.002 A 
ENDROOT
BRANCH   1  10
ATOM     10  C   UNL d   1     -48.836  12.448  22.742  0.00  0.00     0.320 C 
ATOM     11  O   UNL d   1     -48.881  12.141  21.980  0.00  0.00    -0.257 OA
BRANCH  10  12
ATOM     12  O   UNL d   1     -48.486  11.999  23.338  0.00  0.00    -0.270 OA
BRANCH  12  13
ATOM     13  C   UNL d   1     -48.304  11.208  23.194  0.00  0.00     0.126 C 
ATOM     14  C   UNL d   1     -47.792  10.813  23.697  0.00  0.00     0.029 C 
ENDBRANCH  12  13
ENDBRANCH  10  12
ENDBRANCH   1  10
BRANCH   2  15
ATOM     15  N   UNL d   1     -48.110  14.004  22.228  0.00  0.00    -0.206 NA
ATOM     16  C   UNL d   1     -47.400  14.210  22.618  0.00  0.00     0.279 C 
ATOM     17  O   UNL d   1     -47.401  14.321  23.438  0.00  0.00    -0.265 OA
BRANCH  16  18
ATOM     18  C   UNL d   1     -46.710  14.299  22.178  0.00  0.00     0.062 C 
ATOM     19  C   UNL d   1     -45.975  14.236  22.556  0.00  0.00     0.005 C 
ENDBRANCH  16  18
ENDBRANCH   2  15
TORSDOF 5
ENDMDL
MODEL 8
REMARK VINA RESULT:      -5.5      8.536     10.110
REMARK  5 active torsions:
REMARK  status: ('A' for Active; 'I' for Inactive)
REMARK    1  A    between atoms: C_6  and  C_1 
REMARK    2  A    between atoms: N_7  and  C_2 
REMARK    3  A    between atoms: O_11  and  C_6 
REMARK       I    between atoms: C_8  and  N_7 
REMARK    4  A    between atoms: C_14  and  C_8 
REMARK    5  A    between atoms: C_15  and  O_11 
ROOT
ATOM      1  C   UNL d   1     -39.399  14.611  18.880  0.00  0.00     0.162 A 
ATOM      2  C   UNL d   1     -39.922  15.241  18.779  0.00  0.00     0.109 A 
ATOM      3  N   UNL d   1     -39.456  14.352  19.659  0.00  0.00    -0.239 NA
ATOM      4  C   UNL d   1     -40.302  15.370  19.495  0.00  0.00     0.037 A 
ATOM      5  C   UNL d   1     -40.019  14.824  20.042  0.00  0.00     0.083 A 
ATOM      6  C   UNL d   1     -40.876  15.922  19.718  0.00  0.00     0.003 A 
ATOM      7  C   UNL d   1     -40.306  14.823  20.817  0.00  0.00     0.019 A 
ATOM      8  C   UNL d   1     -41.163  15.921  20.493  0.00  0.00     0.000 A 
ATOM      9  C   UNL d   1     -40.878  15.374  21.037  0.00  0.00     0.002 A 
ENDROOT
BRANCH   1  10
ATOM     10  C   UNL d   1     -38.905  14.299  18.297  0.00  0.00     0.320 C 
ATOM     11  O   UNL d   1     -38.320  14.767  17.957  0.00  0.00    -0.257 OA
BRANCH  10  12
ATOM     12  O   UNL d   1     -38.990  13.517  18.049  0.00  0.00    -0.270 OA
BRANCH  12  13
ATOM     13  C   UNL d   1     -38.361  13.142  17.672  0.00  0.00     0.126 C 
ATOM     14  C   UNL d   1     -38.438  12.361  17.437  0.00  0.00     0.029 C 
ENDBRANCH  12  13
ENDBRANCH  10  12
ENDBRANCH   1  10
BRANCH   2  15
ATOM     15  N   UNL d   1     -40.042  15.667  18.079  0.00  0.00    -0.206 NA
ATOM     16  C   UNL d   1     -40.705  15.495  17.601  0.00  0.00     0.279 C 
ATOM     17  O   UNL d   1     -41.235  14.902  17.832  0.00  0.00    -0.265 OA
BRANCH  16  18
ATOM     18  C   UNL d   1     -40.822  15.920  16.905  0.00  0.00     0.062 C 
ATOM     19  C   UNL d   1     -41.530  15.827  16.485  0.00  0.00     0.005 C 
ENDBRANCH  16  18
ENDBRANCH   2  15
TORSDOF 5
ENDMDL
MODEL 9
REMARK VINA RESULT:      -5.3      9.209     10.289
REMARK  5 active torsions:
REMARK  status: ('A' for Active; 'I' for Inactive)
REMARK    1  A    between atoms: C_6  and  C_1 
REMARK    2  A    between atoms: N_7  and  C_2 
REMARK    3  A    between atoms: O_11  and  C_6 
REMARK       I    between atoms: C_8  and  N_7 
REMARK    4  A    between atoms: C_14  and  C_8 
REMARK    5  A    between atoms: C_15  and  O_11 
ROOT
ATOM      1  C   UNL d   1     -39.666  15.074  19.043  0.00  0.00     0.162 A 
ATOM      2  C   UNL d   1     -39.454  14.825  18.285  0.00  0.00     0.109 A 
ATOM      3  N   UNL d   1     -40.352  15.524  18.984  0.00  0.00    -0.239 NA
ATOM      4  C   UNL d   1     -40.009  15.123  17.759  0.00  0.00     0.037 A 
ATOM      5  C   UNL d   1     -40.566  15.555  18.185  0.00  0.00     0.083 A 
ATOM      6  C   UNL d   1     -40.078  15.053  16.938  0.00  0.00     0.003 A 
ATOM      7  C   UNL d   1     -41.196  15.922  17.795  0.00  0.00     0.019 A 
ATOM      8  C   UNL d   1     -40.708  15.420  16.548  0.00  0.00     0.000 A 
ATOM      9  C   UNL d   1     -41.262  15.851  16.976  0.00  0.00     0.002 A 
ENDROOT
BRANCH   1  10
ATOM     10  C   UNL d   1     -39.256  14.897  19.738  0.00  0.00     0.320 C 
ATOM     11  O   UNL d   1     -38.493  15.183  19.851  0.00  0.00    -0.257 OA
BRANCH  10  12
ATOM     12  O   UNL d   1     -39.605  14.435  20.325  0.00  0.00    -0.270 OA
BRANCH  12  13
ATOM     13  C   UNL d   1     -39.303  14.460  21.092  0.00  0.00     0.126 C 
ATOM     14  C   UNL d   1     -39.583  13.934  21.653  0.00  0.00     0.029 C 
ENDBRANCH  12  13
ENDBRANCH  10  12
ENDBRANCH   1  10
BRANCH   2  15
ATOM     15  N   UNL d   1     -38.798  14.359  18.091  0.00  0.00    -0.206 NA
ATOM     16  C   UNL d   1     -38.906  13.550  17.913  0.00  0.00     0.279 C 
ATOM     17  O   UNL d   1     -39.667  13.224  17.933  0.00  0.00    -0.265 OA
BRANCH  16  18
ATOM     18  C   UNL d   1     -38.252  13.089  17.720  0.00  0.00     0.062 C 
ATOM     19  C   UNL d   1     -38.341  12.269  17.637  0.00  0.00     0.005 C 
ENDBRANCH  16  18
ENDBRANCH   2  15
TORSDOF 5
ENDMDL
