MODEL 1
REMARK VINA RESULT:      30.5      0.000      0.000
REMARK  2 active torsions:
REMARK  status: ('A' for Active; 'I' for Inactive)
REMARK    1  A    between atoms: N_2  and  C_9 
REMARK    2  A    between atoms: C_11  and  C_7 
ROOT
ATOM      1  C   UNL d   1      14.822  13.793  -1.111  0.00  0.00     0.110 A 
ATOM      2  C   UNL d   1      14.844  15.088  -0.795  0.00  0.00     0.332 A 
ATOM      3  C   UNL d   1      15.246  13.878  -0.415  0.00  0.00     0.060 A 
ATOM      4  S   UNL d   1      15.261  14.670  -0.219  0.00  0.00    -0.018 SA
ATOM      5  O   UNL d   1      14.574  14.533  -1.349  0.00  0.00    -0.268 OA
ATOM      6  C   UNL d   1      14.716  13.048  -1.444  0.00  0.00     0.027 A 
ATOM      7  C   UNL d   1      15.569  13.198  -0.044  0.00  0.00     0.051 A 
ATOM      8  C   UNL d   1      15.032  12.378  -1.083  0.00  0.00     0.044 A 
ATOM      9  O   UNL d   1      14.720  15.904  -0.818  0.00  0.00    -0.251 OA
ATOM     10  C   UNL d   1      15.456  12.454  -0.387  0.00  0.00     0.196 A 
ATOM     11  O   UNL d   1      15.779  11.780  -0.015  0.00  0.00    -0.286 OA
ENDROOT
BRANCH   6  12
ATOM     12  C   UNL d   1      14.289  12.966  -2.145  0.00  0.00     0.002 A 
ATOM     13  C   UNL d   1      14.208  13.617  -2.652  0.00  0.00     0.002 A 
ATOM     14  C   UNL d   1      13.780  13.539  -3.358  0.00  0.00     0.024 A 
ATOM     15  C   UNL d   1      13.435  12.812  -3.553  0.00  0.00     0.127 A 
ATOM     16  C   UNL d   1      13.517  12.167  -3.048  0.00  0.00     0.024 A 
ATOM     17  C   UNL d   1      13.945  12.245  -2.341  0.00  0.00     0.002 A 
BRANCH  15  18
ATOM     18  N   UNL d   1      13.003  12.728  -4.262  0.00  0.00    -0.114 N 
ATOM     19  O   UNL d   1      12.775  11.978  -4.515  0.00  0.00    -0.532 OA
ATOM     20  O   UNL d   1      12.806  13.392  -4.705  0.00  0.00    -0.532 OA
ENDBRANCH  15  18
ENDBRANCH   6  12
TORSDOF 2
ENDMDL
