MODEL 1
REMARK VINA RESULT:      -4.5      0.000      0.000
REMARK  5 active torsions:
REMARK  status: ('A' for Active; 'I' for Inactive)
REMARK    1  A    between atoms: C_11  and  N_1 
REMARK    2  A    between atoms: C_5  and  C_3 
REMARK       I    between atoms: N_14  and  C_5 
REMARK    3  A    between atoms: N_7  and  C_18 
REMARK    4  A    between atoms: C_17  and  N_14 
REMARK    5  A    between atoms: C_18  and  C_17 
ROOT
ATOM      1  C   UNL d   1      57.915  -0.925  30.551  0.00  0.00     0.281 C 
ATOM      2  O   UNL d   1      57.341  -1.467  30.785  0.00  0.00    -0.265 OA
ATOM      3  N   UNL d   1      57.897  -0.162  30.849  0.00  0.00    -0.205 NA
ENDROOT
BRANCH   1   4
ATOM      4  C   UNL d   1      58.508  -1.154  30.017  0.00  0.00     0.080 A 
ATOM      5  C   UNL d   1      58.821  -1.913  29.936  0.00  0.00     0.088 A 
ATOM      6  N   UNL d   1      59.393  -1.884  29.342  0.00  0.00    -0.273 N 
ATOM      7  C   UNL d   1      59.434  -1.115  29.058  0.00  0.00     0.265 A 
ATOM      8  C   UNL d   1      58.885  -0.659  29.476  0.00  0.00     0.067 A 
ATOM      9  O   UNL d   1      59.953  -0.883  28.455  0.00  0.00    -0.267 OA
BRANCH   6  10
ATOM     10  C   UNL d   1      59.847  -2.521  29.078  0.00  0.00     0.067 A 
ATOM     11  C   UNL d   1      60.644  -2.649  29.257  0.00  0.00     0.018 A 
ATOM     12  C   UNL d   1      60.876  -3.345  28.882  0.00  0.00     0.002 A 
ATOM     13  C   UNL d   1      60.222  -3.639  28.475  0.00  0.00     0.002 A 
ATOM     14  C   UNL d   1      59.589  -3.138  28.592  0.00  0.00     0.018 A 
ENDBRANCH   6  10
ENDBRANCH   1   4
BRANCH   3  15
ATOM     15  C   UNL d   1      57.311   0.063  31.377  0.00  0.00     0.121 C 
BRANCH  15  16
ATOM     16  C   UNL d   1      57.442   0.668  31.915  0.00  0.00     0.101 C 
BRANCH  16  17
ATOM     17  N   UNL d   1      57.024   0.670  32.632  0.00  0.00    -0.301 N 
ATOM     18  C   UNL d   1      56.201   0.661  32.623  0.00  0.00     0.080 A 
ATOM     19  C   UNL d   1      55.790   0.663  33.340  0.00  0.00     0.018 A 
ATOM     20  C   UNL d   1      54.972   0.654  33.343  0.00  0.00     0.002 A 
ATOM     21  C   UNL d   1      56.196   0.673  34.055  0.00  0.00     0.003 A 
ATOM     22  C   UNL d   1      54.558   0.655  34.048  0.00  0.00     0.000 A 
ATOM     23  C   UNL d   1      54.965   0.665  34.769  0.00  0.00     0.000 A 
ATOM     24  C   UNL d   1      55.789   0.674  34.772  0.00  0.00     0.000 A 
ATOM     25  C   UNL d   1      57.023   0.681  34.054  0.00  0.00     0.019 A 
ATOM     26  C   UNL d   1      57.441   0.680  33.339  0.00  0.00     0.080 A 
ENDBRANCH  16  17
ENDBRANCH  15  16
ENDBRANCH   3  15
TORSDOF 5
ENDMDL
MODEL 2
REMARK VINA RESULT:      -3.2      8.403     10.192
REMARK  5 active torsions:
REMARK  status: ('A' for Active; 'I' for Inactive)
REMARK    1  A    between atoms: C_11  and  N_1 
REMARK    2  A    between atoms: C_5  and  C_3 
REMARK       I    between atoms: N_14  and  C_5 
REMARK    3  A    between atoms: N_7  and  C_18 
REMARK    4  A    between atoms: C_17  and  N_14 
REMARK    5  A    between atoms: C_18  and  C_17 
ROOT
ATOM      1  C   UNL d   1      58.919  -9.456  33.491  0.00  0.00     0.281 C 
ATOM      2  O   UNL d   1      58.133  -9.682  33.394  0.00  0.00    -0.265 OA
ATOM      3  N   UNL d   1      59.441  -9.525  32.862  0.00  0.00    -0.205 NA
ENDROOT
BRANCH   1   4
ATOM      4  C   UNL d   1      59.179  -9.161  34.222  0.00  0.00     0.080 A 
ATOM      5  C   UNL d   1      59.444  -8.394  34.367  0.00  0.00     0.088 A 
ATOM      6  N   UNL d   1      59.646  -8.348  35.167  0.00  0.00    -0.273 N 
ATOM      7  C   UNL d   1      59.507  -9.079  35.512  0.00  0.00     0.265 A 
ATOM      8  C   UNL d   1      59.217  -9.586  34.926  0.00  0.00     0.067 A 
ATOM      9  O   UNL d   1      59.648  -9.236  36.314  0.00  0.00    -0.267 OA
BRANCH   6  10
ATOM     10  C   UNL d   1      59.937  -7.680  35.554  0.00  0.00     0.067 A 
ATOM     11  C   UNL d   1      59.482  -7.046  35.826  0.00  0.00     0.018 A 
ATOM     12  C   UNL d   1      59.994  -6.502  36.176  0.00  0.00     0.002 A 
ATOM     13  C   UNL d   1      60.759  -6.805  36.116  0.00  0.00     0.002 A 
ATOM     14  C   UNL d   1      60.729  -7.526  35.735  0.00  0.00     0.018 A 
ENDBRANCH   6  10
ENDBRANCH   1   4
BRANCH   3  15
ATOM     15  C   UNL d   1      59.183  -9.816  32.140  0.00  0.00     0.121 C 
BRANCH  15  16
ATOM     16  C   UNL d   1      59.639  -9.723  31.464  0.00  0.00     0.101 C 
BRANCH  16  17
ATOM     17  N   UNL d   1      59.268  -9.736  30.721  0.00  0.00    -0.301 N 
ATOM     18  C   UNL d   1      58.446  -9.748  30.677  0.00  0.00     0.080 A 
ATOM     19  C   UNL d   1      58.082  -9.760  29.935  0.00  0.00     0.018 A 
ATOM     20  C   UNL d   1      57.266  -9.772  29.879  0.00  0.00     0.002 A 
ATOM     21  C   UNL d   1      58.535  -9.762  29.248  0.00  0.00     0.003 A 
ATOM     22  C   UNL d   1      56.900  -9.785  29.148  0.00  0.00     0.000 A 
ATOM     23  C   UNL d   1      57.353  -9.786  28.456  0.00  0.00     0.000 A 
ATOM     24  C   UNL d   1      58.175  -9.774  28.506  0.00  0.00     0.000 A 
ATOM     25  C   UNL d   1      59.360  -9.750  29.302  0.00  0.00     0.019 A 
ATOM     26  C   UNL d   1      59.731  -9.737  30.043  0.00  0.00     0.080 A 
ENDBRANCH  16  17
ENDBRANCH  15  16
ENDBRANCH   3  15
TORSDOF 5
ENDMDL
