MODEL 1
REMARK VINA RESULT:      11.2      0.000      0.000
REMARK  6 active torsions:
REMARK  status: ('A' for Active; 'I' for Inactive)
REMARK    1  A    between atoms: N_6  and  C_1 
REMARK    2  A    between atoms: C_4  and  C_2 
REMARK    3  A    between atoms: C_7  and  C_4 
REMARK    4  A    between atoms: C_8  and  C_4 
REMARK    5  A    between atoms: O_12  and  C_7 
REMARK    6  A    between atoms: C_16  and  O_12 
ROOT
ATOM      1  C   UNL d   1     -42.921-122.640 -49.558  0.00  0.00     0.166 A 
ATOM      2  C   UNL d   1     -42.154-122.704 -49.855  0.00  0.00     0.122 A 
ATOM      3  N   UNL d   1     -43.093-122.884 -48.783  0.00  0.00    -0.225 NA
ATOM      4  N   UNL d   1     -41.557-123.014 -49.374  0.00  0.00    -0.241 NA
ATOM      5  C   UNL d   1     -42.489-123.193 -48.310  0.00  0.00     0.101 A 
ATOM      6  C   UNL d   1     -41.726-123.257 -48.605  0.00  0.00     0.099 A 
ATOM      7  C   UNL d   1     -42.660-123.433 -47.547  0.00  0.00     0.021 A 
ATOM      8  C   UNL d   1     -41.126-123.566 -48.129  0.00  0.00     0.021 A 
ATOM      9  C   UNL d   1     -41.296-123.808 -47.364  0.00  0.00     0.002 A 
ATOM     10  C   UNL d   1     -42.063-123.743 -47.067  0.00  0.00     0.002 A 
ENDROOT
BRANCH   2  11
ATOM     11  C   UNL d   1     -41.983-122.460 -50.629  0.00  0.00     0.105 C 
BRANCH  11  12
ATOM     12  C   UNL d   1     -41.846-123.021 -51.218  0.00  0.00     0.303 C 
ATOM     13  O   UNL d   1     -42.011-123.814 -51.074  0.00  0.00    -0.259 OA
BRANCH  12  14
ATOM     14  O   UNL d   1     -41.548-122.788 -51.946  0.00  0.00    -0.273 OA
BRANCH  14  15
ATOM     15  C   UNL d   1     -41.517-122.879 -52.762  0.00  0.00     0.103 A 
ATOM     16  C   UNL d   1     -41.160-123.549 -53.084  0.00  0.00     0.025 A 
ATOM     17  C   UNL d   1     -41.126-123.645 -53.897  0.00  0.00     0.002 A 
ATOM     18  C   UNL d   1     -41.448-123.076 -54.387  0.00  0.00     0.000 A 
ATOM     19  C   UNL d   1     -41.803-122.411 -54.071  0.00  0.00     0.002 A 
ATOM     20  C   UNL d   1     -41.839-122.310 -53.250  0.00  0.00     0.025 A 
ENDBRANCH  14  15
ENDBRANCH  12  14
ENDBRANCH  11  12
BRANCH  11  21
ATOM     21  C   UNL d   1     -41.947-121.651 -50.816  0.00  0.00     0.129 C 
ATOM     22  N   UNL d   1     -41.135-121.207 -51.040  0.00  0.00    -0.146 N 
ENDBRANCH  11  21
ENDBRANCH   2  11
BRANCH   1  23
ATOM     23  N   UNL d   1     -43.524-122.330 -50.032  0.00  0.00    -0.288 N 
ATOM     24  C   UNL d   1     -44.209-122.782 -50.168  0.00  0.00     0.082 A 
ATOM     25  C   UNL d   1     -44.812-122.465 -50.646  0.00  0.00     0.018 A 
ATOM     26  C   UNL d   1     -45.496-122.909 -50.785  0.00  0.00     0.002 C 
ATOM     27  C   UNL d   1     -44.731-121.710 -50.981  0.00  0.00     0.003 A 
ATOM     28  C   UNL d   1     -44.047-121.274 -50.838  0.00  0.00     0.019 A 
ATOM     29  C   UNL d   1     -43.443-121.576 -50.367  0.00  0.00     0.082 A 
ENDBRANCH   1  23
TORSDOF 6
ENDMDL
