MODEL 1
REMARK VINA RESULT:       3.2      0.000      0.000
REMARK  3 active torsions:
REMARK  status: ('A' for Active; 'I' for Inactive)
REMARK    1  A    between atoms: C_8  and  C_6 
REMARK    2  A    between atoms: C_9  and  C_8 
REMARK       I    between atoms: N_10  and  C_9 
REMARK    3  A    between atoms: C_14  and  N_10 
ROOT
ATOM      1  C   UNL d   1     -41.949-121.561 -53.907  0.00  0.00     0.085 A 
ATOM      2  C   UNL d   1     -42.744-122.315 -55.136  0.00  0.00     0.094 A 
ATOM      3  C   UNL d   1     -41.523-121.949 -54.495  0.00  0.00     0.021 A 
ATOM      4  C   UNL d   1     -42.770-121.548 -53.930  0.00  0.00     0.021 A 
ATOM      5  C   UNL d   1     -43.172-121.923 -54.541  0.00  0.00     0.026 A 
ATOM      6  C   UNL d   1     -41.920-122.326 -55.109  0.00  0.00     0.026 A 
ATOM      7  O   UNL d   1     -43.135-122.686 -55.738  0.00  0.00    -0.328 OA
ATOM      8  C   UNL d   1     -43.534-123.061 -56.349  0.00  0.00     0.181 C 
ENDROOT
BRANCH   1   9
ATOM      9  N   UNL d   1     -41.552-121.182 -53.290  0.00  0.00    -0.208 NA
ATOM     10  C   UNL d   1     -41.537-121.521 -52.536  0.00  0.00     0.281 C 
ATOM     11  O   UNL d   1     -41.138-121.137 -51.922  0.00  0.00    -0.265 OA
BRANCH  10  12
ATOM     12  C   UNL d   1     -41.923-122.245 -52.398  0.00  0.00     0.086 C 
BRANCH  12  13
ATOM     13  C   UNL d   1     -42.026-122.507 -51.624  0.00  0.00     0.144 A 
ATOM     14  N   UNL d   1     -42.651-122.138 -51.238  0.00  0.00    -0.240 NA
ATOM     15  C   UNL d   1     -42.912-122.260 -50.471  0.00  0.00     0.083 A 
ATOM     16  C   UNL d   1     -42.619-122.777 -49.894  0.00  0.00     0.035 A 
ATOM     17  C   UNL d   1     -43.557-121.776 -50.298  0.00  0.00     0.019 A 
ATOM     18  C   UNL d   1     -41.966-123.266 -50.068  0.00  0.00     0.086 A 
ATOM     19  C   UNL d   1     -42.965-122.816 -49.144  0.00  0.00     0.003 A 
ATOM     20  N   UNL d   1     -41.545-123.311 -50.776  0.00  0.00    -0.207 NA
ATOM     21  C   UNL d   1     -41.672-123.782 -49.495  0.00  0.00     0.019 A 
ATOM     22  C   UNL d   1     -41.651-122.903 -51.471  0.00  0.00     0.297 A 
ATOM     23  O   UNL d   1     -41.123-123.089 -52.073  0.00  0.00    -0.264 OA
ATOM     24  C   UNL d   1     -42.023-123.816 -48.748  0.00  0.00     0.002 A 
ATOM     25  C   UNL d   1     -42.669-123.333 -48.575  0.00  0.00     0.000 A 
ATOM     26  C   UNL d   1     -43.618-122.327 -48.970  0.00  0.00     0.000 A 
ATOM     27  C   UNL d   1     -43.914-121.810 -49.540  0.00  0.00     0.002 A 
ENDBRANCH  12  13
ENDBRANCH  10  12
ENDBRANCH   1   9
TORSDOF 3
ENDMDL
