MODEL 1
REMARK VINA RESULT:      -9.0      0.000      0.000
REMARK  2 active torsions:
REMARK  status: ('A' for Active; 'I' for Inactive)
REMARK    1  A    between atoms: N_8  and  C_3 
REMARK    2  A    between atoms: C_7  and  N_9 
ROOT
ATOM      1  N   UNL d   1      51.961  33.130  53.032  0.00  0.00    -0.286 N 
ATOM      2  N   UNL d   1      50.623  34.074  52.708  0.00  0.00    -0.135 N 
ATOM      3  C   UNL d   1      51.975  33.724  52.460  0.00  0.00     0.101 A 
ATOM      4  C   UNL d   1      51.267  33.004  53.449  0.00  0.00     0.101 A 
ATOM      5  C   UNL d   1      50.586  33.457  53.311  0.00  0.00     0.117 A 
ATOM      6  C   UNL d   1      51.311  34.193  52.299  0.00  0.00     0.117 A 
ENDROOT
BRANCH   1   7
ATOM      7  C   UNL d   1      52.600  32.679  53.186  0.00  0.00     0.152 A 
ATOM      8  C   UNL d   1      53.187  32.920  53.712  0.00  0.00     0.059 A 
ATOM      9  C   UNL d   1      53.851  32.451  53.873  0.00  0.00     0.115 A 
ATOM     10  C   UNL d   1      53.248  33.599  54.149  0.00  0.00     0.011 A 
ATOM     11  S   UNL d   1      54.313  32.847  54.407  0.00  0.00    -0.068 SA
ATOM     12  N   UNL d   1      53.937  31.734  53.510  0.00  0.00    -0.217 NA
ATOM     13  C   UNL d   1      53.952  33.537  54.574  0.00  0.00     0.031 A 
ATOM     14  C   UNL d   1      54.237  34.124  55.104  0.00  0.00     0.007 C 
ATOM     15  C   UNL d   1      53.360  31.443  52.962  0.00  0.00     0.201 A 
ATOM     16  N   UNL d   1      52.670  31.930  52.795  0.00  0.00    -0.206 NA
ATOM     17  C   UNL d   1      52.710  34.269  54.188  0.00  0.00     0.001 C 
ENDBRANCH   1   7
BRANCH   2  18
ATOM     18  C   UNL d   1      49.908  34.545  52.567  0.00  0.00     0.735 A 
ATOM     19  N   UNL d   1      49.549  34.457  51.873  0.00  0.00    -0.059 NA
ATOM     20  C   UNL d   1      48.854  34.898  51.702  0.00  0.00     0.120 A 
ATOM     21  C   UNL d   1      48.566  35.410  52.265  0.00  0.00     0.043 A 
ATOM     22  C   UNL d   1      48.958  35.486  52.983  0.00  0.00     0.120 A 
ATOM     23  N   UNL d   1      49.622  35.065  53.147  0.00  0.00    -0.059 NA
ENDBRANCH   2  18
TORSDOF 2
ENDMDL
MODEL 2
REMARK VINA RESULT:      -8.7      0.824      1.801
REMARK  2 active torsions:
REMARK  status: ('A' for Active; 'I' for Inactive)
REMARK    1  A    between atoms: N_8  and  C_3 
REMARK    2  A    between atoms: C_7  and  N_9 
ROOT
ATOM      1  N   UNL d   1      52.092  33.812  53.482  0.00  0.00    -0.286 N 
ATOM      2  N   UNL d   1      50.700  34.191  52.644  0.00  0.00    -0.135 N 
ATOM      3  C   UNL d   1      51.346  33.588  53.753  0.00  0.00     0.101 A 
ATOM      4  C   UNL d   1      52.145  34.232  52.781  0.00  0.00     0.101 A 
ATOM      5  C   UNL d   1      51.470  34.435  52.342  0.00  0.00     0.117 A 
ATOM      6  C   UNL d   1      50.654  33.776  53.336  0.00  0.00     0.117 A 
ENDROOT
BRANCH   1   7
ATOM      7  C   UNL d   1      52.757  33.631  53.883  0.00  0.00     0.152 A 
ATOM      8  C   UNL d   1      53.124  32.896  53.809  0.00  0.00     0.059 A 
ATOM      9  C   UNL d   1      53.816  32.707  54.226  0.00  0.00     0.115 A 
ATOM     10  C   UNL d   1      52.919  32.253  53.362  0.00  0.00     0.011 A 
ATOM     11  S   UNL d   1      54.027  31.951  54.029  0.00  0.00    -0.068 SA
ATOM     12  N   UNL d   1      54.150  33.252  54.721  0.00  0.00    -0.217 NA
ATOM     13  C   UNL d   1      53.489  31.678  53.510  0.00  0.00     0.031 A 
ATOM     14  C   UNL d   1      53.492  30.914  53.159  0.00  0.00     0.007 C 
ATOM     15  C   UNL d   1      53.809  34.020  54.829  0.00  0.00     0.201 A 
ATOM     16  N   UNL d   1      53.091  34.216  54.397  0.00  0.00    -0.206 NA
ATOM     17  C   UNL d   1      52.250  32.155  52.829  0.00  0.00     0.001 C 
ENDBRANCH   1   7
BRANCH   2  18
ATOM     18  C   UNL d   1      49.998  34.406  52.181  0.00  0.00     0.735 A 
ATOM     19  N   UNL d   1      49.437  34.817  52.546  0.00  0.00    -0.059 NA
ATOM     20  C   UNL d   1      48.743  35.043  52.129  0.00  0.00     0.120 A 
ATOM     21  C   UNL d   1      48.667  34.827  51.348  0.00  0.00     0.043 A 
ATOM     22  C   UNL d   1      49.267  34.396  50.987  0.00  0.00     0.120 A 
ATOM     23  N   UNL d   1      49.929  34.181  51.385  0.00  0.00    -0.059 NA
ENDBRANCH   2  18
TORSDOF 2
ENDMDL
MODEL 3
REMARK VINA RESULT:      -6.7      1.796      4.189
REMARK  2 active torsions:
REMARK  status: ('A' for Active; 'I' for Inactive)
REMARK    1  A    between atoms: N_8  and  C_3 
REMARK    2  A    between atoms: C_7  and  N_9 
ROOT
ATOM      1  N   UNL d   1      52.570  32.532  53.128  0.00  0.00    -0.286 N 
ATOM      2  N   UNL d   1      52.890  30.940  53.512  0.00  0.00    -0.135 N 
ATOM      3  C   UNL d   1      53.325  32.209  53.053  0.00  0.00     0.101 A 
ATOM      4  C   UNL d   1      51.964  32.053  53.400  0.00  0.00     0.101 A 
ATOM      5  C   UNL d   1      52.092  31.257  53.598  0.00  0.00     0.117 A 
ATOM      6  C   UNL d   1      53.484  31.418  53.243  0.00  0.00     0.117 A 
ENDROOT
BRANCH   1   7
ATOM      7  C   UNL d   1      52.418  33.293  52.945  0.00  0.00     0.152 A 
ATOM      8  C   UNL d   1      52.639  33.914  53.442  0.00  0.00     0.059 A 
ATOM      9  C   UNL d   1      52.480  34.705  53.251  0.00  0.00     0.115 A 
ATOM     10  C   UNL d   1      53.021  33.900  54.155  0.00  0.00     0.011 A 
ATOM     11  S   UNL d   1      52.767  35.168  53.850  0.00  0.00    -0.068 SA
ATOM     12  N   UNL d   1      52.098  34.886  52.562  0.00  0.00    -0.217 NA
ATOM     13  C   UNL d   1      53.092  34.685  54.393  0.00  0.00     0.031 A 
ATOM     14  C   UNL d   1      53.458  34.931  55.110  0.00  0.00     0.007 C 
ATOM     15  C   UNL d   1      51.852  34.282  52.020  0.00  0.00     0.201 A 
ATOM     16  N   UNL d   1      52.017  33.461  52.218  0.00  0.00    -0.206 NA
ATOM     17  C   UNL d   1      53.309  33.224  54.603  0.00  0.00     0.001 C 
ENDBRANCH   1   7
BRANCH   2  18
ATOM     18  C   UNL d   1      53.018  30.107  53.720  0.00  0.00     0.735 A 
ATOM     19  N   UNL d   1      53.432  29.958  54.371  0.00  0.00    -0.059 NA
ATOM     20  C   UNL d   1      53.576  29.163  54.604  0.00  0.00     0.120 A 
ATOM     21  C   UNL d   1      53.280  28.560  54.145  0.00  0.00     0.043 A 
ATOM     22  C   UNL d   1      52.850  28.740  53.468  0.00  0.00     0.120 A 
ATOM     23  N   UNL d   1      52.713  29.498  53.246  0.00  0.00    -0.059 NA
ENDBRANCH   2  18
TORSDOF 2
ENDMDL
MODEL 4
REMARK VINA RESULT:      -6.1      1.691      4.579
REMARK  2 active torsions:
REMARK  status: ('A' for Active; 'I' for Inactive)
REMARK    1  A    between atoms: N_8  and  C_3 
REMARK    2  A    between atoms: C_7  and  N_9 
ROOT
ATOM      1  N   UNL d   1      50.393  34.155  52.312  0.00  0.00    -0.286 N 
ATOM      2  N   UNL d   1      51.738  33.657  53.166  0.00  0.00    -0.135 N 
ATOM      3  C   UNL d   1      50.352  33.562  52.884  0.00  0.00     0.101 A 
ATOM      4  C   UNL d   1      51.118  34.507  52.165  0.00  0.00     0.101 A 
ATOM      5  C   UNL d   1      51.804  34.280  52.573  0.00  0.00     0.117 A 
ATOM      6  C   UNL d   1      51.019  33.315  53.308  0.00  0.00     0.117 A 
ENDROOT
BRANCH   1   7
ATOM      7  C   UNL d   1      49.751  34.393  51.905  0.00  0.00     0.152 A 
ATOM      8  C   UNL d   1      49.190  34.902  52.232  0.00  0.00     0.059 A 
ATOM      9  C   UNL d   1      48.523  35.150  51.808  0.00  0.00     0.115 A 
ATOM     10  C   UNL d   1      49.162  35.245  52.965  0.00  0.00     0.011 A 
ATOM     11  S   UNL d   1      48.091  35.641  52.285  0.00  0.00    -0.068 SA
ATOM     12  N   UNL d   1      48.406  34.891  51.051  0.00  0.00    -0.217 NA
ATOM     13  C   UNL d   1      48.475  35.698  52.980  0.00  0.00     0.031 A 
ATOM     14  C   UNL d   1      48.224  36.154  53.641  0.00  0.00     0.007 C 
ATOM     15  C   UNL d   1      48.954  34.367  50.672  0.00  0.00     0.201 A 
ATOM     16  N   UNL d   1      49.648  34.110  51.112  0.00  0.00    -0.206 NA
ATOM     17  C   UNL d   1      49.717  35.172  53.619  0.00  0.00     0.001 C 
ENDBRANCH   1   7
BRANCH   2  18
ATOM     18  C   UNL d   1      52.458  33.424  53.591  0.00  0.00     0.735 A 
ATOM     19  N   UNL d   1      52.808  32.757  53.369  0.00  0.00    -0.059 NA
ATOM     20  C   UNL d   1      53.508  32.500  53.758  0.00  0.00     0.120 A 
ATOM     21  C   UNL d   1      53.810  32.955  54.361  0.00  0.00     0.043 A 
ATOM     22  C   UNL d   1      53.427  33.649  54.577  0.00  0.00     0.120 A 
ATOM     23  N   UNL d   1      52.759  33.894  54.206  0.00  0.00    -0.059 NA
ENDBRANCH   2  18
TORSDOF 2
ENDMDL
