MODEL 1
REMARK VINA RESULT:      36.3      0.000      0.000
REMARK  3 active torsions:
REMARK  status: ('A' for Active; 'I' for Inactive)
REMARK    1  A    between atoms: C_4  and  N_1 
REMARK    2  A    between atoms: S_5  and  C_6 
REMARK    3  A    between atoms: C_9  and  S_5 
ROOT
ATOM      1  C   UNL d   1      44.799 -16.018  37.863  0.00  0.00     0.078 A 
ATOM      2  C   UNL d   1      45.471 -15.644  37.538  0.00  0.00     0.080 A 
ATOM      3  C   UNL d   1      44.892 -16.589  38.451  0.00  0.00     0.018 A 
ATOM      4  C   UNL d   1      46.225 -15.849  37.810  0.00  0.00     0.010 A 
ATOM      5  C   UNL d   1      45.644 -16.791  38.720  0.00  0.00     0.002 A 
ATOM      6  C   UNL d   1      46.314 -16.419  38.399  0.00  0.00     0.001 A 
ENDROOT
BRANCH   1   7
ATOM      7  N   UNL d   1      44.049 -15.818  37.596  0.00  0.00    -0.241 N 
ATOM      8  C   UNL d   1      43.542 -15.263  37.937  0.00  0.00     0.267 A 
ATOM      9  C   UNL d   1      42.853 -15.242  37.489  0.00  0.00     0.061 A 
ATOM     10  O   UNL d   1      43.700 -14.811  38.610  0.00  0.00    -0.267 OA
ATOM     11  C   UNL d   1      42.167 -14.799  37.567  0.00  0.00     0.005 A 
ATOM     12  C   UNL d   1      42.928 -15.778  36.872  0.00  0.00     0.061 A 
ATOM     13  C   UNL d   1      41.550 -14.893  37.025  0.00  0.00     0.000 A 
ATOM     14  C   UNL d   1      41.634 -15.437  36.403  0.00  0.00     0.000 A 
ATOM     15  C   UNL d   1      42.321 -15.876  36.331  0.00  0.00     0.005 A 
ATOM     16  C   UNL d   1      43.668 -16.137  36.935  0.00  0.00     0.267 A 
ATOM     17  O   UNL d   1      43.976 -16.714  36.428  0.00  0.00    -0.267 OA
ENDBRANCH   1   7
BRANCH   2  18
ATOM     18  S   UNL d   1      45.380 -15.073  36.950  0.00  0.00     0.160 S 
ATOM     19  O   UNL d   1      45.121 -14.731  36.330  0.00  0.00    -0.244 OA
BRANCH  18  20
ATOM     20  C   UNL d   1      45.833 -14.384  36.973  0.00  0.00     0.477 C 
ATOM     21  F   UNL d   1      46.601 -14.219  36.610  0.00  0.00    -0.158 F 
ATOM     22  F   UNL d   1      45.666 -13.633  37.370  0.00  0.00    -0.158 F 
ATOM     23  F   UNL d   1      46.246 -13.757  36.995  0.00  0.00    -0.158 F 
ENDBRANCH  18  20
ENDBRANCH   2  18
TORSDOF 3
ENDMDL
