MODEL 1
REMARK VINA RESULT:      -3.0      0.000      0.000
REMARK  5 active torsions:
REMARK  status: ('A' for Active; 'I' for Inactive)
REMARK    1  A    between atoms: C_9  and  N_1 
REMARK    2  A    between atoms: C_10  and  C_2 
REMARK    3  A    between atoms: C_3  and  C_11 
REMARK    4  A    between atoms: O_14  and  C_9 
REMARK    5  A    between atoms: C_11  and  O_14 
ROOT
ATOM      1  C   UNL d   1      58.935  -0.854  29.312  0.00  0.00     0.305 C 
ATOM      2  O   UNL d   1      58.427  -0.799  28.659  0.00  0.00    -0.259 OA
ENDROOT
BRANCH   1   3
ATOM      3  C   UNL d   1      59.737  -0.989  29.195  0.00  0.00     0.108 A 
ATOM      4  C   UNL d   1      60.095  -1.720  29.055  0.00  0.00     0.116 A 
ATOM      5  N   UNL d   1      60.896  -1.596  28.972  0.00  0.00    -0.126 NA
ATOM      6  O   UNL d   1      61.045  -0.796  29.059  0.00  0.00    -0.211 OA
ATOM      7  C   UNL d   1      60.325  -0.421  29.198  0.00  0.00     0.132 A 
ATOM      8  C   UNL d   1      60.212   0.391  29.318  0.00  0.00     0.029 C 
BRANCH   4   9
ATOM      9  C   UNL d   1      59.707  -2.447  29.007  0.00  0.00     0.031 A 
ATOM     10  C   UNL d   1      59.975  -3.080  29.455  0.00  0.00     0.059 A 
ATOM     11 CL   UNL d   1      60.616  -2.995  29.941  0.00  0.00    -0.082 Cl
ATOM     12  C   UNL d   1      59.589  -3.797  29.406  0.00  0.00     0.011 A 
ATOM     13  C   UNL d   1      58.932  -3.891  28.909  0.00  0.00     0.001 A 
ATOM     14  C   UNL d   1      58.664  -3.258  28.462  0.00  0.00     0.000 A 
ATOM     15  C   UNL d   1      59.052  -2.531  28.509  0.00  0.00     0.002 A 
ENDBRANCH   4   9
ENDBRANCH   1   3
BRANCH   1  16
ATOM     16  O   UNL d   1      58.633  -0.772  30.078  0.00  0.00    -0.252 OA
BRANCH  16  17
ATOM     17  C   UNL d   1      57.904  -0.397  30.197  0.00  0.00     0.216 C 
BRANCH  17  18
ATOM     18  N   UNL d   1      57.530  -0.448  30.932  0.00  0.00    -0.218 N 
ATOM     19  C   UNL d   1      56.958  -0.996  31.143  0.00  0.00     0.269 A 
ATOM     20  C   UNL d   1      56.734  -0.848  31.926  0.00  0.00     0.061 A 
ATOM     21  O   UNL d   1      56.653  -1.596  30.659  0.00  0.00    -0.267 OA
ATOM     22  C   UNL d   1      56.192  -1.213  32.428  0.00  0.00     0.005 A 
ATOM     23  C   UNL d   1      57.175  -0.203  32.195  0.00  0.00     0.061 A 
ATOM     24  C   UNL d   1      56.089  -0.936  33.193  0.00  0.00     0.000 A 
ATOM     25  C   UNL d   1      56.529  -0.291  33.462  0.00  0.00     0.000 A 
ATOM     26  C   UNL d   1      57.073   0.079  32.967  0.00  0.00     0.005 A 
ATOM     27  C   UNL d   1      57.672   0.051  31.580  0.00  0.00     0.269 A 
ATOM     28  O   UNL d   1      58.204   0.676  31.607  0.00  0.00    -0.267 OA
ENDBRANCH  17  18
ENDBRANCH  16  17
ENDBRANCH   1  16
TORSDOF 5
ENDMDL
MODEL 2
REMARK VINA RESULT:      -2.1      0.986      2.256
REMARK  5 active torsions:
REMARK  status: ('A' for Active; 'I' for Inactive)
REMARK    1  A    between atoms: C_9  and  N_1 
REMARK    2  A    between atoms: C_10  and  C_2 
REMARK    3  A    between atoms: C_3  and  C_11 
REMARK    4  A    between atoms: O_14  and  C_9 
REMARK    5  A    between atoms: C_11  and  O_14 
ROOT
ATOM      1  C   UNL d   1      58.373  -1.196  29.582  0.00  0.00     0.305 C 
ATOM      2  O   UNL d   1      57.921  -0.884  28.962  0.00  0.00    -0.259 OA
ENDROOT
BRANCH   1   3
ATOM      3  C   UNL d   1      58.964  -1.745  29.421  0.00  0.00     0.108 A 
ATOM      4  C   UNL d   1      59.744  -1.576  29.205  0.00  0.00     0.116 A 
ATOM      5  N   UNL d   1      60.134  -2.283  29.099  0.00  0.00    -0.126 NA
ATOM      6  O   UNL d   1      59.609  -2.894  29.246  0.00  0.00    -0.211 OA
ATOM      7  C   UNL d   1      58.883  -2.558  29.446  0.00  0.00     0.132 A 
ATOM      8  C   UNL d   1      58.191  -2.969  29.638  0.00  0.00     0.029 C 
BRANCH   4   9
ATOM      9  C   UNL d   1      60.067  -0.822  29.113  0.00  0.00     0.031 A 
ATOM     10  C   UNL d   1      60.698  -0.592  29.585  0.00  0.00     0.059 A 
ATOM     11 CL   UNL d   1      61.004  -1.099  30.136  0.00  0.00    -0.082 Cl
ATOM     12  C   UNL d   1      61.016   0.154  29.492  0.00  0.00     0.011 A 
ATOM     13  C   UNL d   1      60.707   0.678  28.929  0.00  0.00     0.001 A 
ATOM     14  C   UNL d   1      60.076   0.448  28.458  0.00  0.00     0.000 A 
ATOM     15  C   UNL d   1      59.753  -0.306  28.549  0.00  0.00     0.002 A 
ENDBRANCH   4   9
ENDBRANCH   1   3
BRANCH   1  16
ATOM     16  O   UNL d   1      58.230  -0.955  30.361  0.00  0.00    -0.252 OA
BRANCH  16  17
ATOM     17  C   UNL d   1      57.686  -0.349  30.512  0.00  0.00     0.216 C 
BRANCH  17  18
ATOM     18  N   UNL d   1      57.449  -0.192  31.288  0.00  0.00    -0.218 N 
ATOM     19  C   UNL d   1      57.860   0.264  31.832  0.00  0.00     0.269 A 
ATOM     20  C   UNL d   1      57.427   0.276  32.538  0.00  0.00     0.061 A 
ATOM     21  O   UNL d   1      58.583   0.648  31.703  0.00  0.00    -0.267 OA
ATOM     22  C   UNL d   1      57.560   0.637  33.267  0.00  0.00     0.005 A 
ATOM     23  C   UNL d   1      56.746  -0.177  32.422  0.00  0.00     0.061 A 
ATOM     24  C   UNL d   1      57.019   0.547  33.875  0.00  0.00     0.000 A 
ATOM     25  C   UNL d   1      56.338   0.094  33.759  0.00  0.00     0.000 A 
ATOM     26  C   UNL d   1      56.196  -0.270  33.035  0.00  0.00     0.005 A 
ATOM     27  C   UNL d   1      56.755  -0.471  31.644  0.00  0.00     0.269 A 
ATOM     28  O   UNL d   1      56.184  -0.947  31.295  0.00  0.00    -0.267 OA
ENDBRANCH  17  18
ENDBRANCH  16  17
ENDBRANCH   1  16
TORSDOF 5
ENDMDL
MODEL 3
REMARK VINA RESULT:      -1.5      1.280      1.811
REMARK  5 active torsions:
REMARK  status: ('A' for Active; 'I' for Inactive)
REMARK    1  A    between atoms: C_9  and  N_1 
REMARK    2  A    between atoms: C_10  and  C_2 
REMARK    3  A    between atoms: C_3  and  C_11 
REMARK    4  A    between atoms: O_14  and  C_9 
REMARK    5  A    between atoms: C_11  and  O_14 
ROOT
ATOM      1  C   UNL d   1      57.950  -0.808  30.050  0.00  0.00     0.305 C 
ATOM      2  O   UNL d   1      57.912  -1.627  29.932  0.00  0.00    -0.259 OA
ENDROOT
BRANCH   1   3
ATOM      3  C   UNL d   1      58.278  -0.327  29.470  0.00  0.00     0.108 A 
ATOM      4  C   UNL d   1      59.002  -0.444  29.088  0.00  0.00     0.116 A 
ATOM      5  N   UNL d   1      59.106   0.165  28.556  0.00  0.00    -0.126 NA
ATOM      6  O   UNL d   1      58.457   0.662  28.599  0.00  0.00    -0.211 OA
ATOM      7  C   UNL d   1      57.944   0.355  29.167  0.00  0.00     0.132 A 
ATOM      8  C   UNL d   1      57.217   0.679  29.394  0.00  0.00     0.029 C 
BRANCH   4   9
ATOM      9  C   UNL d   1      59.524  -1.068  29.223  0.00  0.00     0.031 A 
ATOM     10  C   UNL d   1      60.288  -0.909  29.478  0.00  0.00     0.059 A 
ATOM     11 CL   UNL d   1      60.530  -0.146  29.596  0.00  0.00    -0.082 Cl
ATOM     12  C   UNL d   1      60.803  -1.528  29.612  0.00  0.00     0.011 A 
ATOM     13  C   UNL d   1      60.561  -2.312  29.493  0.00  0.00     0.001 A 
ATOM     14  C   UNL d   1      59.798  -2.471  29.239  0.00  0.00     0.000 A 
ATOM     15  C   UNL d   1      59.274  -1.846  29.103  0.00  0.00     0.002 A 
ENDBRANCH   4   9
ENDBRANCH   1   3
BRANCH   1  16
ATOM     16  O   UNL d   1      57.659  -0.477  30.750  0.00  0.00    -0.252 OA
BRANCH  16  17
ATOM     17  C   UNL d   1      57.423  -0.970  31.373  0.00  0.00     0.216 C 
BRANCH  17  18
ATOM     18  N   UNL d   1      57.015  -0.652  32.018  0.00  0.00    -0.218 N 
ATOM     19  C   UNL d   1      56.298  -0.920  32.312  0.00  0.00     0.269 A 
ATOM     20  C   UNL d   1      56.090  -0.446  32.957  0.00  0.00     0.061 A 
ATOM     21  O   UNL d   1      55.855  -1.556  32.017  0.00  0.00    -0.267 OA
ATOM     22  C   UNL d   1      55.441  -0.450  33.465  0.00  0.00     0.005 A 
ATOM     23  C   UNL d   1      56.686   0.117  33.058  0.00  0.00     0.061 A 
ATOM     24  C   UNL d   1      55.387   0.101  34.068  0.00  0.00     0.000 A 
ATOM     25  C   UNL d   1      55.983   0.664  34.168  0.00  0.00     0.000 A 
ATOM     26  C   UNL d   1      56.635   0.677  33.666  0.00  0.00     0.005 A 
ATOM     27  C   UNL d   1      57.266  -0.007  32.474  0.00  0.00     0.269 A 
ATOM     28  O   UNL d   1      57.955   0.427  32.370  0.00  0.00    -0.267 OA
ENDBRANCH  17  18
ENDBRANCH  16  17
ENDBRANCH   1  16
TORSDOF 5
ENDMDL
