MODEL 1
REMARK VINA RESULT:      -3.0      0.000      0.000
REMARK  4 active torsions:
REMARK  status: ('A' for Active; 'I' for Inactive)
REMARK    1  A    between atoms: N_4  and  C_1 
REMARK       I    between atoms: C_6  and  N_4 
REMARK    2  A    between atoms: C_10  and  C_6 
REMARK    3  A    between atoms: C_8  and  C_11 
REMARK    4  A    between atoms: C_11  and  C_10 
ROOT
ATOM      1  N   UNL d   1      32.562  20.813 -21.069  0.00  0.00    -0.187 NA
ATOM      2  C   UNL d   1      32.926  20.681 -21.800  0.00  0.00     0.281 C 
ATOM      3  O   UNL d   1      33.159  21.308 -22.314  0.00  0.00    -0.265 OA
ENDROOT
BRANCH   2   4
ATOM      4  C   UNL d   1      33.077  19.865 -22.052  0.00  0.00     0.063 C 
BRANCH   4   5
ATOM      5  C   UNL d   1      33.034  19.688 -22.875  0.00  0.00     0.011 C 
BRANCH   5   6
ATOM      6  C   UNL d   1      33.098  18.915 -23.103  0.00  0.00     0.030 A 
ATOM      7  S   UNL d   1      33.187  18.668 -23.834  0.00  0.00    -0.086 SA
ATOM      8  C   UNL d   1      33.233  17.845 -23.869  0.00  0.00     0.035 A 
ATOM      9  C   UNL d   1      33.168  17.574 -23.118  0.00  0.00     0.007 A 
ATOM     10  C   UNL d   1      33.082  18.221 -22.616  0.00  0.00     0.007 A 
ENDBRANCH   5   6
ENDBRANCH   4   5
ENDBRANCH   2   4
BRANCH   1  11
ATOM     11  C   UNL d   1      32.419  21.588 -20.830  0.00  0.00     0.194 A 
ATOM     12  N   UNL d   1      31.894  22.155 -21.084  0.00  0.00    -0.107 NA
ATOM     13  O   UNL d   1      32.000  22.810 -20.649  0.00  0.00    -0.210 OA
ATOM     14  C   UNL d   1      32.606  22.703 -20.084  0.00  0.00     0.128 A 
ATOM     15  C   UNL d   1      32.864  21.938 -20.202  0.00  0.00     0.068 A 
ATOM     16  C   UNL d   1      32.908  23.221 -19.518  0.00  0.00     0.029 C 
ENDBRANCH   1  11
TORSDOF 4
ENDMDL
MODEL 2
REMARK VINA RESULT:      -2.8      2.312      4.726
REMARK  4 active torsions:
REMARK  status: ('A' for Active; 'I' for Inactive)
REMARK    1  A    between atoms: N_4  and  C_1 
REMARK       I    between atoms: C_6  and  N_4 
REMARK    2  A    between atoms: C_10  and  C_6 
REMARK    3  A    between atoms: C_8  and  C_11 
REMARK    4  A    between atoms: C_11  and  C_10 
ROOT
ATOM      1  N   UNL d   1      32.653  18.825 -23.337  0.00  0.00    -0.187 NA
ATOM      2  C   UNL d   1      32.938  19.115 -22.617  0.00  0.00     0.281 C 
ATOM      3  O   UNL d   1      33.238  18.613 -22.010  0.00  0.00    -0.265 OA
ENDROOT
BRANCH   2   4
ATOM      4  C   UNL d   1      32.931  19.971 -22.477  0.00  0.00     0.063 C 
BRANCH   4   5
ATOM      5  C   UNL d   1      32.958  20.245 -21.681  0.00  0.00     0.011 C 
BRANCH   5   6
ATOM      6  C   UNL d   1      32.868  21.036 -21.546  0.00  0.00     0.030 A 
ATOM      7  S   UNL d   1      32.451  21.350 -20.970  0.00  0.00    -0.086 SA
ATOM      8  C   UNL d   1      32.478  22.174 -20.994  0.00  0.00     0.035 A 
ATOM      9  C   UNL d   1      32.936  22.376 -21.619  0.00  0.00     0.007 A 
ATOM     10  C   UNL d   1      33.195  21.685 -21.985  0.00  0.00     0.007 A 
ENDBRANCH   5   6
ENDBRANCH   4   5
ENDBRANCH   2   4
BRANCH   1  11
ATOM     11  C   UNL d   1      32.660  18.012 -23.470  0.00  0.00     0.194 A 
ATOM     12  N   UNL d   1      33.241  17.448 -23.396  0.00  0.00    -0.107 NA
ATOM     13  O   UNL d   1      32.936  16.744 -23.601  0.00  0.00    -0.210 OA
ATOM     14  C   UNL d   1      32.133  16.815 -23.821  0.00  0.00     0.128 A 
ATOM     15  C   UNL d   1      31.967  17.610 -23.737  0.00  0.00     0.068 A 
ATOM     16  C   UNL d   1      31.594  16.243 -24.072  0.00  0.00     0.029 C 
ENDBRANCH   1  11
TORSDOF 4
ENDMDL
MODEL 3
REMARK VINA RESULT:      -1.5      1.016      1.394
REMARK  4 active torsions:
REMARK  status: ('A' for Active; 'I' for Inactive)
REMARK    1  A    between atoms: N_4  and  C_1 
REMARK       I    between atoms: C_6  and  N_4 
REMARK    2  A    between atoms: C_10  and  C_6 
REMARK    3  A    between atoms: C_8  and  C_11 
REMARK    4  A    between atoms: C_11  and  C_10 
ROOT
ATOM      1  N   UNL d   1      32.869  19.951 -21.714  0.00  0.00    -0.187 NA
ATOM      2  C   UNL d   1      33.056  19.658 -22.465  0.00  0.00     0.281 C 
ATOM      3  O   UNL d   1      33.241  20.160 -23.117  0.00  0.00    -0.265 OA
ENDROOT
BRANCH   2   4
ATOM      4  C   UNL d   1      33.062  18.801 -22.591  0.00  0.00     0.063 C 
BRANCH   4   5
ATOM      5  C   UNL d   1      32.715  18.498 -23.297  0.00  0.00     0.011 C 
BRANCH   5   6
ATOM      6  C   UNL d   1      32.662  17.697 -23.384  0.00  0.00     0.030 A 
ATOM      7  S   UNL d   1      32.051  17.315 -23.674  0.00  0.00    -0.086 SA
ATOM      8  C   UNL d   1      32.183  16.501 -23.684  0.00  0.00     0.035 A 
ATOM      9  C   UNL d   1      32.915  16.378 -23.384  0.00  0.00     0.007 A 
ATOM     10  C   UNL d   1      33.241  17.108 -23.187  0.00  0.00     0.007 A 
ENDBRANCH   5   6
ENDBRANCH   4   5
ENDBRANCH   2   4
BRANCH   1  11
ATOM     11  C   UNL d   1      32.862  20.766 -21.594  0.00  0.00     0.194 A 
ATOM     12  N   UNL d   1      33.238  21.380 -21.971  0.00  0.00    -0.107 NA
ATOM     13  O   UNL d   1      33.027  22.060 -21.619  0.00  0.00    -0.210 OA
ATOM     14  C   UNL d   1      32.497  21.920 -20.988  0.00  0.00     0.128 A 
ATOM     15  C   UNL d   1      32.398  21.110 -20.978  0.00  0.00     0.068 A 
ATOM     16  C   UNL d   1      32.133  22.447 -20.469  0.00  0.00     0.029 C 
ENDBRANCH   1  11
TORSDOF 4
ENDMDL
MODEL 4
REMARK VINA RESULT:      -1.5      4.243      5.525
REMARK  4 active torsions:
REMARK  status: ('A' for Active; 'I' for Inactive)
REMARK    1  A    between atoms: N_4  and  C_1 
REMARK       I    between atoms: C_6  and  N_4 
REMARK    2  A    between atoms: C_10  and  C_6 
REMARK    3  A    between atoms: C_8  and  C_11 
REMARK    4  A    between atoms: C_11  and  C_10 
ROOT
ATOM      1  N   UNL d   1      31.224  17.251 -23.642  0.00  0.00    -0.187 NA
ATOM      2  C   UNL d   1      31.097  16.434 -23.629  0.00  0.00     0.281 C 
ATOM      3  O   UNL d   1      31.699  15.876 -23.821  0.00  0.00    -0.265 OA
ENDROOT
BRANCH   2   4
ATOM      4  C   UNL d   1      30.313  16.135 -23.410  0.00  0.00     0.063 C 
BRANCH   4   5
ATOM      5  C   UNL d   1      29.824  15.816 -24.018  0.00  0.00     0.011 C 
BRANCH   5   6
ATOM      6  C   UNL d   1      29.045  15.682 -23.851  0.00  0.00     0.030 A 
ATOM      7  S   UNL d   1      28.484  15.575 -24.377  0.00  0.00    -0.086 SA
ATOM      8  C   UNL d   1      27.753  15.453 -24.016  0.00  0.00     0.035 A 
ATOM      9  C   UNL d   1      27.873  15.486 -23.225  0.00  0.00     0.007 A 
ATOM     10  C   UNL d   1      28.673  15.628 -23.090  0.00  0.00     0.007 A 
ENDBRANCH   5   6
ENDBRANCH   4   5
ENDBRANCH   2   4
BRANCH   1  11
ATOM     11  C   UNL d   1      31.969  17.535 -23.849  0.00  0.00     0.194 A 
ATOM     12  N   UNL d   1      32.706  17.192 -23.858  0.00  0.00    -0.107 NA
ATOM     13  O   UNL d   1      33.232  17.730 -24.111  0.00  0.00    -0.210 OA
ATOM     14  C   UNL d   1      32.861  18.458 -24.282  0.00  0.00     0.128 A 
ATOM     15  C   UNL d   1      32.072  18.330 -24.116  0.00  0.00     0.068 A 
ATOM     16  C   UNL d   1      33.177  19.169 -24.556  0.00  0.00     0.029 C 
ENDBRANCH   1  11
TORSDOF 4
ENDMDL
