MODEL 1
REMARK VINA RESULT:      -3.0      0.000      0.000
REMARK  2 active torsions:
REMARK  status: ('A' for Active; 'I' for Inactive)
REMARK    1  A    between atoms: N_2  and  C_1 
REMARK    2  A    between atoms: C_4  and  C_1 
ROOT
ATOM      1  C   UNL d   1      31.063  16.377 -24.461  0.00  0.00     0.120 C 
ATOM      2  S   UNL d   1      31.281  15.897 -25.097  0.00  0.00    -0.059 SA
ENDROOT
BRANCH   1   3
ATOM      3  N   UNL d   1      30.292  16.331 -24.155  0.00  0.00    -0.293 N 
ATOM      4  C   UNL d   1      29.692  16.796 -24.481  0.00  0.00     0.100 A 
ATOM      5  C   UNL d   1      28.926  16.753 -24.180  0.00  0.00     0.100 A 
ATOM      6  N   UNL d   1      28.759  16.246 -23.552  0.00  0.00    -0.299 N 
ATOM      7  C   UNL d   1      29.359  15.781 -23.225  0.00  0.00     0.100 A 
ATOM      8  C   UNL d   1      27.991  16.202 -23.248  0.00  0.00     0.100 C 
ATOM      9  C   UNL d   1      30.131  15.827 -23.532  0.00  0.00     0.100 A 
ENDBRANCH   1   3
BRANCH   1  10
ATOM     10  C   UNL d   1      31.606  16.904 -24.125  0.00  0.00     0.027 A 
ATOM     11  C   UNL d   1      31.617  17.702 -24.354  0.00  0.00     0.003 A 
ATOM     12  C   UNL d   1      32.161  18.221 -24.016  0.00  0.00     0.007 A 
ATOM     13  C   UNL d   1      32.694  17.947 -23.451  0.00  0.00     0.035 A 
ATOM     14  C   UNL d   1      32.683  17.149 -23.222  0.00  0.00     0.007 A 
ATOM     15 BR   UNL d   1      33.240  18.466 -23.110  0.00  0.00    -0.049 Br
ATOM     16  C   UNL d   1      32.140  16.630 -23.560  0.00  0.00     0.003 A 
ENDBRANCH   1  10
TORSDOF 2
ENDMDL
MODEL 2
REMARK VINA RESULT:      -3.0      1.698      3.464
REMARK  2 active torsions:
REMARK  status: ('A' for Active; 'I' for Inactive)
REMARK    1  A    between atoms: N_2  and  C_1 
REMARK    2  A    between atoms: C_4  and  C_1 
ROOT
ATOM      1  C   UNL d   1      31.124  16.457 -24.449  0.00  0.00     0.120 C 
ATOM      2  S   UNL d   1      31.376  16.011 -25.097  0.00  0.00    -0.059 SA
ENDROOT
BRANCH   1   3
ATOM      3  N   UNL d   1      31.655  16.970 -24.069  0.00  0.00    -0.293 N 
ATOM      4  C   UNL d   1      32.144  16.684 -23.468  0.00  0.00     0.100 A 
ATOM      5  C   UNL d   1      32.672  17.191 -23.088  0.00  0.00     0.100 A 
ATOM      6  N   UNL d   1      32.711  17.983 -23.309  0.00  0.00    -0.299 N 
ATOM      7  C   UNL d   1      32.223  18.270 -23.910  0.00  0.00     0.100 A 
ATOM      8  C   UNL d   1      33.241  18.493 -22.929  0.00  0.00     0.100 C 
ATOM      9  C   UNL d   1      31.691  17.756 -24.291  0.00  0.00     0.100 A 
ENDBRANCH   1   3
BRANCH   1  10
ATOM     10  C   UNL d   1      30.345  16.397 -24.174  0.00  0.00     0.027 A 
ATOM     11  C   UNL d   1      30.148  15.851 -23.580  0.00  0.00     0.003 A 
ATOM     12  C   UNL d   1      29.370  15.797 -23.312  0.00  0.00     0.007 A 
ATOM     13  C   UNL d   1      28.789  16.284 -23.633  0.00  0.00     0.035 A 
ATOM     14  C   UNL d   1      28.986  16.830 -24.228  0.00  0.00     0.007 A 
ATOM     15 BR   UNL d   1      28.008  16.230 -23.365  0.00  0.00    -0.049 Br
ATOM     16  C   UNL d   1      29.763  16.884 -24.496  0.00  0.00     0.003 A 
ENDBRANCH   1  10
TORSDOF 2
ENDMDL
MODEL 3
REMARK VINA RESULT:      -2.6      1.873      3.488
REMARK  2 active torsions:
REMARK  status: ('A' for Active; 'I' for Inactive)
REMARK    1  A    between atoms: N_2  and  C_1 
REMARK    2  A    between atoms: C_4  and  C_1 
ROOT
ATOM      1  C   UNL d   1      31.975  17.050 -24.454  0.00  0.00     0.120 C 
ATOM      2  S   UNL d   1      32.459  16.599 -24.948  0.00  0.00    -0.059 SA
ENDROOT
BRANCH   1   3
ATOM      3  N   UNL d   1      32.292  17.700 -24.045  0.00  0.00    -0.293 N 
ATOM      4  C   UNL d   1      32.545  17.610 -23.264  0.00  0.00     0.100 A 
ATOM      5  C   UNL d   1      32.861  18.254 -22.856  0.00  0.00     0.100 A 
ATOM      6  N   UNL d   1      32.924  18.986 -23.229  0.00  0.00    -0.299 N 
ATOM      7  C   UNL d   1      32.671  19.076 -24.010  0.00  0.00     0.100 A 
ATOM      8  C   UNL d   1      33.241  19.632 -22.820  0.00  0.00     0.100 C 
ATOM      9  C   UNL d   1      32.353  18.425 -24.419  0.00  0.00     0.100 A 
ENDBRANCH   1   3
BRANCH   1  10
ATOM     10  C   UNL d   1      31.174  16.860 -24.361  0.00  0.00     0.027 A 
ATOM     11  C   UNL d   1      30.591  17.268 -24.790  0.00  0.00     0.003 A 
ATOM     12  C   UNL d   1      29.796  17.073 -24.692  0.00  0.00     0.007 A 
ATOM     13  C   UNL d   1      29.580  16.474 -24.170  0.00  0.00     0.035 A 
ATOM     14  C   UNL d   1      30.163  16.066 -23.742  0.00  0.00     0.007 A 
ATOM     15 BR   UNL d   1      28.783  16.277 -24.071  0.00  0.00    -0.049 Br
ATOM     16  C   UNL d   1      30.958  16.261 -23.839  0.00  0.00     0.003 A 
ENDBRANCH   1  10
TORSDOF 2
ENDMDL
MODEL 4
REMARK VINA RESULT:      -1.9      1.307      1.611
REMARK  2 active torsions:
REMARK  status: ('A' for Active; 'I' for Inactive)
REMARK    1  A    between atoms: N_2  and  C_1 
REMARK    2  A    between atoms: C_4  and  C_1 
ROOT
ATOM      1  C   UNL d   1      30.241  16.804 -24.610  0.00  0.00     0.120 C 
ATOM      2  S   UNL d   1      30.234  17.471 -25.097  0.00  0.00    -0.059 SA
ENDROOT
BRANCH   1   3
ATOM      3  N   UNL d   1      29.523  16.463 -24.367  0.00  0.00    -0.293 N 
ATOM      4  C   UNL d   1      29.178  16.697 -23.654  0.00  0.00     0.100 A 
ATOM      5  C   UNL d   1      28.466  16.361 -23.409  0.00  0.00     0.100 A 
ATOM      6  N   UNL d   1      28.099  15.791 -23.878  0.00  0.00    -0.299 N 
ATOM      7  C   UNL d   1      28.444  15.557 -24.591  0.00  0.00     0.100 A 
ATOM      8  C   UNL d   1      27.384  15.453 -23.634  0.00  0.00     0.100 C 
ATOM      9  C   UNL d   1      29.162  15.898 -24.834  0.00  0.00     0.100 A 
ENDBRANCH   1   3
BRANCH   1  10
ATOM     10  C   UNL d   1      30.957  16.471 -24.362  0.00  0.00     0.027 A 
ATOM     11  C   UNL d   1      31.352  15.915 -24.837  0.00  0.00     0.003 A 
ATOM     12  C   UNL d   1      32.065  15.588 -24.583  0.00  0.00     0.007 A 
ATOM     13  C   UNL d   1      32.385  15.812 -23.858  0.00  0.00     0.035 A 
ATOM     14  C   UNL d   1      31.990  16.368 -23.383  0.00  0.00     0.007 A 
ATOM     15 BR   UNL d   1      33.100  15.485 -23.602  0.00  0.00    -0.049 Br
ATOM     16  C   UNL d   1      31.278  16.695 -23.636  0.00  0.00     0.003 A 
ENDBRANCH   1  10
TORSDOF 2
ENDMDL
MODEL 5
REMARK VINA RESULT:      -1.3      5.998      7.171
REMARK  2 active torsions:
REMARK  status: ('A' for Active; 'I' for Inactive)
REMARK    1  A    between atoms: N_2  and  C_1 
REMARK    2  A    between atoms: C_4  and  C_1 
ROOT
ATOM      1  C   UNL d   1      32.238  22.867 -21.238  0.00  0.00     0.120 C 
ATOM      2  S   UNL d   1      31.871  23.404 -21.747  0.00  0.00    -0.059 SA
ENDROOT
BRANCH   1   3
ATOM      3  N   UNL d   1      32.378  23.078 -20.447  0.00  0.00    -0.293 N 
ATOM      4  C   UNL d   1      31.789  22.956 -19.880  0.00  0.00     0.100 A 
ATOM      5  C   UNL d   1      31.924  23.164 -19.093  0.00  0.00     0.100 A 
ATOM      6  N   UNL d   1      32.647  23.493 -18.874  0.00  0.00    -0.299 N 
ATOM      7  C   UNL d   1      33.235  23.615 -19.441  0.00  0.00     0.100 A 
ATOM      8  C   UNL d   1      32.784  23.702 -18.085  0.00  0.00     0.100 C 
ATOM      9  C   UNL d   1      33.095  23.404 -20.233  0.00  0.00     0.100 A 
ENDBRANCH   1   3
BRANCH   1  10
ATOM     10  C   UNL d   1      32.470  22.120 -21.510  0.00  0.00     0.027 A 
ATOM     11  C   UNL d   1      32.173  21.430 -21.155  0.00  0.00     0.003 A 
ATOM     12  C   UNL d   1      32.408  20.690 -21.431  0.00  0.00     0.007 A 
ATOM     13  C   UNL d   1      32.938  20.634 -22.059  0.00  0.00     0.035 A 
ATOM     14  C   UNL d   1      33.235  21.324 -22.414  0.00  0.00     0.007 A 
ATOM     15 BR   UNL d   1      33.175  19.892 -22.337  0.00  0.00    -0.049 Br
ATOM     16  C   UNL d   1      33.001  22.064 -22.139  0.00  0.00     0.003 A 
ENDBRANCH   1  10
TORSDOF 2
ENDMDL
MODEL 6
REMARK VINA RESULT:      -1.1      2.618      4.067
REMARK  2 active torsions:
REMARK  status: ('A' for Active; 'I' for Inactive)
REMARK    1  A    between atoms: N_2  and  C_1 
REMARK    2  A    between atoms: C_4  and  C_1 
ROOT
ATOM      1  C   UNL d   1      32.929  18.943 -23.937  0.00  0.00     0.120 C 
ATOM      2  S   UNL d   1      33.241  19.321 -24.602  0.00  0.00    -0.059 SA
ENDROOT
BRANCH   1   3
ATOM      3  N   UNL d   1      32.962  19.317 -23.196  0.00  0.00    -0.293 N 
ATOM      4  C   UNL d   1      33.207  18.891 -22.532  0.00  0.00     0.100 A 
ATOM      5  C   UNL d   1      33.241  19.259 -21.794  0.00  0.00     0.100 A 
ATOM      6  N   UNL d   1      33.030  20.052 -21.721  0.00  0.00    -0.299 N 
ATOM      7  C   UNL d   1      32.785  20.478 -22.385  0.00  0.00     0.100 A 
ATOM      8  C   UNL d   1      33.063  20.422 -20.982  0.00  0.00     0.100 C 
ATOM      9  C   UNL d   1      32.752  20.103 -23.127  0.00  0.00     0.100 A 
ENDBRANCH   1   3
BRANCH   1  10
ATOM     10  C   UNL d   1      32.583  18.194 -24.003  0.00  0.00     0.027 A 
ATOM     11  C   UNL d   1      33.038  17.507 -23.892  0.00  0.00     0.003 A 
ATOM     12  C   UNL d   1      32.686  16.765 -23.959  0.00  0.00     0.007 A 
ATOM     13  C   UNL d   1      31.885  16.703 -24.136  0.00  0.00     0.035 A 
ATOM     14  C   UNL d   1      31.430  17.390 -24.247  0.00  0.00     0.007 A 
ATOM     15 BR   UNL d   1      31.531  15.959 -24.204  0.00  0.00    -0.049 Br
ATOM     16  C   UNL d   1      31.780  18.132 -24.180  0.00  0.00     0.003 A 
ENDBRANCH   1  10
TORSDOF 2
ENDMDL
MODEL 7
REMARK VINA RESULT:      -1.1      6.755      7.798
REMARK  2 active torsions:
REMARK  status: ('A' for Active; 'I' for Inactive)
REMARK    1  A    between atoms: N_2  and  C_1 
REMARK    2  A    between atoms: C_4  and  C_1 
ROOT
ATOM      1  C   UNL d   1      32.934  23.049 -19.722  0.00  0.00     0.120 C 
ATOM      2  S   UNL d   1      33.233  23.702 -20.130  0.00  0.00    -0.059 SA
ENDROOT
BRANCH   1   3
ATOM      3  N   UNL d   1      32.757  22.351 -20.136  0.00  0.00    -0.293 N 
ATOM      4  C   UNL d   1      33.233  21.683 -20.037  0.00  0.00     0.100 A 
ATOM      5  C   UNL d   1      33.059  20.988 -20.446  0.00  0.00     0.100 A 
ATOM      6  N   UNL d   1      32.410  20.961 -20.952  0.00  0.00    -0.299 N 
ATOM      7  C   UNL d   1      31.934  21.629 -21.051  0.00  0.00     0.100 A 
ATOM      8  C   UNL d   1      32.234  20.264 -21.363  0.00  0.00     0.100 C 
ATOM      9  C   UNL d   1      32.112  22.328 -20.637  0.00  0.00     0.100 A 
ENDBRANCH   1   3
BRANCH   1  10
ATOM     10  C   UNL d   1      32.810  23.084 -18.905  0.00  0.00     0.027 A 
ATOM     11  C   UNL d   1      33.233  22.586 -18.391  0.00  0.00     0.003 A 
ATOM     12  C   UNL d   1      33.104  22.627 -17.578  0.00  0.00     0.007 A 
ATOM     13  C   UNL d   1      32.555  23.161 -17.275  0.00  0.00     0.035 A 
ATOM     14  C   UNL d   1      32.132  23.659 -17.788  0.00  0.00     0.007 A 
ATOM     15 BR   UNL d   1      32.424  23.203 -16.459  0.00  0.00    -0.049 Br
ATOM     16  C   UNL d   1      32.261  23.618 -18.600  0.00  0.00     0.003 A 
ENDBRANCH   1  10
TORSDOF 2
ENDMDL
MODEL 8
REMARK VINA RESULT:      -0.2      4.007      5.296
REMARK  2 active torsions:
REMARK  status: ('A' for Active; 'I' for Inactive)
REMARK    1  A    between atoms: N_2  and  C_1 
REMARK    2  A    between atoms: C_4  and  C_1 
ROOT
ATOM      1  C   UNL d   1      32.977  20.202 -21.514  0.00  0.00     0.120 C 
ATOM      2  S   UNL d   1      33.240  19.679 -20.931  0.00  0.00    -0.059 SA
ENDROOT
BRANCH   1   3
ATOM      3  N   UNL d   1      32.989  19.972 -22.312  0.00  0.00    -0.293 N 
ATOM      4  C   UNL d   1      32.813  19.191 -22.517  0.00  0.00     0.100 A 
ATOM      5  C   UNL d   1      32.824  18.959 -23.308  0.00  0.00     0.100 A 
ATOM      6  N   UNL d   1      33.012  19.508 -23.894  0.00  0.00    -0.299 N 
ATOM      7  C   UNL d   1      33.188  20.288 -23.689  0.00  0.00     0.100 A 
ATOM      8  C   UNL d   1      33.023  19.276 -24.688  0.00  0.00     0.100 C 
ATOM      9  C   UNL d   1      33.176  20.518 -22.890  0.00  0.00     0.100 A 
ENDBRANCH   1   3
BRANCH   1  10
ATOM     10  C   UNL d   1      32.700  20.955 -21.309  0.00  0.00     0.027 A 
ATOM     11  C   UNL d   1      31.885  21.104 -21.251  0.00  0.00     0.003 A 
ATOM     12  C   UNL d   1      31.617  21.857 -21.046  0.00  0.00     0.007 A 
ATOM     13  C   UNL d   1      32.157  22.460 -20.900  0.00  0.00     0.035 A 
ATOM     14  C   UNL d   1      32.973  22.311 -20.959  0.00  0.00     0.007 A 
ATOM     15 BR   UNL d   1      31.890  23.216 -20.695  0.00  0.00    -0.049 Br
ATOM     16  C   UNL d   1      33.241  21.560 -21.163  0.00  0.00     0.003 A 
ENDBRANCH   1  10
TORSDOF 2
ENDMDL
