MODEL 1
REMARK VINA RESULT:      -2.6      0.000      0.000
REMARK  4 active torsions:
REMARK  status: ('A' for Active; 'I' for Inactive)
REMARK    1  A    between atoms: C_2  and  N_1 
REMARK    2  A    between atoms: C_4  and  C_2 
REMARK    3  A    between atoms: C_10  and  C_4 
REMARK    4  A    between atoms: N_7  and  C_6 
ROOT
ATOM      1  C   UNL d   1      32.516  22.395 -20.992  0.00  0.00     0.064 A 
ATOM      2  C   UNL d   1      32.957  22.430 -21.689  0.00  0.00     0.018 A 
ATOM      3  C   UNL d   1      32.318  21.665 -20.661  0.00  0.00     0.018 A 
ATOM      4  C   UNL d   1      32.999  20.999 -21.720  0.00  0.00     0.002 A 
ATOM      5  C   UNL d   1      32.559  20.967 -21.024  0.00  0.00     0.002 A 
ATOM      6  C   UNL d   1      33.198  21.731 -22.053  0.00  0.00     0.002 A 
ENDROOT
BRANCH   4   7
ATOM      7  C   UNL d   1      33.241  20.298 -22.084  0.00  0.00     0.025 C 
BRANCH   7   8
ATOM      8  C   UNL d   1      32.681  19.789 -22.400  0.00  0.00     0.148 C 
BRANCH   8   9
ATOM      9  N   UNL d   1      32.929  19.104 -22.788  0.00  0.00    -0.112 N 
ATOM     10  O   UNL d   1      32.961  19.095 -23.602  0.00  0.00    -0.532 OA
ATOM     11  O   UNL d   1      33.135  18.453 -22.340  0.00  0.00    -0.532 OA
ENDBRANCH   8   9
ENDBRANCH   7   8
ENDBRANCH   4   7
BRANCH   1  12
ATOM     12  N   UNL d   1      32.277  23.104 -20.632  0.00  0.00    -0.301 N 
ATOM     13  C   UNL d   1      31.818  23.648 -21.058  0.00  0.00     0.100 C 
ATOM     14  C   UNL d   1      32.492  23.276 -19.850  0.00  0.00     0.100 C 
ENDBRANCH   1  12
TORSDOF 4
ENDMDL
MODEL 2
REMARK VINA RESULT:      -2.4      4.184      6.000
REMARK  4 active torsions:
REMARK  status: ('A' for Active; 'I' for Inactive)
REMARK    1  A    between atoms: C_2  and  N_1 
REMARK    2  A    between atoms: C_4  and  C_2 
REMARK    3  A    between atoms: C_10  and  C_4 
REMARK    4  A    between atoms: N_7  and  C_6 
ROOT
ATOM      1  C   UNL d   1      29.709  16.276 -24.092  0.00  0.00     0.064 A 
ATOM      2  C   UNL d   1      29.892  16.969 -24.503  0.00  0.00     0.018 A 
ATOM      3  C   UNL d   1      30.278  15.911 -23.618  0.00  0.00     0.018 A 
ATOM      4  C   UNL d   1      31.216  16.926 -23.960  0.00  0.00     0.002 A 
ATOM      5  C   UNL d   1      31.031  16.235 -23.551  0.00  0.00     0.002 A 
ATOM      6  C   UNL d   1      30.647  17.293 -24.436  0.00  0.00     0.002 A 
ENDROOT
BRANCH   4   7
ATOM      7  C   UNL d   1      31.973  17.251 -23.892  0.00  0.00     0.025 C 
BRANCH   7   8
ATOM      8  C   UNL d   1      32.074  17.972 -23.515  0.00  0.00     0.148 C 
BRANCH   8   9
ATOM      9  N   UNL d   1      32.836  18.268 -23.404  0.00  0.00    -0.112 N 
ATOM     10  O   UNL d   1      33.240  18.580 -24.040  0.00  0.00    -0.532 OA
ATOM     11  O   UNL d   1      33.164  18.239 -22.657  0.00  0.00    -0.532 OA
ENDBRANCH   8   9
ENDBRANCH   7   8
ENDBRANCH   4   7
BRANCH   1  12
ATOM     12  N   UNL d   1      28.946  15.956 -24.166  0.00  0.00    -0.301 N 
ATOM     13  C   UNL d   1      28.771  15.454 -24.801  0.00  0.00     0.100 C 
ATOM     14  C   UNL d   1      28.358  16.133 -23.610  0.00  0.00     0.100 C 
ENDBRANCH   1  12
TORSDOF 4
ENDMDL
MODEL 3
REMARK VINA RESULT:      -2.4      2.069      3.974
REMARK  4 active torsions:
REMARK  status: ('A' for Active; 'I' for Inactive)
REMARK    1  A    between atoms: C_2  and  N_1 
REMARK    2  A    between atoms: C_4  and  C_2 
REMARK    3  A    between atoms: C_10  and  C_4 
REMARK    4  A    between atoms: N_7  and  C_6 
ROOT
ATOM      1  C   UNL d   1      33.216  18.905 -23.189  0.00  0.00     0.064 A 
ATOM      2  C   UNL d   1      33.240  19.673 -23.492  0.00  0.00     0.018 A 
ATOM      3  C   UNL d   1      33.175  18.779 -22.374  0.00  0.00     0.018 A 
ATOM      4  C   UNL d   1      33.184  20.186 -22.157  0.00  0.00     0.002 A 
ATOM      5  C   UNL d   1      33.159  19.419 -21.858  0.00  0.00     0.002 A 
ATOM      6  C   UNL d   1      33.224  20.314 -22.974  0.00  0.00     0.002 A 
ENDROOT
BRANCH   4   7
ATOM      7  C   UNL d   1      33.168  20.830 -21.637  0.00  0.00     0.025 C 
BRANCH   7   8
ATOM      8  C   UNL d   1      32.514  20.949 -21.158  0.00  0.00     0.148 C 
BRANCH   8   9
ATOM      9  N   UNL d   1      32.439  21.659 -20.744  0.00  0.00    -0.112 N 
ATOM     10  O   UNL d   1      33.001  21.858 -20.189  0.00  0.00    -0.532 OA
ATOM     11  O   UNL d   1      31.801  22.142 -20.904  0.00  0.00    -0.532 OA
ENDBRANCH   8   9
ENDBRANCH   7   8
ENDBRANCH   4   7
BRANCH   1  12
ATOM     12  N   UNL d   1      33.232  18.264 -23.718  0.00  0.00    -0.301 N 
ATOM     13  C   UNL d   1      33.240  18.406 -24.535  0.00  0.00     0.100 C 
ATOM     14  C   UNL d   1      33.241  17.485 -23.439  0.00  0.00     0.100 C 
ENDBRANCH   1  12
TORSDOF 4
ENDMDL
MODEL 4
REMARK VINA RESULT:      -2.3      4.460      5.840
REMARK  4 active torsions:
REMARK  status: ('A' for Active; 'I' for Inactive)
REMARK    1  A    between atoms: C_2  and  N_1 
REMARK    2  A    between atoms: C_4  and  C_2 
REMARK    3  A    between atoms: C_10  and  C_4 
REMARK    4  A    between atoms: N_7  and  C_6 
ROOT
ATOM      1  C   UNL d   1      31.974  17.493 -24.064  0.00  0.00     0.064 A 
ATOM      2  C   UNL d   1      31.900  16.814 -23.599  0.00  0.00     0.018 A 
ATOM      3  C   UNL d   1      31.349  17.738 -24.545  0.00  0.00     0.018 A 
ATOM      4  C   UNL d   1      30.573  16.629 -24.102  0.00  0.00     0.002 A 
ATOM      5  C   UNL d   1      30.649  17.307 -24.565  0.00  0.00     0.002 A 
ATOM      6  C   UNL d   1      31.198  16.383 -23.618  0.00  0.00     0.002 A 
ENDROOT
BRANCH   4   7
ATOM      7  C   UNL d   1      29.868  16.196 -24.121  0.00  0.00     0.025 C 
BRANCH   7   8
ATOM      8  C   UNL d   1      29.150  16.585 -24.049  0.00  0.00     0.148 C 
BRANCH   8   9
ATOM      9  N   UNL d   1      28.461  16.144 -23.940  0.00  0.00    -0.112 N 
ATOM     10  O   UNL d   1      28.314  15.506 -24.424  0.00  0.00    -0.532 OA
ATOM     11  O   UNL d   1      27.945  16.364 -23.347  0.00  0.00    -0.532 OA
ENDBRANCH   8   9
ENDBRANCH   7   8
ENDBRANCH   4   7
BRANCH   1  12
ATOM     12  N   UNL d   1      32.685  17.922 -24.038  0.00  0.00    -0.301 N 
ATOM     13  C   UNL d   1      32.841  18.421 -23.394  0.00  0.00     0.100 C 
ATOM     14  C   UNL d   1      33.241  17.857 -24.648  0.00  0.00     0.100 C 
ENDBRANCH   1  12
TORSDOF 4
ENDMDL
MODEL 5
REMARK VINA RESULT:      -2.1      2.713      5.053
REMARK  4 active torsions:
REMARK  status: ('A' for Active; 'I' for Inactive)
REMARK    1  A    between atoms: C_2  and  N_1 
REMARK    2  A    between atoms: C_4  and  C_2 
REMARK    3  A    between atoms: C_10  and  C_4 
REMARK    4  A    between atoms: N_7  and  C_6 
ROOT
ATOM      1  C   UNL d   1      32.300  16.886 -23.754  0.00  0.00     0.064 A 
ATOM      2  C   UNL d   1      31.991  17.612 -23.996  0.00  0.00     0.018 A 
ATOM      3  C   UNL d   1      32.917  16.859 -23.205  0.00  0.00     0.018 A 
ATOM      4  C   UNL d   1      32.920  18.281 -23.136  0.00  0.00     0.002 A 
ATOM      5  C   UNL d   1      33.227  17.554 -22.896  0.00  0.00     0.002 A 
ATOM      6  C   UNL d   1      32.302  18.310 -23.686  0.00  0.00     0.002 A 
ENDROOT
BRANCH   4   7
ATOM      7  C   UNL d   1      33.232  18.981 -22.825  0.00  0.00     0.025 C 
BRANCH   7   8
ATOM      8  C   UNL d   1      32.734  19.524 -22.467  0.00  0.00     0.148 C 
BRANCH   8   9
ATOM      9  N   UNL d   1      33.057  20.126 -22.004  0.00  0.00    -0.112 N 
ATOM     10  O   UNL d   1      33.241  20.841 -22.350  0.00  0.00    -0.532 OA
ATOM     11  O   UNL d   1      33.183  19.986 -21.210  0.00  0.00    -0.532 OA
ENDBRANCH   8   9
ENDBRANCH   7   8
ENDBRANCH   4   7
BRANCH   1  12
ATOM     12  N   UNL d   1      31.981  16.188 -24.071  0.00  0.00    -0.301 N 
ATOM     13  C   UNL d   1      31.374  15.793 -23.667  0.00  0.00     0.100 C 
ATOM     14  C   UNL d   1      32.262  15.881 -24.787  0.00  0.00     0.100 C 
ENDBRANCH   1  12
TORSDOF 4
ENDMDL
MODEL 6
REMARK VINA RESULT:      -1.9      3.135      4.394
REMARK  4 active torsions:
REMARK  status: ('A' for Active; 'I' for Inactive)
REMARK    1  A    between atoms: C_2  and  N_1 
REMARK    2  A    between atoms: C_4  and  C_2 
REMARK    3  A    between atoms: C_10  and  C_4 
REMARK    4  A    between atoms: N_7  and  C_6 
ROOT
ATOM      1  C   UNL d   1      32.931  22.242 -20.844  0.00  0.00     0.064 A 
ATOM      2  C   UNL d   1      33.241  21.940 -20.141  0.00  0.00     0.018 A 
ATOM      3  C   UNL d   1      32.508  22.951 -20.842  0.00  0.00     0.018 A 
ATOM      4  C   UNL d   1      32.700  23.062 -19.436  0.00  0.00     0.002 A 
ATOM      5  C   UNL d   1      32.392  23.361 -20.139  0.00  0.00     0.002 A 
ATOM      6  C   UNL d   1      33.125  22.351 -19.436  0.00  0.00     0.002 A 
ENDROOT
BRANCH   4   7
ATOM      7  C   UNL d   1      32.584  23.475 -18.729  0.00  0.00     0.025 C 
BRANCH   7   8
ATOM      8  C   UNL d   1      32.900  23.184 -18.031  0.00  0.00     0.148 C 
BRANCH   8   9
ATOM      9  N   UNL d   1      32.674  23.521 -17.312  0.00  0.00    -0.112 N 
ATOM     10  O   UNL d   1      33.240  23.664 -16.743  0.00  0.00    -0.532 OA
ATOM     11  O   UNL d   1      31.887  23.702 -17.193  0.00  0.00    -0.532 OA
ENDBRANCH   8   9
ENDBRANCH   7   8
ENDBRANCH   4   7
BRANCH   1  12
ATOM     12  N   UNL d   1      33.053  21.821 -21.550  0.00  0.00    -0.301 N 
ATOM     13  C   UNL d   1      33.130  22.232 -22.266  0.00  0.00     0.100 C 
ATOM     14  C   UNL d   1      33.098  20.994 -21.547  0.00  0.00     0.100 C 
ENDBRANCH   1  12
TORSDOF 4
ENDMDL
MODEL 7
REMARK VINA RESULT:      -1.4      2.075      3.067
REMARK  4 active torsions:
REMARK  status: ('A' for Active; 'I' for Inactive)
REMARK    1  A    between atoms: C_2  and  N_1 
REMARK    2  A    between atoms: C_4  and  C_2 
REMARK    3  A    between atoms: C_10  and  C_4 
REMARK    4  A    between atoms: N_7  and  C_6 
ROOT
ATOM      1  C   UNL d   1      32.772  23.129 -18.286  0.00  0.00     0.064 A 
ATOM      2  C   UNL d   1      32.543  23.676 -18.860  0.00  0.00     0.018 A 
ATOM      3  C   UNL d   1      33.120  22.414 -18.506  0.00  0.00     0.018 A 
ATOM      4  C   UNL d   1      33.012  22.784 -19.877  0.00  0.00     0.002 A 
ATOM      5  C   UNL d   1      33.240  22.241 -19.301  0.00  0.00     0.002 A 
ATOM      6  C   UNL d   1      32.663  23.502 -19.657  0.00  0.00     0.002 A 
ENDROOT
BRANCH   4   7
ATOM      7  C   UNL d   1      33.134  22.610 -20.676  0.00  0.00     0.025 C 
BRANCH   7   8
ATOM      8  C   UNL d   1      32.490  22.506 -21.172  0.00  0.00     0.148 C 
BRANCH   8   9
ATOM      9  N   UNL d   1      32.597  22.143 -21.905  0.00  0.00    -0.112 N 
ATOM     10  O   UNL d   1      32.304  21.392 -22.025  0.00  0.00    -0.532 OA
ATOM     11  O   UNL d   1      32.996  22.549 -22.490  0.00  0.00    -0.532 OA
ENDBRANCH   8   9
ENDBRANCH   7   8
ENDBRANCH   4   7
BRANCH   1  12
ATOM     12  N   UNL d   1      32.646  23.312 -17.485  0.00  0.00    -0.301 N 
ATOM     13  C   UNL d   1      33.238  23.702 -17.055  0.00  0.00     0.100 C 
ATOM     14  C   UNL d   1      31.936  23.110 -17.111  0.00  0.00     0.100 C 
ENDBRANCH   1  12
TORSDOF 4
ENDMDL
MODEL 8
REMARK VINA RESULT:      -1.1      2.670      3.691
REMARK  4 active torsions:
REMARK  status: ('A' for Active; 'I' for Inactive)
REMARK    1  A    between atoms: C_2  and  N_1 
REMARK    2  A    between atoms: C_4  and  C_2 
REMARK    3  A    between atoms: C_10  and  C_4 
REMARK    4  A    between atoms: N_7  and  C_6 
ROOT
ATOM      1  C   UNL d   1      33.135  22.608 -22.940  0.00  0.00     0.064 A 
ATOM      2  C   UNL d   1      33.006  23.400 -22.746  0.00  0.00     0.018 A 
ATOM      3  C   UNL d   1      33.241  22.045 -22.345  0.00  0.00     0.018 A 
ATOM      4  C   UNL d   1      33.090  23.061 -21.358  0.00  0.00     0.002 A 
ATOM      5  C   UNL d   1      33.218  22.271 -21.554  0.00  0.00     0.002 A 
ATOM      6  C   UNL d   1      32.984  23.626 -21.954  0.00  0.00     0.002 A 
ENDROOT
BRANCH   4   7
ATOM      7  C   UNL d   1      33.067  23.287 -20.563  0.00  0.00     0.025 C 
BRANCH   7   8
ATOM      8  C   UNL d   1      32.847  22.743 -19.991  0.00  0.00     0.148 C 
BRANCH   8   9
ATOM      9  N   UNL d   1      32.830  22.972 -19.199  0.00  0.00    -0.112 N 
ATOM     10  O   UNL d   1      32.525  23.701 -19.000  0.00  0.00    -0.532 OA
ATOM     11  O   UNL d   1      33.121  22.458 -18.635  0.00  0.00    -0.532 OA
ENDBRANCH   8   9
ENDBRANCH   7   8
ENDBRANCH   4   7
BRANCH   1  12
ATOM     12  N   UNL d   1      33.156  22.389 -23.741  0.00  0.00    -0.301 N 
ATOM     13  C   UNL d   1      33.188  22.975 -24.327  0.00  0.00     0.100 C 
ATOM     14  C   UNL d   1      33.146  21.591 -23.962  0.00  0.00     0.100 C 
ENDBRANCH   1  12
TORSDOF 4
ENDMDL
