MODEL 1
REMARK VINA RESULT:      12.8      0.000      0.000
REMARK  2 active torsions:
REMARK  status: ('A' for Active; 'I' for Inactive)
REMARK    1  A    between atoms: C_12  and  C_9 
REMARK    2  A    between atoms: N_15  and  C_12 
ROOT
ATOM      1  C   UNL d   1      46.219 -18.169  43.807  0.00  0.00     0.176 A 
ATOM      2  C   UNL d   1      46.191 -18.069  42.988  0.00  0.00     0.174 A 
ATOM      3  N   UNL d   1      46.372 -18.930  44.129  0.00  0.00    -0.240 N 
ATOM      4  N   UNL d   1      46.464 -19.470  42.807  0.00  0.00    -0.223 N 
ATOM      5  C   UNL d   1      46.493 -19.572  43.639  0.00  0.00     0.343 A 
ATOM      6  C   UNL d   1      46.315 -18.728  42.479  0.00  0.00     0.289 A 
ATOM      7  N   UNL d   1      46.101 -17.539  44.316  0.00  0.00    -0.206 NA
ATOM      8  N   UNL d   1      45.919 -16.676  43.172  0.00  0.00    -0.217 NA
ATOM      9  C   UNL d   1      45.951 -16.790  44.002  0.00  0.00     0.182 A 
ATOM     10  O   UNL d   1      46.644 -20.325  43.957  0.00  0.00    -0.245 OA
ATOM     11  O   UNL d   1      46.286 -18.628  41.656  0.00  0.00    -0.265 OA
ATOM     12  C   UNL d   1      46.400 -19.031  44.955  0.00  0.00     0.105 C 
ATOM     13  C   UNL d   1      46.593 -20.158  42.281  0.00  0.00     0.107 C 
ENDROOT
BRANCH   9  14
ATOM     14  C   UNL d   1      45.862 -16.304  44.649  0.00  0.00     0.120 C 
BRANCH  14  15
ATOM     15  N   UNL d   1      45.620 -15.549  44.755  0.00  0.00    -0.297 N 
ATOM     16  C   UNL d   1      46.140 -14.938  44.671  0.00  0.00     0.100 C 
ATOM     17  C   UNL d   1      44.852 -15.400  44.946  0.00  0.00     0.100 C 
ENDBRANCH  14  15
ENDBRANCH   9  14
TORSDOF 2
ENDMDL
