MODEL 1
REMARK VINA RESULT:      74.4      0.000      0.000
REMARK  2 active torsions:
REMARK  status: ('A' for Active; 'I' for Inactive)
REMARK       I    between atoms: N_2  and  C_1 
REMARK       I    between atoms: N_3  and  C_1 
REMARK    1  A    between atoms: C_12  and  N_3 
REMARK    2  A    between atoms: C_5  and  N_4 
ROOT
ATOM      1  C   UNL d   1      58.757  48.934  50.140  0.00  0.00     0.339 C 
ATOM      2  N   UNL d   1      59.408  49.041  50.636  0.00  0.00    -0.254 N 
ATOM      3  N   UNL d   1      57.996  49.114  50.406  0.00  0.00    -0.257 N 
ATOM      4  N   UNL d   1      60.719  49.255  51.636  0.00  0.00    -0.286 N 
ATOM      5  O   UNL d   1      58.878  48.645  49.372  0.00  0.00    -0.245 OA
ATOM      6  C   UNL d   1      60.171  48.862  50.373  0.00  0.00     0.104 A 
ATOM      7  C   UNL d   1      59.302  49.331  51.412  0.00  0.00     0.104 A 
ATOM      8  C   UNL d   1      60.822  48.968  50.870  0.00  0.00     0.101 A 
ATOM      9  C   UNL d   1      59.956  49.438  51.910  0.00  0.00     0.101 A 
ATOM     10  C   UNL d   1      57.884  49.399  51.165  0.00  0.00     0.104 C 
ENDROOT
BRANCH   3  11
ATOM     11  C   UNL d   1      57.342  49.005  49.902  0.00  0.00     0.068 A 
ATOM     12  C   UNL d   1      56.915  48.293  49.922  0.00  0.00     0.018 A 
ATOM     13  C   UNL d   1      56.269  48.196  49.419  0.00  0.00     0.002 A 
ATOM     14  C   UNL d   1      56.047  48.801  48.899  0.00  0.00     0.000 A 
ATOM     15  C   UNL d   1      56.483  49.507  48.890  0.00  0.00     0.002 A 
ATOM     16  C   UNL d   1      57.129  49.607  49.392  0.00  0.00     0.018 A 
ENDBRANCH   3  11
BRANCH   4  17
ATOM     17  C   UNL d   1      61.369  49.362  52.133  0.00  0.00     0.148 A 
ATOM     18  N   UNL d   1      62.111  49.459  51.804  0.00  0.00    -0.227 NA
ATOM     19  C   UNL d   1      62.759  49.565  52.298  0.00  0.00     0.101 A 
ATOM     20  C   UNL d   1      62.664  49.573  53.105  0.00  0.00     0.021 A 
ATOM     21  C   UNL d   1      61.913  49.474  53.426  0.00  0.00     0.005 A 
ATOM     22  C   UNL d   1      61.272  49.369  52.937  0.00  0.00     0.037 A 
ENDBRANCH   4  17
TORSDOF 2
ENDMDL
MODEL 2
REMARK VINA RESULT:      75.8      2.941      4.165
REMARK  2 active torsions:
REMARK  status: ('A' for Active; 'I' for Inactive)
REMARK       I    between atoms: N_2  and  C_1 
REMARK       I    between atoms: N_3  and  C_1 
REMARK    1  A    between atoms: C_12  and  N_3 
REMARK    2  A    between atoms: C_5  and  N_4 
ROOT
ATOM      1  C   UNL d   1      58.735  49.445  54.026  0.00  0.00     0.339 C 
ATOM      2  N   UNL d   1      59.100  49.475  53.287  0.00  0.00    -0.254 N 
ATOM      3  N   UNL d   1      57.918  49.548  54.092  0.00  0.00    -0.257 N 
ATOM      4  N   UNL d   1      59.835  49.536  51.796  0.00  0.00    -0.286 N 
ATOM      5  O   UNL d   1      59.199  49.311  54.701  0.00  0.00    -0.245 OA
ATOM      6  C   UNL d   1      59.917  49.373  53.216  0.00  0.00     0.104 A 
ATOM      7  C   UNL d   1      58.646  49.610  52.599  0.00  0.00     0.104 A 
ATOM      8  C   UNL d   1      60.282  49.403  52.477  0.00  0.00     0.101 A 
ATOM      9  C   UNL d   1      59.013  49.640  51.856  0.00  0.00     0.101 A 
ATOM     10  C   UNL d   1      57.465  49.680  53.423  0.00  0.00     0.104 C 
ENDROOT
BRANCH   3  11
ATOM     11  C   UNL d   1      57.553  49.517  54.841  0.00  0.00     0.068 A 
ATOM     12  C   UNL d   1      57.998  49.662  55.526  0.00  0.00     0.018 A 
ATOM     13  C   UNL d   1      57.627  49.629  56.262  0.00  0.00     0.002 A 
ATOM     14  C   UNL d   1      56.820  49.452  56.318  0.00  0.00     0.000 A 
ATOM     15  C   UNL d   1      56.389  49.309  55.624  0.00  0.00     0.002 A 
ATOM     16  C   UNL d   1      56.757  49.342  54.887  0.00  0.00     0.018 A 
ENDBRANCH   3  11
BRANCH   4  17
ATOM     17  C   UNL d   1      60.200  49.566  51.057  0.00  0.00     0.148 A 
ATOM     18  N   UNL d   1      59.740  49.656  50.387  0.00  0.00    -0.227 NA
ATOM     19  C   UNL d   1      60.103  49.686  49.651  0.00  0.00     0.101 A 
ATOM     20  C   UNL d   1      60.910  49.627  49.588  0.00  0.00     0.021 A 
ATOM     21  C   UNL d   1      61.365  49.537  50.268  0.00  0.00     0.005 A 
ATOM     22  C   UNL d   1      61.006  49.508  50.997  0.00  0.00     0.037 A 
ENDBRANCH   4  17
TORSDOF 2
ENDMDL
