MODEL 1
REMARK VINA RESULT:      34.7      0.000      0.000
REMARK  2 active torsions:
REMARK  status: ('A' for Active; 'I' for Inactive)
REMARK    1  A    between atoms: C_9  and  C_3 
REMARK    2  A    between atoms: C_12  and  N_4 
ROOT
ATOM      1  C   UNL d   1      14.336  13.204  -1.413  0.00  0.00     0.035 A 
ATOM      2  C   UNL d   1      14.136  13.373  -2.195  0.00  0.00     0.065 A 
ATOM      3  C   UNL d   1      14.115  12.431  -1.256  0.00  0.00     0.166 A 
ATOM      4  N   UNL d   1      13.790  12.699  -2.515  0.00  0.00    -0.233 N 
ATOM      5  N   UNL d   1      13.777  12.119  -1.935  0.00  0.00    -0.159 NA
ATOM      6  C   UNL d   1      14.407  14.049  -2.099  0.00  0.00     0.057 A 
ATOM      7  C   UNL d   1      14.643  13.934  -1.270  0.00  0.00    -0.020 A 
ATOM      8  C   UNL d   1      14.965  14.279  -0.669  0.00  0.00     0.027 A 
ATOM      9  C   UNL d   1      14.461  14.669  -2.598  0.00  0.00    -0.021 A 
ATOM     10  C   UNL d   1      14.652  14.530  -1.877  0.00  0.00    -0.008 A 
ATOM     11  C   UNL d   1      14.174  14.058  -2.808  0.00  0.00     0.011 C 
ATOM     12  C   UNL d   1      15.055  13.920  -0.019  0.00  0.00     0.005 C 
ATOM     13  C   UNL d   1      15.282  14.888  -0.366  0.00  0.00     0.005 C 
ENDROOT
BRANCH   4  14
ATOM     14  C   UNL d   1      13.499  12.619  -3.304  0.00  0.00     0.083 A 
ATOM     15  C   UNL d   1      13.599  11.882  -3.715  0.00  0.00     0.019 A 
ATOM     16  C   UNL d   1      13.308  11.807  -4.499  0.00  0.00     0.002 A 
ATOM     17  C   UNL d   1      12.922  12.452  -4.873  0.00  0.00     0.000 A 
ATOM     18  C   UNL d   1      12.824  13.189  -4.458  0.00  0.00     0.002 A 
ATOM     19  C   UNL d   1      13.116  13.260  -3.674  0.00  0.00     0.019 A 
ENDBRANCH   4  14
BRANCH   3  20
ATOM     20  C   UNL d   1      14.216  12.031  -0.524  0.00  0.00     0.231 C 
ATOM     21  O   UNL d   1      14.985  11.780  -0.271  0.00  0.00    -0.643 OA
ATOM     22  O   UNL d   1      13.542  11.877  -0.036  0.00  0.00    -0.643 OA
ENDBRANCH   3  20
TORSDOF 2
ENDMDL
