MODEL 1
REMARK VINA RESULT:      -2.7      0.000      0.000
REMARK  4 active torsions:
REMARK  status: ('A' for Active; 'I' for Inactive)
REMARK    1  A    between atoms: C_6  and  C_2 
REMARK    2  A    between atoms: C_8  and  C_6 
REMARK    3  A    between atoms: C_7  and  C_9 
REMARK    4  A    between atoms: C_9  and  C_8 
ROOT
ATOM      1  C   UNL d   1      32.321  17.306 -23.866  0.00  0.00     0.006 C 
ENDROOT
BRANCH   1   2
ATOM      2  C   UNL d   1      32.632  18.050 -23.716  0.00  0.00     0.039 A 
ATOM      3  C   UNL d   1      32.894  18.650 -24.216  0.00  0.00     0.103 A 
ATOM      4  N   UNL d   1      33.149  19.277 -23.749  0.00  0.00    -0.165 NA
ATOM      5  C   UNL d   1      32.879  18.580 -25.039  0.00  0.00     0.022 C 
ATOM      6  N   UNL d   1      33.046  19.066 -22.966  0.00  0.00    -0.225 N 
ATOM      7  C   UNL d   1      32.727  18.310 -22.943  0.00  0.00     0.102 A 
ATOM      8  C   UNL d   1      33.234  19.541 -22.317  0.00  0.00     0.121 C 
ENDBRANCH   1   2
BRANCH   1   9
ATOM      9  C   UNL d   1      31.539  17.136 -23.664  0.00  0.00     0.043 C 
BRANCH   9  10
ATOM     10  C   UNL d   1      31.248  16.361 -23.745  0.00  0.00     0.202 C 
ATOM     11  O   UNL d   1      31.774  15.737 -23.842  0.00  0.00    -0.286 OA
BRANCH  10  12
ATOM     12  C   UNL d   1      30.428  16.222 -23.726  0.00  0.00     0.068 A 
ATOM     13  S   UNL d   1      29.689  16.421 -24.025  0.00  0.00    -0.083 SA
ATOM     14  C   UNL d   1      29.126  15.950 -23.648  0.00  0.00     0.035 A 
ATOM     15  C   UNL d   1      29.520  15.458 -23.114  0.00  0.00     0.008 A 
ATOM     16  C   UNL d   1      30.330  15.627 -23.163  0.00  0.00     0.010 A 
ENDBRANCH  10  12
ENDBRANCH   9  10
ENDBRANCH   1   9
TORSDOF 4
ENDMDL
MODEL 2
REMARK VINA RESULT:      -2.5      2.282      3.887
REMARK  4 active torsions:
REMARK  status: ('A' for Active; 'I' for Inactive)
REMARK    1  A    between atoms: C_6  and  C_2 
REMARK    2  A    between atoms: C_8  and  C_6 
REMARK    3  A    between atoms: C_7  and  C_9 
REMARK    4  A    between atoms: C_9  and  C_8 
ROOT
ATOM      1  C   UNL d   1      30.630  17.040 -24.529  0.00  0.00     0.006 C 
ENDROOT
BRANCH   1   2
ATOM      2  C   UNL d   1      29.880  16.789 -24.310  0.00  0.00     0.039 A 
ATOM      3  C   UNL d   1      29.128  17.060 -24.509  0.00  0.00     0.103 A 
ATOM      4  N   UNL d   1      28.578  16.589 -24.118  0.00  0.00    -0.165 NA
ATOM      5  C   UNL d   1      29.006  17.699 -25.019  0.00  0.00     0.022 C 
ATOM      6  N   UNL d   1      28.987  16.033 -23.682  0.00  0.00    -0.225 N 
ATOM      7  C   UNL d   1      29.790  16.154 -23.798  0.00  0.00     0.102 A 
ATOM      8  C   UNL d   1      28.640  15.453 -23.208  0.00  0.00     0.121 C 
ENDBRANCH   1   2
BRANCH   1   9
ATOM      9  C   UNL d   1      31.200  17.195 -23.953  0.00  0.00     0.043 C 
BRANCH   9  10
ATOM     10  C   UNL d   1      31.941  17.502 -24.173  0.00  0.00     0.202 C 
ATOM     11  O   UNL d   1      32.173  17.479 -24.960  0.00  0.00    -0.286 OA
BRANCH  10  12
ATOM     12  C   UNL d   1      32.442  17.829 -23.595  0.00  0.00     0.068 A 
ATOM     13  S   UNL d   1      32.874  17.704 -22.907  0.00  0.00    -0.083 SA
ATOM     14  C   UNL d   1      33.241  18.414 -22.703  0.00  0.00     0.035 A 
ATOM     15  C   UNL d   1      33.034  18.980 -23.268  0.00  0.00     0.008 A 
ATOM     16  C   UNL d   1      32.537  18.616 -23.822  0.00  0.00     0.010 A 
ENDBRANCH  10  12
ENDBRANCH   9  10
ENDBRANCH   1   9
TORSDOF 4
ENDMDL
MODEL 3
REMARK VINA RESULT:      -2.2      2.175      3.357
REMARK  4 active torsions:
REMARK  status: ('A' for Active; 'I' for Inactive)
REMARK    1  A    between atoms: C_6  and  C_2 
REMARK    2  A    between atoms: C_8  and  C_6 
REMARK    3  A    between atoms: C_7  and  C_9 
REMARK    4  A    between atoms: C_9  and  C_8 
ROOT
ATOM      1  C   UNL d   1      33.228  19.812 -22.095  0.00  0.00     0.006 C 
ENDROOT
BRANCH   1   2
ATOM      2  C   UNL d   1      33.222  20.629 -22.013  0.00  0.00     0.039 A 
ATOM      3  C   UNL d   1      33.200  21.117 -21.349  0.00  0.00     0.103 A 
ATOM      4  N   UNL d   1      33.204  21.897 -21.608  0.00  0.00    -0.165 NA
ATOM      5  C   UNL d   1      33.177  20.819 -20.579  0.00  0.00     0.022 C 
ATOM      6  N   UNL d   1      33.229  21.892 -22.425  0.00  0.00    -0.225 N 
ATOM      7  C   UNL d   1      33.240  21.111 -22.677  0.00  0.00     0.102 A 
ATOM      8  C   UNL d   1      33.241  22.564 -22.905  0.00  0.00     0.121 C 
ENDBRANCH   1   2
BRANCH   1   9
ATOM      9  C   UNL d   1      33.125  19.470 -22.838  0.00  0.00     0.043 C 
BRANCH   9  10
ATOM     10  C   UNL d   1      33.030  18.647 -22.907  0.00  0.00     0.202 C 
ATOM     11  O   UNL d   1      33.232  18.159 -22.278  0.00  0.00    -0.286 OA
BRANCH  10  12
ATOM     12  C   UNL d   1      32.730  18.322 -23.612  0.00  0.00     0.068 A 
ATOM     13  S   UNL d   1      32.644  18.402 -24.426  0.00  0.00    -0.083 SA
ATOM     14  C   UNL d   1      32.225  17.748 -24.704  0.00  0.00     0.035 A 
ATOM     15  C   UNL d   1      32.052  17.262 -24.059  0.00  0.00     0.008 A 
ATOM     16  C   UNL d   1      32.366  17.618 -23.380  0.00  0.00     0.010 A 
ENDBRANCH  10  12
ENDBRANCH   9  10
ENDBRANCH   1   9
TORSDOF 4
ENDMDL
MODEL 4
REMARK VINA RESULT:      -2.2      3.471      5.310
REMARK  4 active torsions:
REMARK  status: ('A' for Active; 'I' for Inactive)
REMARK    1  A    between atoms: C_6  and  C_2 
REMARK    2  A    between atoms: C_8  and  C_6 
REMARK    3  A    between atoms: C_7  and  C_9 
REMARK    4  A    between atoms: C_9  and  C_8 
ROOT
ATOM      1  C   UNL d   1      33.022  20.153 -21.787  0.00  0.00     0.006 C 
ENDROOT
BRANCH   1   2
ATOM      2  C   UNL d   1      33.056  19.867 -22.556  0.00  0.00     0.039 A 
ATOM      3  C   UNL d   1      33.016  19.103 -22.862  0.00  0.00     0.103 A 
ATOM      4  N   UNL d   1      33.081  19.154 -23.681  0.00  0.00    -0.165 NA
ATOM      5  C   UNL d   1      32.927  18.436 -22.383  0.00  0.00     0.022 C 
ATOM      6  N   UNL d   1      33.160  19.943 -23.878  0.00  0.00    -0.225 N 
ATOM      7  C   UNL d   1      33.145  20.385 -23.186  0.00  0.00     0.102 A 
ATOM      8  C   UNL d   1      33.241  20.235 -24.646  0.00  0.00     0.121 C 
ENDBRANCH   1   2
BRANCH   1   9
ATOM      9  C   UNL d   1      32.912  20.959 -21.651  0.00  0.00     0.043 C 
BRANCH   9  10
ATOM     10  C   UNL d   1      32.926  21.255 -20.873  0.00  0.00     0.202 C 
ATOM     11  O   UNL d   1      33.190  20.775 -20.261  0.00  0.00    -0.286 OA
BRANCH  10  12
ATOM     12  C   UNL d   1      32.674  22.033 -20.721  0.00  0.00     0.068 A 
ATOM     13  S   UNL d   1      32.233  22.677 -20.978  0.00  0.00    -0.083 SA
ATOM     14  C   UNL d   1      32.306  23.277 -20.417  0.00  0.00     0.035 A 
ATOM     15  C   UNL d   1      32.795  23.002 -19.811  0.00  0.00     0.008 A 
ATOM     16  C   UNL d   1      33.024  22.228 -19.999  0.00  0.00     0.010 A 
ENDBRANCH  10  12
ENDBRANCH   9  10
ENDBRANCH   1   9
TORSDOF 4
ENDMDL
MODEL 5
REMARK VINA RESULT:      -1.6      3.795      5.262
REMARK  4 active torsions:
REMARK  status: ('A' for Active; 'I' for Inactive)
REMARK    1  A    between atoms: C_6  and  C_2 
REMARK    2  A    between atoms: C_8  and  C_6 
REMARK    3  A    between atoms: C_7  and  C_9 
REMARK    4  A    between atoms: C_9  and  C_8 
ROOT
ATOM      1  C   UNL d   1      32.344  21.645 -20.930  0.00  0.00     0.006 C 
ENDROOT
BRANCH   1   2
ATOM      2  C   UNL d   1      32.481  22.390 -20.614  0.00  0.00     0.039 A 
ATOM      3  C   UNL d   1      32.317  23.147 -20.895  0.00  0.00     0.103 A 
ATOM      4  N   UNL d   1      32.583  23.689 -20.336  0.00  0.00    -0.165 NA
ATOM      5  C   UNL d   1      31.947  23.281 -21.622  0.00  0.00     0.022 C 
ATOM      6  N   UNL d   1      32.909  23.270 -19.715  0.00  0.00    -0.225 N 
ATOM      7  C   UNL d   1      32.848  22.468 -19.884  0.00  0.00     0.102 A 
ATOM      8  C   UNL d   1      33.241  23.605 -19.037  0.00  0.00     0.121 C 
ENDBRANCH   1   2
BRANCH   1   9
ATOM      9  C   UNL d   1      32.859  21.334 -21.495  0.00  0.00     0.043 C 
BRANCH   9  10
ATOM     10  C   UNL d   1      32.932  20.510 -21.581  0.00  0.00     0.202 C 
ATOM     11  O   UNL d   1      32.884  20.026 -20.920  0.00  0.00    -0.286 OA
BRANCH  10  12
ATOM     12  C   UNL d   1      33.053  20.182 -22.336  0.00  0.00     0.068 A 
ATOM     13  S   UNL d   1      33.216  20.320 -23.129  0.00  0.00    -0.083 SA
ATOM     14  C   UNL d   1      33.237  19.592 -23.517  0.00  0.00     0.035 A 
ATOM     15  C   UNL d   1      33.087  19.001 -22.959  0.00  0.00     0.008 A 
ATOM     16  C   UNL d   1      32.972  19.368 -22.225  0.00  0.00     0.010 A 
ENDBRANCH  10  12
ENDBRANCH   9  10
ENDBRANCH   1   9
TORSDOF 4
ENDMDL
MODEL 6
REMARK VINA RESULT:       0.2      5.221      7.279
REMARK  4 active torsions:
REMARK  status: ('A' for Active; 'I' for Inactive)
REMARK    1  A    between atoms: C_6  and  C_2 
REMARK    2  A    between atoms: C_8  and  C_6 
REMARK    3  A    between atoms: C_7  and  C_9 
REMARK    4  A    between atoms: C_9  and  C_8 
ROOT
ATOM      1  C   UNL d   1      32.469  22.322 -19.946  0.00  0.00     0.006 C 
ENDROOT
BRANCH   1   2
ATOM      2  C   UNL d   1      32.667  22.076 -20.704  0.00  0.00     0.039 A 
ATOM      3  C   UNL d   1      32.781  22.491 -21.406  0.00  0.00     0.103 A 
ATOM      4  N   UNL d   1      32.972  21.948 -21.994  0.00  0.00    -0.165 NA
ATOM      5  C   UNL d   1      32.704  23.312 -21.455  0.00  0.00     0.022 C 
ATOM      6  N   UNL d   1      32.975  21.203 -21.657  0.00  0.00    -0.225 N 
ATOM      7  C   UNL d   1      32.787  21.279 -20.861  0.00  0.00     0.102 A 
ATOM      8  C   UNL d   1      33.141  20.501 -22.058  0.00  0.00     0.121 C 
ENDBRANCH   1   2
BRANCH   1   9
ATOM      9  C   UNL d   1      33.059  22.432 -19.380  0.00  0.00     0.043 C 
BRANCH   9  10
ATOM     10  C   UNL d   1      32.922  22.932 -18.729  0.00  0.00     0.202 C 
ATOM     11  O   UNL d   1      32.668  23.702 -18.854  0.00  0.00    -0.286 OA
BRANCH  10  12
ATOM     12  C   UNL d   1      33.044  22.648 -17.957  0.00  0.00     0.068 A 
ATOM     13  S   UNL d   1      33.136  21.993 -17.470  0.00  0.00    -0.083 SA
ATOM     14  C   UNL d   1      33.239  22.261 -16.697  0.00  0.00     0.035 A 
ATOM     15  C   UNL d   1      33.211  23.086 -16.706  0.00  0.00     0.008 A 
ATOM     16  C   UNL d   1      33.089  23.327 -17.490  0.00  0.00     0.010 A 
ENDBRANCH  10  12
ENDBRANCH   9  10
ENDBRANCH   1   9
TORSDOF 4
ENDMDL
