MODEL 1
REMARK VINA RESULT:       0.3      0.000      0.000
REMARK  3 active torsions:
REMARK  status: ('A' for Active; 'I' for Inactive)
REMARK    1  A    between atoms: C_7  and  N_1 
REMARK    2  A    between atoms: C_11  and  C_4 
REMARK    3  A    between atoms: C_9  and  C_7 
ROOT
ATOM      1  N   UNL d   1      57.774   0.207  31.495  0.00  0.00    -0.252 N 
ATOM      2  C   UNL d   1      57.978   0.365  32.308  0.00  0.00     0.354 A 
ATOM      3  C   UNL d   1      59.165   0.372  31.168  0.00  0.00     0.035 A 
ATOM      4  C   UNL d   1      58.376   0.213  30.932  0.00  0.00     0.070 A 
ATOM      5  N   UNL d   1      58.765   0.519  32.513  0.00  0.00    -0.192 NA
ATOM      6  C   UNL d   1      59.367   0.525  31.950  0.00  0.00     0.087 A 
ATOM      7  C   UNL d   1      59.741   0.369  30.580  0.00  0.00     0.010 A 
ATOM      8  O   UNL d   1      57.403   0.368  32.897  0.00  0.00    -0.244 OA
ATOM      9  C   UNL d   1      60.116   0.674  32.165  0.00  0.00     0.020 A 
ATOM     10  C   UNL d   1      60.530   0.522  30.776  0.00  0.00     0.035 A 
ATOM     11  C   UNL d   1      60.723   0.681  31.608  0.00  0.00     0.008 A 
ATOM     12 BR   UNL d   1      61.123   0.519  30.170  0.00  0.00    -0.049 Br
ENDROOT
BRANCH   4  13
ATOM     13  C   UNL d   1      58.224   0.072  30.175  0.00  0.00     0.016 A 
ATOM     14  C   UNL d   1      57.958   0.679  29.691  0.00  0.00     0.001 A 
ATOM     15  C   UNL d   1      57.794   0.544  28.889  0.00  0.00     0.000 A 
ATOM     16  C   UNL d   1      57.900  -0.220  28.566  0.00  0.00     0.000 A 
ATOM     17  C   UNL d   1      58.167  -0.835  29.046  0.00  0.00     0.000 A 
ATOM     18  C   UNL d   1      58.324  -0.700  29.817  0.00  0.00     0.001 A 
ENDBRANCH   4  13
BRANCH   1  19
ATOM     19  C   UNL d   1      56.990   0.048  31.252  0.00  0.00     0.155 C 
BRANCH  19  20
ATOM     20  C   UNL d   1      56.393   0.005  31.822  0.00  0.00     0.230 C 
ATOM     21  O   UNL d   1      56.248  -0.732  32.212  0.00  0.00    -0.643 OA
ATOM     22  O   UNL d   1      55.960   0.679  31.993  0.00  0.00    -0.643 OA
ENDBRANCH  19  20
ENDBRANCH   1  19
TORSDOF 3
ENDMDL
MODEL 2
REMARK VINA RESULT:       1.8      2.665      3.534
REMARK  3 active torsions:
REMARK  status: ('A' for Active; 'I' for Inactive)
REMARK    1  A    between atoms: C_7  and  N_1 
REMARK    2  A    between atoms: C_11  and  C_4 
REMARK    3  A    between atoms: C_9  and  C_7 
ROOT
ATOM      1  N   UNL d   1      59.447  -0.559  29.346  0.00  0.00    -0.252 N 
ATOM      2  C   UNL d   1      59.600   0.234  29.622  0.00  0.00     0.354 A 
ATOM      3  C   UNL d   1      58.358  -0.620  30.284  0.00  0.00     0.035 A 
ATOM      4  C   UNL d   1      58.823  -0.978  29.684  0.00  0.00     0.070 A 
ATOM      5  N   UNL d   1      59.125   0.562  30.215  0.00  0.00    -0.192 NA
ATOM      6  C   UNL d   1      58.501   0.144  30.553  0.00  0.00     0.087 A 
ATOM      7  C   UNL d   1      57.744  -1.068  30.599  0.00  0.00     0.010 A 
ATOM      8  O   UNL d   1      60.214   0.682  29.307  0.00  0.00    -0.244 OA
ATOM      9  C   UNL d   1      58.056   0.474  31.120  0.00  0.00     0.020 A 
ATOM     10  C   UNL d   1      57.264  -0.747  31.193  0.00  0.00     0.035 A 
ATOM     11  C   UNL d   1      57.431   0.062  31.463  0.00  0.00     0.008 A 
ATOM     12 BR   UNL d   1      56.630  -1.208  31.517  0.00  0.00    -0.049 Br
ENDROOT
BRANCH   4  13
ATOM     13  C   UNL d   1      58.655  -1.710  29.455  0.00  0.00     0.016 A 
ATOM     14  C   UNL d   1      58.219  -1.833  28.770  0.00  0.00     0.001 A 
ATOM     15  C   UNL d   1      58.034  -2.600  28.516  0.00  0.00     0.000 A 
ATOM     16  C   UNL d   1      58.293  -3.259  28.960  0.00  0.00     0.000 A 
ATOM     17  C   UNL d   1      58.731  -3.143  29.649  0.00  0.00     0.000 A 
ATOM     18  C   UNL d   1      58.906  -2.402  29.890  0.00  0.00     0.001 A 
ENDBRANCH   4  13
BRANCH   1  19
ATOM     19  C   UNL d   1      59.906  -0.922  28.749  0.00  0.00     0.155 C 
BRANCH  19  20
ATOM     20  C   UNL d   1      60.731  -0.883  28.796  0.00  0.00     0.230 C 
ATOM     21  O   UNL d   1      61.132  -0.222  28.455  0.00  0.00    -0.643 OA
ATOM     22  O   UNL d   1      61.133  -1.489  29.172  0.00  0.00    -0.643 OA
ENDBRANCH  19  20
ENDBRANCH   1  19
TORSDOF 3
ENDMDL
MODEL 3
REMARK VINA RESULT:       2.1      2.348      3.772
REMARK  3 active torsions:
REMARK  status: ('A' for Active; 'I' for Inactive)
REMARK    1  A    between atoms: C_7  and  N_1 
REMARK    2  A    between atoms: C_11  and  C_4 
REMARK    3  A    between atoms: C_9  and  C_7 
ROOT
ATOM      1  N   UNL d   1      57.280   0.274  32.379  0.00  0.00    -0.252 N 
ATOM      2  C   UNL d   1      58.113   0.454  32.335  0.00  0.00     0.354 A 
ATOM      3  C   UNL d   1      57.385   0.377  33.810  0.00  0.00     0.035 A 
ATOM      4  C   UNL d   1      56.925   0.238  33.122  0.00  0.00     0.070 A 
ATOM      5  N   UNL d   1      58.542   0.587  33.031  0.00  0.00    -0.192 NA
ATOM      6  C   UNL d   1      58.187   0.551  33.773  0.00  0.00     0.087 A 
ATOM      7  C   UNL d   1      56.997   0.333  34.534  0.00  0.00     0.010 A 
ATOM      8  O   UNL d   1      58.500   0.498  31.611  0.00  0.00    -0.244 OA
ATOM      9  C   UNL d   1      58.614   0.682  34.428  0.00  0.00     0.020 A 
ATOM     10  C   UNL d   1      57.419   0.465  35.235  0.00  0.00     0.035 A 
ATOM     11  C   UNL d   1      58.266   0.647  35.175  0.00  0.00     0.008 A 
ATOM     12 BR   UNL d   1      57.020   0.419  35.982  0.00  0.00    -0.049 Br
ENDROOT
BRANCH   4  13
ATOM     13  C   UNL d   1      56.161   0.074  33.199  0.00  0.00     0.016 A 
ATOM     14  C   UNL d   1      55.910  -0.707  33.217  0.00  0.00     0.001 A 
ATOM     15  C   UNL d   1      55.106  -0.894  33.298  0.00  0.00     0.000 A 
ATOM     16  C   UNL d   1      54.541  -0.281  33.361  0.00  0.00     0.000 A 
ATOM     17  C   UNL d   1      54.785   0.506  33.343  0.00  0.00     0.000 A 
ATOM     18  C   UNL d   1      55.561   0.681  33.265  0.00  0.00     0.001 A 
ENDBRANCH   4  13
BRANCH   1  19
ATOM     19  C   UNL d   1      56.816   0.133  31.698  0.00  0.00     0.155 C 
BRANCH  19  20
ATOM     20  C   UNL d   1      57.190   0.051  30.965  0.00  0.00     0.230 C 
ATOM     21  O   UNL d   1      57.658  -0.638  30.817  0.00  0.00    -0.643 OA
ATOM     22  O   UNL d   1      57.096   0.641  30.405  0.00  0.00    -0.643 OA
ENDBRANCH  19  20
ENDBRANCH   1  19
TORSDOF 3
ENDMDL
