MODEL 1
REMARK VINA RESULT:      -1.5      0.000      0.000
REMARK  3 active torsions:
REMARK  status: ('A' for Active; 'I' for Inactive)
REMARK    1  A    between atoms: S_3  and  N_1 
REMARK    2  A    between atoms: C_5  and  C_4 
REMARK    3  A    between atoms: C_12  and  C_6 
ROOT
ATOM      1  N   UNL d   1      58.302  -0.397  29.668  0.00  0.00    -0.155 N 
ATOM      2  N   UNL d   1      57.927   0.096  30.198  0.00  0.00    -0.153 NA
ATOM      3  C   UNL d   1      58.433  -1.114  30.027  0.00  0.00     0.098 A 
ATOM      4  C   UNL d   1      57.823  -0.326  30.900  0.00  0.00     0.126 A 
ATOM      5  C   UNL d   1      58.136  -1.074  30.795  0.00  0.00     0.043 A 
ENDROOT
BRANCH   3   6
ATOM      6  C   UNL d   1      58.798  -1.772  29.686  0.00  0.00     0.047 A 
ATOM      7  C   UNL d   1      58.351  -2.434  29.485  0.00  0.00     0.140 A 
ATOM      8  N   UNL d   1      58.716  -3.091  29.145  0.00  0.00    -0.234 NA
ATOM      9 CL   UNL d   1      57.537  -2.441  29.625  0.00  0.00    -0.061 Cl
ATOM     10  C   UNL d   1      59.529  -3.084  29.006  0.00  0.00     0.082 A 
ATOM     11  C   UNL d   1      59.977  -2.422  29.206  0.00  0.00     0.018 A 
ATOM     12  C   UNL d   1      59.894  -3.741  28.665  0.00  0.00     0.018 A 
ATOM     13  C   UNL d   1      59.612  -1.765  29.547  0.00  0.00     0.005 A 
ATOM     14  C   UNL d   1      60.790  -2.415  29.067  0.00  0.00     0.002 A 
ATOM     15  C   UNL d   1      61.133  -3.060  28.736  0.00  0.00     0.000 A 
ATOM     16  C   UNL d   1      60.685  -3.722  28.535  0.00  0.00     0.002 A 
ATOM     17  C   UNL d   1      59.446  -4.404  28.464  0.00  0.00     0.002 C 
ENDBRANCH   3   6
BRANCH   1  18
ATOM     18  S   UNL d   1      58.310   0.171  29.083  0.00  0.00     0.266 S 
ATOM     19  O   UNL d   1      58.981   0.624  28.934  0.00  0.00    -0.203 OA
ATOM     20  O   UNL d   1      57.557   0.147  28.748  0.00  0.00    -0.203 OA
ATOM     21  C   UNL d   1      58.118   0.681  28.463  0.00  0.00     0.165 C 
ENDBRANCH   1  18
BRANCH   4  22
ATOM     22  C   UNL d   1      57.474  -0.049  31.577  0.00  0.00     0.119 A 
ATOM     23  O   UNL d   1      57.826   0.325  32.203  0.00  0.00    -0.304 OA
ATOM     24  C   UNL d   1      57.263   0.508  32.767  0.00  0.00     0.123 A 
ATOM     25  C   UNL d   1      56.539   0.246  32.498  0.00  0.00     0.029 A 
ATOM     26  C   UNL d   1      56.654  -0.104  31.755  0.00  0.00     0.028 A 
ENDBRANCH   4  22
TORSDOF 3
ENDMDL
MODEL 2
REMARK VINA RESULT:      -0.9      2.443      3.796
REMARK  3 active torsions:
REMARK  status: ('A' for Active; 'I' for Inactive)
REMARK    1  A    between atoms: S_3  and  N_1 
REMARK    2  A    between atoms: C_5  and  C_4 
REMARK    3  A    between atoms: C_12  and  C_6 
ROOT
ATOM      1  N   UNL d   1      57.162   0.305  33.254  0.00  0.00    -0.155 N 
ATOM      2  N   UNL d   1      56.605   0.493  33.819  0.00  0.00    -0.153 NA
ATOM      3  C   UNL d   1      56.778   0.070  32.577  0.00  0.00     0.098 A 
ATOM      4  C   UNL d   1      55.860   0.371  33.484  0.00  0.00     0.126 A 
ATOM      5  C   UNL d   1      55.967   0.110  32.717  0.00  0.00     0.043 A 
ENDROOT
BRANCH   3   6
ATOM      6  C   UNL d   1      57.134  -0.167  31.871  0.00  0.00     0.047 A 
ATOM      7  C   UNL d   1      57.055  -0.945  31.611  0.00  0.00     0.140 A 
ATOM      8  N   UNL d   1      57.411  -1.183  30.905  0.00  0.00    -0.234 NA
ATOM      9 CL   UNL d   1      56.619  -1.487  32.056  0.00  0.00    -0.061 Cl
ATOM     10  C   UNL d   1      57.846  -0.641  30.461  0.00  0.00     0.082 A 
ATOM     11  C   UNL d   1      57.925   0.137  30.721  0.00  0.00     0.018 A 
ATOM     12  C   UNL d   1      58.201  -0.879  29.755  0.00  0.00     0.018 A 
ATOM     13  C   UNL d   1      57.570   0.375  31.426  0.00  0.00     0.005 A 
ATOM     14  C   UNL d   1      58.360   0.679  30.276  0.00  0.00     0.002 A 
ATOM     15  C   UNL d   1      58.701   0.435  29.592  0.00  0.00     0.000 A 
ATOM     16  C   UNL d   1      58.622  -0.343  29.332  0.00  0.00     0.002 A 
ATOM     17  C   UNL d   1      58.122  -1.658  29.495  0.00  0.00     0.002 C 
ENDBRANCH   3   6
BRANCH   1  18
ATOM     18  S   UNL d   1      57.784   0.482  33.751  0.00  0.00     0.266 S 
ATOM     19  O   UNL d   1      58.561   0.482  33.480  0.00  0.00    -0.203 OA
ATOM     20  O   UNL d   1      57.439   0.633  34.484  0.00  0.00    -0.203 OA
ATOM     21  C   UNL d   1      58.258   0.682  34.395  0.00  0.00     0.165 C 
ENDBRANCH   1  18
BRANCH   4  22
ATOM     22  C   UNL d   1      55.146   0.489  33.849  0.00  0.00     0.119 A 
ATOM     23  O   UNL d   1      54.997   0.551  34.643  0.00  0.00    -0.304 OA
ATOM     24  C   UNL d   1      54.196   0.668  34.765  0.00  0.00     0.123 A 
ATOM     25  C   UNL d   1      53.828   0.680  34.037  0.00  0.00     0.029 A 
ATOM     26  C   UNL d   1      54.408   0.570  33.455  0.00  0.00     0.028 A 
ENDBRANCH   4  22
TORSDOF 3
ENDMDL
