MODEL 1
REMARK VINA RESULT:      17.5      0.000      0.000
REMARK  5 active torsions:
REMARK  status: ('A' for Active; 'I' for Inactive)
REMARK       I    between atoms: C_2  and  N_1 
REMARK    1  A    between atoms: C_3  and  N_1 
REMARK    2  A    between atoms: C_9  and  C_2 
REMARK    3  A    between atoms: N_6  and  C_3 
REMARK    4  A    between atoms: C_4  and  C_13 
REMARK    5  A    between atoms: C_13  and  N_6 
ROOT
ATOM      1  N   UNL d   1     -56.463 -99.147 -44.119  0.00  0.00    -0.299 N 
ATOM      2  C   UNL d   1     -57.088 -98.930 -44.608  0.00  0.00     0.259 C 
ATOM      3  O   UNL d   1     -56.950 -98.756 -45.405  0.00  0.00    -0.267 OA
ATOM      4  H   UNL d   1     -56.602 -99.322 -43.322  0.00  0.00     0.171 HD
ENDROOT
BRANCH   1   5
ATOM      5  C   UNL d   1     -55.709 -99.194 -44.409  0.00  0.00     0.179 C 
ATOM      6  S   UNL d   1     -55.511 -98.769 -45.091  0.00  0.00    -0.040 SA
BRANCH   5   7
ATOM      7  N   UNL d   1     -55.164 -99.649 -44.034  0.00  0.00    -0.329 N 
ATOM      8  H   UNL d   1     -55.077 -99.591 -43.231  0.00  0.00     0.168 HD
BRANCH   7   9
ATOM      9  C   UNL d   1     -54.711-100.159 -44.461  0.00  0.00     0.099 C 
BRANCH   9  10
ATOM     10  C   UNL d   1     -54.769-100.974 -44.322  0.00  0.00     0.117 A 
ATOM     11  O   UNL d   1     -54.811-101.481 -44.964  0.00  0.00    -0.304 OA
ATOM     12  C   UNL d   1     -54.864-102.241 -44.668  0.00  0.00     0.123 A 
ATOM     13  C   UNL d   1     -54.853-102.191 -43.848  0.00  0.00     0.029 A 
ATOM     14  C   UNL d   1     -54.794-101.401 -43.651  0.00  0.00     0.028 A 
ENDBRANCH   9  10
ENDBRANCH   7   9
ENDBRANCH   5   7
ENDBRANCH   1   5
BRANCH   2  15
ATOM     15  C   UNL d   1     -57.857 -98.885 -44.303  0.00  0.00     0.056 A 
ATOM     16  C   UNL d   1     -57.973 -98.802 -43.489  0.00  0.00     0.005 A 
ATOM     17  C   UNL d   1     -58.747 -98.758 -43.184  0.00  0.00     0.000 A 
ATOM     18  C   UNL d   1     -59.394 -98.796 -43.691  0.00  0.00     0.000 A 
ATOM     19  C   UNL d   1     -59.278 -98.878 -44.506  0.00  0.00     0.000 A 
ATOM     20  C   UNL d   1     -58.515 -98.923 -44.812  0.00  0.00     0.005 A 
ENDBRANCH   2  15
TORSDOF 5
ENDMDL
