MODEL 1
REMARK VINA RESULT:      51.2      0.000      0.000
REMARK  5 active torsions:
REMARK  status: ('A' for Active; 'I' for Inactive)
REMARK    1  A    between atoms: C_6  and  C_1 
REMARK    2  A    between atoms: C_14  and  N_3 
REMARK    3  A    between atoms: O_9  and  C_6 
REMARK    4  A    between atoms: C_15  and  O_9 
REMARK    5  A    between atoms: C_16  and  C_14 
ROOT
ATOM      1  C   UNL d   1      58.705  49.632  50.803  0.00  0.00     0.120 A 
ATOM      2  C   UNL d   1      58.966  49.613  50.020  0.00  0.00     0.177 A 
ATOM      3  N   UNL d   1      59.791  49.613  50.031  0.00  0.00    -0.273 N 
ATOM      4  C   UNL d   1      60.041  49.632  50.815  0.00  0.00     0.167 A 
ATOM      5  C   UNL d   1      59.370  49.644  51.289  0.00  0.00     0.124 A 
ATOM      6  N   UNL d   1      60.790  49.640  51.148  0.00  0.00    -0.225 NA
ATOM      7  N   UNL d   1      59.452  49.663  52.106  0.00  0.00    -0.241 NA
ATOM      8  C   UNL d   1      60.870  49.659  51.965  0.00  0.00     0.101 A 
ATOM      9  C   UNL d   1      60.203  49.671  52.447  0.00  0.00     0.099 A 
ATOM     10  N   UNL d   1      58.494  49.597  49.342  0.00  0.00    -0.128 N 
ATOM     11  C   UNL d   1      61.619  49.667  52.298  0.00  0.00     0.021 A 
ATOM     12  C   UNL d   1      60.288  49.690  53.261  0.00  0.00     0.021 A 
ATOM     13  C   UNL d   1      61.704  49.686  53.126  0.00  0.00     0.002 A 
ATOM     14  C   UNL d   1      61.036  49.698  53.595  0.00  0.00     0.002 A 
ENDROOT
BRANCH   1  15
ATOM     15  C   UNL d   1      57.914  49.638  51.045  0.00  0.00     0.300 C 
ATOM     16  O   UNL d   1      57.735  49.707  51.844  0.00  0.00    -0.259 OA
BRANCH  15  17
ATOM     17  O   UNL d   1      57.305  49.576  50.488  0.00  0.00    -0.303 OA
BRANCH  17  18
ATOM     18  C   UNL d   1      56.686  49.064  50.625  0.00  0.00     0.102 C 
ATOM     19  C   UNL d   1      57.203  48.419  50.623  0.00  0.00     0.030 C 
ATOM     20  C   UNL d   1      56.159  49.702  50.630  0.00  0.00     0.030 C 
ATOM     21  C   UNL d   1      56.043  48.543  50.767  0.00  0.00     0.030 C 
ENDBRANCH  17  18
ENDBRANCH  15  17
ENDBRANCH   1  15
BRANCH   3  22
ATOM     22  C   UNL d   1      60.284  49.597  49.373  0.00  0.00     0.083 C 
BRANCH  22  23
ATOM     23  C   UNL d   1      61.100  49.526  49.480  0.00  0.00     0.019 C 
ATOM     24  C   UNL d   1      61.611  49.699  48.851  0.00  0.00     0.002 C 
ENDBRANCH  22  23
ENDBRANCH   3  22
TORSDOF 5
ENDMDL
