MODEL 1
REMARK VINA RESULT:      -7.6      0.000      0.000
REMARK  2 active torsions:
REMARK  status: ('A' for Active; 'I' for Inactive)
REMARK    1  A    between atoms: N_7  and  C_3 
REMARK       I    between atoms: C_8  and  N_7 
REMARK    2  A    between atoms: C_10  and  C_8 
ROOT
ATOM      1  C   UNL d   1     -46.170  12.389  23.292  0.00  0.00     0.343 A 
ATOM      2  N   UNL d   1     -46.735  12.980  23.257  0.00  0.00    -0.241 N 
ATOM      3  C   UNL d   1     -47.529  12.800  23.368  0.00  0.00     0.159 A 
ATOM      4  N   UNL d   1     -46.398  11.609  23.439  0.00  0.00    -0.224 N 
ATOM      5  C   UNL d   1     -47.757  12.020  23.515  0.00  0.00     0.099 A 
ATOM      6  C   UNL d   1     -47.193  11.412  23.552  0.00  0.00     0.271 A 
ATOM      7  O   UNL d   1     -45.371  12.572  23.180  0.00  0.00    -0.245 OA
ATOM      8  O   UNL d   1     -47.418  10.640  23.698  0.00  0.00    -0.266 OA
ATOM      9  C   UNL d   1     -46.507  13.761  23.110  0.00  0.00     0.105 C 
ATOM     10  C   UNL d   1     -45.826  11.011  23.474  0.00  0.00     0.107 C 
ENDROOT
BRANCH   3  11
ATOM     11  N   UNL d   1     -48.101  13.398  23.333  0.00  0.00    -0.190 NA
ATOM     12  C   UNL d   1     -48.800  13.275  22.914  0.00  0.00     0.280 C 
ATOM     13  O   UNL d   1     -48.931  12.557  22.528  0.00  0.00    -0.265 OA
BRANCH  12  14
ATOM     14  C   UNL d   1     -49.368  13.872  22.880  0.00  0.00     0.058 A 
ATOM     15  C   UNL d   1     -49.437  14.313  22.206  0.00  0.00     0.006 A 
ATOM     16  C   UNL d   1     -49.996  14.903  22.167  0.00  0.00     0.012 A 
ATOM     17  C   UNL d   1     -50.495  15.062  22.801  0.00  0.00     0.058 A 
ATOM     18  C   UNL d   1     -50.413  14.593  23.501  0.00  0.00     0.012 A 
ATOM     19 CL   UNL d   1     -51.064  15.661  22.765  0.00  0.00    -0.082 Cl
ATOM     20  C   UNL d   1     -49.855  14.004  23.541  0.00  0.00     0.006 A 
ENDBRANCH  12  14
ENDBRANCH   3  11
TORSDOF 2
ENDMDL
MODEL 2
REMARK VINA RESULT:      -7.1      2.099      4.183
REMARK  2 active torsions:
REMARK  status: ('A' for Active; 'I' for Inactive)
REMARK    1  A    between atoms: N_7  and  C_3 
REMARK       I    between atoms: C_8  and  N_7 
REMARK    2  A    between atoms: C_10  and  C_8 
ROOT
ATOM      1  C   UNL d   1     -49.554  15.078  22.710  0.00  0.00     0.343 A 
ATOM      2  N   UNL d   1     -48.874  14.638  22.829  0.00  0.00    -0.241 N 
ATOM      3  C   UNL d   1     -48.915  13.905  23.199  0.00  0.00     0.159 A 
ATOM      4  N   UNL d   1     -50.284  14.786  22.962  0.00  0.00    -0.224 N 
ATOM      5  C   UNL d   1     -49.646  13.613  23.452  0.00  0.00     0.099 A 
ATOM      6  C   UNL d   1     -50.341  14.051  23.336  0.00  0.00     0.271 A 
ATOM      7  O   UNL d   1     -49.510  15.815  22.336  0.00  0.00    -0.245 OA
ATOM      8  O   UNL d   1     -51.064  13.762  23.586  0.00  0.00    -0.266 OA
ATOM      9  C   UNL d   1     -48.144  14.930  22.576  0.00  0.00     0.105 C 
ATOM     10  C   UNL d   1     -50.971  15.231  22.841  0.00  0.00     0.107 C 
ENDROOT
BRANCH   3  11
ATOM     11  N   UNL d   1     -48.228  13.459  23.321  0.00  0.00    -0.190 NA
ATOM     12  C   UNL d   1     -48.241  12.643  23.210  0.00  0.00     0.280 C 
ATOM     13  O   UNL d   1     -48.940  12.268  22.977  0.00  0.00    -0.265 OA
BRANCH  12  14
ATOM     14  C   UNL d   1     -47.556  12.201  23.331  0.00  0.00     0.058 A 
ATOM     15  C   UNL d   1     -47.620  11.433  23.577  0.00  0.00     0.006 A 
ATOM     16  C   UNL d   1     -46.947  10.992  23.698  0.00  0.00     0.012 A 
ATOM     17  C   UNL d   1     -46.199  11.311  23.575  0.00  0.00     0.058 A 
ATOM     18  C   UNL d   1     -46.145  12.116  23.318  0.00  0.00     0.012 A 
ATOM     19 CL   UNL d   1     -45.513  10.866  23.698  0.00  0.00    -0.082 Cl
ATOM     20  C   UNL d   1     -46.817  12.557  23.197  0.00  0.00     0.006 A 
ENDBRANCH  12  14
ENDBRANCH   3  11
TORSDOF 2
ENDMDL
MODEL 3
REMARK VINA RESULT:      -7.0      2.239      4.164
REMARK  2 active torsions:
REMARK  status: ('A' for Active; 'I' for Inactive)
REMARK    1  A    between atoms: N_7  and  C_3 
REMARK       I    between atoms: C_8  and  N_7 
REMARK    2  A    between atoms: C_10  and  C_8 
ROOT
ATOM      1  C   UNL d   1     -49.857  15.159  23.056  0.00  0.00     0.343 A 
ATOM      2  N   UNL d   1     -49.100  15.026  22.775  0.00  0.00    -0.241 N 
ATOM      3  C   UNL d   1     -48.777  14.271  22.798  0.00  0.00     0.159 A 
ATOM      4  N   UNL d   1     -50.299  14.532  23.363  0.00  0.00    -0.224 N 
ATOM      5  C   UNL d   1     -49.219  13.644  23.106  0.00  0.00     0.099 A 
ATOM      6  C   UNL d   1     -49.988  13.767  23.393  0.00  0.00     0.271 A 
ATOM      7  O   UNL d   1     -50.181  15.920  23.032  0.00  0.00    -0.245 OA
ATOM      8  O   UNL d   1     -50.425  13.147  23.698  0.00  0.00    -0.266 OA
ATOM      9  C   UNL d   1     -48.658  15.653  22.467  0.00  0.00     0.105 C 
ATOM     10  C   UNL d   1     -51.064  14.667  23.647  0.00  0.00     0.107 C 
ENDROOT
BRANCH   3  11
ATOM     11  N   UNL d   1     -48.011  14.136  22.514  0.00  0.00    -0.190 NA
ATOM     12  C   UNL d   1     -47.522  13.590  22.892  0.00  0.00     0.280 C 
ATOM     13  O   UNL d   1     -47.794  13.178  23.553  0.00  0.00    -0.265 OA
BRANCH  12  14
ATOM     14  C   UNL d   1     -46.760  13.458  22.607  0.00  0.00     0.058 A 
ATOM     15  C   UNL d   1     -46.164  13.960  22.825  0.00  0.00     0.006 A 
ATOM     16  C   UNL d   1     -45.410  13.834  22.547  0.00  0.00     0.012 A 
ATOM     17  C   UNL d   1     -45.238  13.203  22.048  0.00  0.00     0.058 A 
ATOM     18  C   UNL d   1     -45.869  12.684  21.827  0.00  0.00     0.012 A 
ATOM     19 CL   UNL d   1     -44.472  13.072  21.764  0.00  0.00    -0.082 Cl
ATOM     20  C   UNL d   1     -46.623  12.810  22.104  0.00  0.00     0.006 A 
ENDBRANCH  12  14
ENDBRANCH   3  11
TORSDOF 2
ENDMDL
MODEL 4
REMARK VINA RESULT:      -6.0      9.257      9.917
REMARK  2 active torsions:
REMARK  status: ('A' for Active; 'I' for Inactive)
REMARK    1  A    between atoms: N_7  and  C_3 
REMARK       I    between atoms: C_8  and  N_7 
REMARK    2  A    between atoms: C_10  and  C_8 
ROOT
ATOM      1  C   UNL d   1     -39.533  15.400  17.931  0.00  0.00     0.343 A 
ATOM      2  N   UNL d   1     -39.222  15.339  18.686  0.00  0.00    -0.241 N 
ATOM      3  C   UNL d   1     -39.557  14.822  19.230  0.00  0.00     0.159 A 
ATOM      4  N   UNL d   1     -40.185  14.942  17.715  0.00  0.00    -0.224 N 
ATOM      5  C   UNL d   1     -40.209  14.363  19.014  0.00  0.00     0.099 A 
ATOM      6  C   UNL d   1     -40.532  14.417  18.251  0.00  0.00     0.271 A 
ATOM      7  O   UNL d   1     -39.195  15.921  17.384  0.00  0.00    -0.245 OA
ATOM      8  O   UNL d   1     -41.178  13.963  18.037  0.00  0.00    -0.266 OA
ATOM      9  C   UNL d   1     -38.570  15.798  18.902  0.00  0.00     0.105 C 
ATOM     10  C   UNL d   1     -40.499  15.004  16.952  0.00  0.00     0.107 C 
ENDROOT
BRANCH   3  11
ATOM     11  N   UNL d   1     -39.243  14.759  19.994  0.00  0.00    -0.190 NA
ATOM     12  C   UNL d   1     -39.743  14.782  20.648  0.00  0.00     0.280 C 
ATOM     13  O   UNL d   1     -40.558  14.868  20.544  0.00  0.00    -0.265 OA
BRANCH  12  14
ATOM     14  C   UNL d   1     -39.428  14.719  21.407  0.00  0.00     0.058 A 
ATOM     15  C   UNL d   1     -39.339  15.388  21.854  0.00  0.00     0.006 A 
ATOM     16  C   UNL d   1     -39.029  15.332  22.604  0.00  0.00     0.012 A 
ATOM     17  C   UNL d   1     -38.803  14.607  22.921  0.00  0.00     0.058 A 
ATOM     18  C   UNL d   1     -38.901  13.915  22.443  0.00  0.00     0.012 A 
ATOM     19 CL   UNL d   1     -38.487  14.547  23.683  0.00  0.00    -0.082 Cl
ATOM     20  C   UNL d   1     -39.210  13.970  21.694  0.00  0.00     0.006 A 
ENDBRANCH  12  14
ENDBRANCH   3  11
TORSDOF 2
ENDMDL
MODEL 5
REMARK VINA RESULT:      -5.7      8.964     10.275
REMARK  2 active torsions:
REMARK  status: ('A' for Active; 'I' for Inactive)
REMARK    1  A    between atoms: N_7  and  C_3 
REMARK       I    between atoms: C_8  and  N_7 
REMARK    2  A    between atoms: C_10  and  C_8 
ROOT
ATOM      1  C   UNL d   1     -38.369  14.474  16.378  0.00  0.00     0.343 A 
ATOM      2  N   UNL d   1     -38.708  14.828  17.034  0.00  0.00    -0.241 N 
ATOM      3  C   UNL d   1     -38.964  14.369  17.666  0.00  0.00     0.159 A 
ATOM      4  N   UNL d   1     -38.283  13.653  16.351  0.00  0.00    -0.224 N 
ATOM      5  C   UNL d   1     -38.877  13.548  17.639  0.00  0.00     0.099 A 
ATOM      6  C   UNL d   1     -38.535  13.178  16.980  0.00  0.00     0.271 A 
ATOM      7  O   UNL d   1     -38.112  14.937  15.743  0.00  0.00    -0.245 OA
ATOM      8  O   UNL d   1     -38.450  12.365  16.953  0.00  0.00    -0.266 OA
ATOM      9  C   UNL d   1     -38.794  15.649  17.061  0.00  0.00     0.105 C 
ATOM     10  C   UNL d   1     -37.940  13.295  15.689  0.00  0.00     0.107 C 
ENDROOT
BRANCH   3  11
ATOM     11  N   UNL d   1     -39.307  14.727  18.329  0.00  0.00    -0.190 NA
ATOM     12  C   UNL d   1     -40.049  14.482  18.592  0.00  0.00     0.280 C 
ATOM     13  O   UNL d   1     -40.451  13.880  18.194  0.00  0.00    -0.265 OA
BRANCH  12  14
ATOM     14  C   UNL d   1     -40.388  14.840  19.252  0.00  0.00     0.058 A 
ATOM     15  C   UNL d   1     -40.771  15.547  19.165  0.00  0.00     0.006 A 
ATOM     16  C   UNL d   1     -41.109  15.904  19.814  0.00  0.00     0.012 A 
ATOM     17  C   UNL d   1     -41.069  15.561  20.560  0.00  0.00     0.058 A 
ATOM     18  C   UNL d   1     -40.665  14.821  20.639  0.00  0.00     0.012 A 
ATOM     19 CL   UNL d   1     -41.410  15.922  21.221  0.00  0.00    -0.082 Cl
ATOM     20  C   UNL d   1     -40.328  14.463  19.991  0.00  0.00     0.006 A 
ENDBRANCH  12  14
ENDBRANCH   3  11
TORSDOF 2
ENDMDL
MODEL 6
REMARK VINA RESULT:      -5.4      2.410      4.500
REMARK  2 active torsions:
REMARK  status: ('A' for Active; 'I' for Inactive)
REMARK    1  A    between atoms: N_7  and  C_3 
REMARK       I    between atoms: C_8  and  N_7 
REMARK    2  A    between atoms: C_10  and  C_8 
ROOT
ATOM      1  C   UNL d   1     -48.525  13.416  23.225  0.00  0.00     0.343 A 
ATOM      2  N   UNL d   1     -47.744  13.171  23.247  0.00  0.00    -0.241 N 
ATOM      3  C   UNL d   1     -47.561  12.386  23.408  0.00  0.00     0.159 A 
ATOM      4  N   UNL d   1     -49.131  12.873  23.364  0.00  0.00    -0.224 N 
ATOM      5  C   UNL d   1     -48.168  11.843  23.547  0.00  0.00     0.099 A 
ATOM      6  C   UNL d   1     -48.963  12.080  23.527  0.00  0.00     0.271 A 
ATOM      7  O   UNL d   1     -48.708  14.206  23.062  0.00  0.00    -0.245 OA
ATOM      8  O   UNL d   1     -49.564  11.542  23.666  0.00  0.00    -0.266 OA
ATOM      9  C   UNL d   1     -47.138  13.714  23.107  0.00  0.00     0.105 C 
ATOM     10  C   UNL d   1     -49.921  13.120  23.342  0.00  0.00     0.107 C 
ENDROOT
BRANCH   3  11
ATOM     11  N   UNL d   1     -46.771  12.138  23.430  0.00  0.00    -0.190 NA
ATOM     12  C   UNL d   1     -46.586  11.342  23.325  0.00  0.00     0.280 C 
ATOM     13  O   UNL d   1     -47.188  10.791  23.197  0.00  0.00    -0.265 OA
BRANCH  12  14
ATOM     14  C   UNL d   1     -45.800  11.097  23.348  0.00  0.00     0.058 A 
ATOM     15  C   UNL d   1     -45.619  10.379  23.673  0.00  0.00     0.006 A 
ATOM     16  C   UNL d   1     -44.844  10.132  23.698  0.00  0.00     0.012 A 
ATOM     17  C   UNL d   1     -44.236  10.599  23.399  0.00  0.00     0.058 A 
ATOM     18  C   UNL d   1     -44.438  11.349  23.062  0.00  0.00     0.012 A 
ATOM     19 CL   UNL d   1     -43.448  10.351  23.424  0.00  0.00    -0.082 Cl
ATOM     20  C   UNL d   1     -45.212  11.596  23.036  0.00  0.00     0.006 A 
ENDBRANCH  12  14
ENDBRANCH   3  11
TORSDOF 2
ENDMDL
MODEL 7
REMARK VINA RESULT:      -5.3      9.187      9.527
REMARK  2 active torsions:
REMARK  status: ('A' for Active; 'I' for Inactive)
REMARK    1  A    between atoms: N_7  and  C_3 
REMARK       I    between atoms: C_8  and  N_7 
REMARK    2  A    between atoms: C_10  and  C_8 
ROOT
ATOM      1  C   UNL d   1     -38.419  14.185  21.871  0.00  0.00     0.343 A 
ATOM      2  N   UNL d   1     -38.626  14.258  21.082  0.00  0.00    -0.241 N 
ATOM      3  C   UNL d   1     -39.102  14.881  20.836  0.00  0.00     0.159 A 
ATOM      4  N   UNL d   1     -38.689  14.739  22.421  0.00  0.00    -0.224 N 
ATOM      5  C   UNL d   1     -39.373  15.434  21.386  0.00  0.00     0.099 A 
ATOM      6  C   UNL d   1     -39.169  15.370  22.188  0.00  0.00     0.271 A 
ATOM      7  O   UNL d   1     -37.940  13.558  22.118  0.00  0.00    -0.245 OA
ATOM      8  O   UNL d   1     -39.437  15.919  22.733  0.00  0.00    -0.266 OA
ATOM      9  C   UNL d   1     -38.356  13.704  20.532  0.00  0.00     0.105 C 
ATOM     10  C   UNL d   1     -38.480  14.665  23.218  0.00  0.00     0.107 C 
ENDROOT
BRANCH   3  11
ATOM     11  N   UNL d   1     -39.312  14.955  20.038  0.00  0.00    -0.190 NA
ATOM     12  C   UNL d   1     -40.105  15.028  19.825  0.00  0.00     0.280 C 
ATOM     13  O   UNL d   1     -40.691  15.028  20.407  0.00  0.00    -0.265 OA
BRANCH  12  14
ATOM     14  C   UNL d   1     -40.311  15.102  19.031  0.00  0.00     0.058 A 
ATOM     15  C   UNL d   1     -40.516  14.440  18.613  0.00  0.00     0.006 A 
ATOM     16  C   UNL d   1     -40.720  14.507  17.828  0.00  0.00     0.012 A 
ATOM     17  C   UNL d   1     -40.724  15.236  17.448  0.00  0.00     0.058 A 
ATOM     18  C   UNL d   1     -40.508  15.922  17.896  0.00  0.00     0.012 A 
ATOM     19 CL   UNL d   1     -40.931  15.308  16.650  0.00  0.00    -0.082 Cl
ATOM     20  C   UNL d   1     -40.303  15.856  18.679  0.00  0.00     0.006 A 
ENDBRANCH  12  14
ENDBRANCH   3  11
TORSDOF 2
ENDMDL
