MODEL 1
REMARK VINA RESULT:      -8.6      0.000      0.000
REMARK  4 active torsions:
REMARK  status: ('A' for Active; 'I' for Inactive)
REMARK    1  A    between atoms: N_7  and  S_1 
REMARK    2  A    between atoms: C_11  and  S_1 
REMARK    3  A    between atoms: C_14  and  N_7 
REMARK    4  A    between atoms: C_13  and  C_14 
ROOT
ATOM      1  N   UNL d   1      49.280  34.921  52.460  0.00  0.00    -0.304 N 
ATOM      2  C   UNL d   1      49.099  34.729  51.673  0.00  0.00     0.064 A 
ATOM      3  C   UNL d   1      50.021  34.597  52.636  0.00  0.00     0.064 A 
ATOM      4  C   UNL d   1      50.295  34.208  51.962  0.00  0.00     0.018 A 
ATOM      5  C   UNL d   1      49.728  34.290  51.373  0.00  0.00     0.019 A 
ATOM      6  C   UNL d   1      50.476  34.609  53.323  0.00  0.00     0.018 A 
ATOM      7  C   UNL d   1      51.032  33.826  51.975  0.00  0.00     0.003 A 
ATOM      8  C   UNL d   1      51.485  33.839  52.662  0.00  0.00     0.020 A 
ATOM      9  C   UNL d   1      51.207  34.231  53.337  0.00  0.00     0.003 A 
ATOM     10  C   UNL d   1      48.810  35.354  52.971  0.00  0.00     0.099 C 
ATOM     11  C   UNL d   1      48.410  34.944  51.273  0.00  0.00     0.019 C 
ENDROOT
BRANCH   8  12
ATOM     12  C   UNL d   1      52.220  33.457  52.670  0.00  0.00     0.112 C 
BRANCH  12  13
ATOM     13  N   UNL d   1      52.546  33.210  53.393  0.00  0.00    -0.157 NA
BRANCH  13  14
ATOM     14  S   UNL d   1      53.296  32.870  53.413  0.00  0.00     0.285 S 
ATOM     15  O   UNL d   1      53.980  32.442  53.242  0.00  0.00    -0.198 OA
ATOM     16  O   UNL d   1      52.954  32.593  52.708  0.00  0.00    -0.198 OA
BRANCH  14  17
ATOM     17  C   UNL d   1      53.805  33.022  54.044  0.00  0.00     0.105 A 
ATOM     18  C   UNL d   1      53.678  32.648  54.759  0.00  0.00     0.013 A 
ATOM     19  C   UNL d   1      54.187  32.800  55.394  0.00  0.00     0.001 A 
ATOM     20  C   UNL d   1      54.819  33.328  55.299  0.00  0.00     0.000 A 
ATOM     21  C   UNL d   1      54.936  33.699  54.573  0.00  0.00     0.001 A 
ATOM     22  C   UNL d   1      54.431  33.548  53.945  0.00  0.00     0.013 A 
ENDBRANCH  14  17
ENDBRANCH  13  14
ENDBRANCH  12  13
ENDBRANCH   8  12
TORSDOF 4
ENDMDL
MODEL 2
REMARK VINA RESULT:      -8.2      2.100      4.658
REMARK  4 active torsions:
REMARK  status: ('A' for Active; 'I' for Inactive)
REMARK    1  A    between atoms: N_7  and  S_1 
REMARK    2  A    between atoms: C_11  and  S_1 
REMARK    3  A    between atoms: C_14  and  N_7 
REMARK    4  A    between atoms: C_13  and  C_14 
ROOT
ATOM      1  N   UNL d   1      53.321  29.852  53.956  0.00  0.00    -0.304 N 
ATOM      2  C   UNL d   1      52.892  29.552  53.312  0.00  0.00     0.064 A 
ATOM      3  C   UNL d   1      53.351  30.676  53.879  0.00  0.00     0.064 A 
ATOM      4  C   UNL d   1      52.943  30.882  53.192  0.00  0.00     0.018 A 
ATOM      5  C   UNL d   1      52.662  30.191  52.847  0.00  0.00     0.019 A 
ATOM      6  C   UNL d   1      53.699  31.259  54.347  0.00  0.00     0.018 A 
ATOM      7  C   UNL d   1      52.881  31.679  52.971  0.00  0.00     0.003 A 
ATOM      8  C   UNL d   1      53.228  32.261  53.440  0.00  0.00     0.020 A 
ATOM      9  C   UNL d   1      53.637  32.050  54.129  0.00  0.00     0.003 A 
ATOM     10  C   UNL d   1      53.656  29.413  54.560  0.00  0.00     0.099 C 
ATOM     11  C   UNL d   1      52.730  28.755  53.174  0.00  0.00     0.019 C 
ENDROOT
BRANCH   8  12
ATOM     12  C   UNL d   1      53.163  33.055  53.215  0.00  0.00     0.112 C 
BRANCH  12  13
ATOM     13  N   UNL d   1      52.500  33.495  53.451  0.00  0.00    -0.157 NA
BRANCH  13  14
ATOM     14  S   UNL d   1      52.296  34.183  53.046  0.00  0.00     0.285 S 
ATOM     15  O   UNL d   1      52.303  34.920  52.675  0.00  0.00    -0.198 OA
ATOM     16  O   UNL d   1      53.103  34.270  53.222  0.00  0.00    -0.198 OA
BRANCH  14  17
ATOM     17  C   UNL d   1      51.523  34.294  52.779  0.00  0.00     0.105 A 
ATOM     18  C   UNL d   1      51.364  34.237  51.980  0.00  0.00     0.013 A 
ATOM     19  C   UNL d   1      50.590  34.348  51.710  0.00  0.00     0.001 A 
ATOM     20  C   UNL d   1      49.984  34.516  52.251  0.00  0.00     0.000 A 
ATOM     21  C   UNL d   1      50.157  34.571  53.055  0.00  0.00     0.001 A 
ATOM     22  C   UNL d   1      50.924  34.461  53.321  0.00  0.00     0.013 A 
ENDBRANCH  14  17
ENDBRANCH  13  14
ENDBRANCH  12  13
ENDBRANCH   8  12
TORSDOF 4
ENDMDL
MODEL 3
REMARK VINA RESULT:      -7.8      1.815      4.954
REMARK  4 active torsions:
REMARK  status: ('A' for Active; 'I' for Inactive)
REMARK    1  A    between atoms: N_7  and  S_1 
REMARK    2  A    between atoms: C_11  and  S_1 
REMARK    3  A    between atoms: C_14  and  N_7 
REMARK    4  A    between atoms: C_13  and  C_14 
ROOT
ATOM      1  N   UNL d   1      53.437  33.586  54.165  0.00  0.00    -0.304 N 
ATOM      2  C   UNL d   1      53.470  32.767  54.033  0.00  0.00     0.064 A 
ATOM      3  C   UNL d   1      52.790  33.885  53.743  0.00  0.00     0.064 A 
ATOM      4  C   UNL d   1      52.427  33.254  53.354  0.00  0.00     0.018 A 
ATOM      5  C   UNL d   1      52.846  32.570  53.534  0.00  0.00     0.019 A 
ATOM      6  C   UNL d   1      52.490  34.648  53.667  0.00  0.00     0.018 A 
ATOM      7  C   UNL d   1      51.757  33.388  52.884  0.00  0.00     0.003 A 
ATOM      8  C   UNL d   1      51.458  34.151  52.809  0.00  0.00     0.020 A 
ATOM      9  C   UNL d   1      51.825  34.783  53.201  0.00  0.00     0.003 A 
ATOM     10  C   UNL d   1      53.952  34.021  54.629  0.00  0.00     0.099 C 
ATOM     11  C   UNL d   1      54.032  32.253  54.351  0.00  0.00     0.019 C 
ENDROOT
BRANCH   8  12
ATOM     12  C   UNL d   1      50.789  34.280  52.339  0.00  0.00     0.112 C 
BRANCH  12  13
ATOM     13  N   UNL d   1      50.097  34.582  52.684  0.00  0.00    -0.157 NA
BRANCH  13  14
ATOM     14  S   UNL d   1      49.428  34.715  52.221  0.00  0.00     0.285 S 
ATOM     15  O   UNL d   1      48.861  34.708  51.622  0.00  0.00    -0.198 OA
ATOM     16  O   UNL d   1      49.890  34.183  51.782  0.00  0.00    -0.198 OA
BRANCH  14  17
ATOM     17  C   UNL d   1      48.835  35.225  52.484  0.00  0.00     0.105 A 
ATOM     18  C   UNL d   1      48.271  35.488  51.956  0.00  0.00     0.013 A 
ATOM     19  C   UNL d   1      47.675  36.000  52.218  0.00  0.00     0.001 A 
ATOM     20  C   UNL d   1      47.656  36.239  53.011  0.00  0.00     0.000 A 
ATOM     21  C   UNL d   1      48.231  35.967  53.535  0.00  0.00     0.001 A 
ATOM     22  C   UNL d   1      48.820  35.460  53.274  0.00  0.00     0.013 A 
ENDBRANCH  14  17
ENDBRANCH  13  14
ENDBRANCH  12  13
ENDBRANCH   8  12
TORSDOF 4
ENDMDL
MODEL 4
REMARK VINA RESULT:      -7.6      1.405      2.184
REMARK  4 active torsions:
REMARK  status: ('A' for Active; 'I' for Inactive)
REMARK    1  A    between atoms: N_7  and  S_1 
REMARK    2  A    between atoms: C_11  and  S_1 
REMARK    3  A    between atoms: C_14  and  N_7 
REMARK    4  A    between atoms: C_13  and  C_14 
ROOT
ATOM      1  N   UNL d   1      47.701  35.861  52.220  0.00  0.00    -0.304 N 
ATOM      2  C   UNL d   1      47.660  36.190  52.981  0.00  0.00     0.064 A 
ATOM      3  C   UNL d   1      48.370  35.374  52.190  0.00  0.00     0.064 A 
ATOM      4  C   UNL d   1      48.739  35.403  52.928  0.00  0.00     0.018 A 
ATOM      5  C   UNL d   1      48.301  35.904  53.411  0.00  0.00     0.019 A 
ATOM      6  C   UNL d   1      48.685  34.911  51.585  0.00  0.00     0.018 A 
ATOM      7  C   UNL d   1      49.430  34.965  53.062  0.00  0.00     0.003 A 
ATOM      8  C   UNL d   1      49.744  34.503  52.458  0.00  0.00     0.020 A 
ATOM      9  C   UNL d   1      49.371  34.476  51.718  0.00  0.00     0.003 A 
ATOM     10  C   UNL d   1      47.174  35.993  51.608  0.00  0.00     0.099 C 
ATOM     11  C   UNL d   1      47.077  36.709  53.247  0.00  0.00     0.019 C 
ENDROOT
BRANCH   8  12
ATOM     12  C   UNL d   1      50.435  34.068  52.597  0.00  0.00     0.112 C 
BRANCH  12  13
ATOM     13  N   UNL d   1      51.144  34.466  52.762  0.00  0.00    -0.157 NA
BRANCH  13  14
ATOM     14  S   UNL d   1      51.839  34.039  52.883  0.00  0.00     0.285 S 
ATOM     15  O   UNL d   1      52.454  33.492  52.838  0.00  0.00    -0.198 OA
ATOM     16  O   UNL d   1      51.458  33.654  52.254  0.00  0.00    -0.198 OA
BRANCH  14  17
ATOM     17  C   UNL d   1      52.367  34.265  53.476  0.00  0.00     0.105 A 
ATOM     18  C   UNL d   1      52.592  33.718  54.040  0.00  0.00     0.013 A 
ATOM     19  C   UNL d   1      53.121  33.943  54.635  0.00  0.00     0.001 A 
ATOM     20  C   UNL d   1      53.417  34.717  54.654  0.00  0.00     0.000 A 
ATOM     21  C   UNL d   1      53.182  35.259  54.080  0.00  0.00     0.001 A 
ATOM     22  C   UNL d   1      52.658  35.035  53.491  0.00  0.00     0.013 A 
ENDBRANCH  14  17
ENDBRANCH  13  14
ENDBRANCH  12  13
ENDBRANCH   8  12
TORSDOF 4
ENDMDL
MODEL 5
REMARK VINA RESULT:      -7.6      2.611      3.871
REMARK  4 active torsions:
REMARK  status: ('A' for Active; 'I' for Inactive)
REMARK    1  A    between atoms: N_7  and  S_1 
REMARK    2  A    between atoms: C_11  and  S_1 
REMARK    3  A    between atoms: C_14  and  N_7 
REMARK    4  A    between atoms: C_13  and  C_14 
ROOT
ATOM      1  N   UNL d   1      53.598  34.735  54.638  0.00  0.00    -0.304 N 
ATOM      2  C   UNL d   1      52.958  35.103  54.260  0.00  0.00     0.064 A 
ATOM      3  C   UNL d   1      53.648  33.959  54.352  0.00  0.00     0.064 A 
ATOM      4  C   UNL d   1      53.043  33.851  53.802  0.00  0.00     0.018 A 
ATOM      5  C   UNL d   1      52.621  34.554  53.748  0.00  0.00     0.019 A 
ATOM      6  C   UNL d   1      54.168  33.343  54.525  0.00  0.00     0.018 A 
ATOM      7  C   UNL d   1      52.956  33.119  53.421  0.00  0.00     0.003 A 
ATOM      8  C   UNL d   1      53.475  32.505  53.594  0.00  0.00     0.020 A 
ATOM      9  C   UNL d   1      54.082  32.617  54.147  0.00  0.00     0.003 A 
ATOM     10  C   UNL d   1      54.093  35.075  55.193  0.00  0.00     0.099 C 
ATOM     11  C   UNL d   1      52.713  35.881  54.384  0.00  0.00     0.019 C 
ENDROOT
BRANCH   8  12
ATOM     12  C   UNL d   1      53.384  31.776  53.211  0.00  0.00     0.112 C 
BRANCH  12  13
ATOM     13  N   UNL d   1      52.995  31.154  53.600  0.00  0.00    -0.157 NA
BRANCH  13  14
ATOM     14  S   UNL d   1      53.051  30.386  53.308  0.00  0.00     0.285 S 
ATOM     15  O   UNL d   1      53.071  29.718  52.825  0.00  0.00    -0.198 OA
ATOM     16  O   UNL d   1      52.909  30.858  52.640  0.00  0.00    -0.198 OA
BRANCH  14  17
ATOM     17  C   UNL d   1      53.193  29.756  53.822  0.00  0.00     0.105 A 
ATOM     18  C   UNL d   1      53.846  29.280  53.700  0.00  0.00     0.013 A 
ATOM     19  C   UNL d   1      53.990  28.648  54.214  0.00  0.00     0.001 A 
ATOM     20  C   UNL d   1      53.473  28.503  54.846  0.00  0.00     0.000 A 
ATOM     21  C   UNL d   1      52.818  28.990  54.958  0.00  0.00     0.001 A 
ATOM     22  C   UNL d   1      52.676  29.616  54.448  0.00  0.00     0.013 A 
ENDBRANCH  14  17
ENDBRANCH  13  14
ENDBRANCH  12  13
ENDBRANCH   8  12
TORSDOF 4
ENDMDL
MODEL 6
REMARK VINA RESULT:      -6.0     10.286     11.171
REMARK  4 active torsions:
REMARK  status: ('A' for Active; 'I' for Inactive)
REMARK    1  A    between atoms: N_7  and  S_1 
REMARK    2  A    between atoms: C_11  and  S_1 
REMARK    3  A    between atoms: C_14  and  N_7 
REMARK    4  A    between atoms: C_13  and  C_14 
ROOT
ATOM      1  N   UNL d   1      44.363  30.371  62.278  0.00  0.00    -0.304 N 
ATOM      2  C   UNL d   1      44.374  31.201  62.268  0.00  0.00     0.064 A 
ATOM      3  C   UNL d   1      44.409  30.108  61.494  0.00  0.00     0.064 A 
ATOM      4  C   UNL d   1      44.448  30.771  61.005  0.00  0.00     0.018 A 
ATOM      5  C   UNL d   1      44.427  31.440  61.482  0.00  0.00     0.019 A 
ATOM      6  C   UNL d   1      44.419  29.350  61.170  0.00  0.00     0.018 A 
ATOM      7  C   UNL d   1      44.498  30.675  60.183  0.00  0.00     0.003 A 
ATOM      8  C   UNL d   1      44.509  29.918  59.860  0.00  0.00     0.020 A 
ATOM      9  C   UNL d   1      44.469  29.254  60.354  0.00  0.00     0.003 A 
ATOM     10  C   UNL d   1      44.315  29.897  62.943  0.00  0.00     0.099 C 
ATOM     11  C   UNL d   1      44.339  31.688  62.933  0.00  0.00     0.019 C 
ENDROOT
BRANCH   8  12
ATOM     12  C   UNL d   1      44.560  29.829  59.038  0.00  0.00     0.112 C 
BRANCH  12  13
ATOM     13  N   UNL d   1      44.965  29.177  58.721  0.00  0.00    -0.157 NA
BRANCH  13  14
ATOM     14  S   UNL d   1      45.016  29.081  57.904  0.00  0.00     0.285 S 
ATOM     15  O   UNL d   1      45.059  29.203  57.090  0.00  0.00    -0.198 OA
ATOM     16  O   UNL d   1      44.979  29.902  58.020  0.00  0.00    -0.198 OA
BRANCH  14  17
ATOM     17  C   UNL d   1      45.063  28.324  57.577  0.00  0.00     0.105 A 
ATOM     18  C   UNL d   1      45.608  27.793  57.875  0.00  0.00     0.013 A 
ATOM     19  C   UNL d   1      45.657  27.034  57.549  0.00  0.00     0.001 A 
ATOM     20  C   UNL d   1      45.154  26.820  56.926  0.00  0.00     0.000 A 
ATOM     21  C   UNL d   1      44.609  27.364  56.634  0.00  0.00     0.001 A 
ATOM     22  C   UNL d   1      44.562  28.115  56.958  0.00  0.00     0.013 A 
ENDBRANCH  14  17
ENDBRANCH  13  14
ENDBRANCH  12  13
ENDBRANCH   8  12
TORSDOF 4
ENDMDL
