MODEL 1
REMARK VINA RESULT:      16.7      0.000      0.000
REMARK  5 active torsions:
REMARK  status: ('A' for Active; 'I' for Inactive)
REMARK    1  A    between atoms: N_2  and  S_1 
REMARK    2  A    between atoms: C_6  and  S_1 
REMARK    3  A    between atoms: C_3  and  N_2 
REMARK    4  A    between atoms: N_7  and  C_3 
REMARK    5  A    between atoms: C_9  and  N_7 
ROOT
ATOM      1  N   UNL d   1      13.462  11.779  -3.144  0.00  0.00    -0.128 NA
ENDROOT
BRANCH   1   2
ATOM      2  S   UNL d   1      13.733  11.809  -2.360  0.00  0.00     0.287 S 
ATOM      3  O   UNL d   1      14.526  11.794  -2.623  0.00  0.00    -0.198 OA
ATOM      4  O   UNL d   1      12.952  11.825  -2.079  0.00  0.00    -0.198 OA
BRANCH   2   5
ATOM      5  C   UNL d   1      14.006  11.840  -1.571  0.00  0.00     0.105 A 
ATOM      6  C   UNL d   1      14.821  11.923  -1.415  0.00  0.00     0.013 A 
ATOM      7  C   UNL d   1      15.090  11.953  -0.637  0.00  0.00     0.001 A 
ATOM      8  C   UNL d   1      14.555  11.901  -0.014  0.00  0.00     0.000 A 
ATOM      9  C   UNL d   1      13.744  11.818  -0.164  0.00  0.00     0.001 A 
ATOM     10  C   UNL d   1      13.474  11.788  -0.944  0.00  0.00     0.013 A 
ENDBRANCH   2   5
ENDBRANCH   1   2
BRANCH   1  11
ATOM     11  C   UNL d   1      13.109  12.157  -3.801  0.00  0.00     0.232 C 
ATOM     12  S   UNL d   1      13.103  11.779  -4.534  0.00  0.00    -0.036 SA
BRANCH  11  13
ATOM     13  N   UNL d   1      12.771  12.905  -3.710  0.00  0.00    -0.217 NA
BRANCH  13  14
ATOM     14  C   UNL d   1      13.004  13.527  -4.203  0.00  0.00     0.084 A 
ATOM     15  C   UNL d   1      13.454  13.372  -4.874  0.00  0.00     0.019 A 
ATOM     16  C   UNL d   1      13.686  13.987  -5.364  0.00  0.00     0.002 A 
ATOM     17  C   UNL d   1      13.473  14.761  -5.189  0.00  0.00     0.000 A 
ATOM     18  C   UNL d   1      13.022  14.919  -4.515  0.00  0.00     0.002 A 
ATOM     19  C   UNL d   1      12.786  14.303  -4.020  0.00  0.00     0.019 A 
ENDBRANCH  13  14
ENDBRANCH  11  13
ENDBRANCH   1  11
TORSDOF 5
ENDMDL
