MODEL 1
REMARK VINA RESULT:      -5.8      0.000      0.000
REMARK  9 active torsions:
REMARK  status: ('A' for Active; 'I' for Inactive)
REMARK    1  A    between atoms: N_3  and  C_1 
REMARK       I    between atoms: C_5  and  N_3 
REMARK    2  A    between atoms: C_9  and  N_3 
REMARK    3  A    between atoms: C_8  and  C_5 
REMARK    4  A    between atoms: C_16  and  C_9 
REMARK    5  A    between atoms: O_18  and  C_12 
REMARK    6  A    between atoms: N_17  and  C_16 
REMARK    7  A    between atoms: C_22  and  N_17 
REMARK    8  A    between atoms: C_23  and  N_17 
REMARK    9  A    between atoms: C_24  and  O_18 
ROOT
ATOM      1  N   UNL d   1      52.656  33.502  53.663  0.00  0.00    -0.250 N 
ATOM      2  C   UNL d   1      53.113  34.067  54.047  0.00  0.00     0.289 C 
ATOM      3  O   UNL d   1      52.959  34.857  53.951  0.00  0.00    -0.264 OA
ENDROOT
BRANCH   1   4
ATOM      4  C   UNL d   1      52.034  33.751  53.175  0.00  0.00     0.182 A 
ATOM      5  N   UNL d   1      51.300  34.074  53.443  0.00  0.00    -0.220 NA
ATOM      6  C   UNL d   1      50.827  34.251  52.755  0.00  0.00     0.112 A 
ATOM      7  C   UNL d   1      50.065  34.574  52.671  0.00  0.00     0.118 A 
ATOM      8  C   UNL d   1      51.273  34.037  52.077  0.00  0.00     0.052 A 
ATOM      9  C   UNL d   1      49.737  34.687  51.912  0.00  0.00     0.026 A 
ATOM     10  C   UNL d   1      50.178  34.474  51.230  0.00  0.00     0.003 A 
ATOM     11  C   UNL d   1      50.951  34.148  51.327  0.00  0.00     0.008 A 
ATOM     12  S   UNL d   1      52.022  33.726  52.327  0.00  0.00    -0.048 SA
BRANCH   7  13
ATOM     13  O   UNL d   1      49.619  34.789  53.356  0.00  0.00    -0.304 OA
BRANCH  13  14
ATOM     14  C   UNL d   1      48.974  35.325  53.287  0.00  0.00     0.123 C 
ATOM     15  C   UNL d   1      48.699  35.592  53.727  0.00  0.00     0.029 C 
ENDBRANCH  13  14
ENDBRANCH   7  13
ENDBRANCH   1   4
BRANCH   1  16
ATOM     16  C   UNL d   1      52.812  32.703  53.760  0.00  0.00     0.104 C 
BRANCH  16  17
ATOM     17  C   UNL d   1      52.603  32.170  53.166  0.00  0.00     0.100 C 
BRANCH  17  18
ATOM     18  N   UNL d   1      52.772  31.373  53.256  0.00  0.00    -0.301 N 
BRANCH  18  19
ATOM     19  C   UNL d   1      53.435  31.050  52.885  0.00  0.00     0.080 C 
ATOM     20  C   UNL d   1      53.806  30.396  53.211  0.00  0.00     0.021 C 
ENDBRANCH  18  19
BRANCH  18  21
ATOM     21  C   UNL d   1      52.286  30.900  53.713  0.00  0.00     0.080 C 
ATOM     22  C   UNL d   1      51.900  30.264  53.373  0.00  0.00     0.021 C 
ENDBRANCH  18  21
ENDBRANCH  17  18
ENDBRANCH  16  17
ENDBRANCH   1  16
BRANCH   2  23
ATOM     23  C   UNL d   1      53.729  33.816  54.530  0.00  0.00     0.156 A 
ATOM     24  O   UNL d   1      53.661  33.468  55.266  0.00  0.00    -0.300 OA
ATOM     25  C   UNL d   1      54.426  33.310  55.544  0.00  0.00     0.123 A 
ATOM     26  C   UNL d   1      54.949  33.562  54.982  0.00  0.00     0.029 A 
ATOM     27  C   UNL d   1      54.542  33.878  54.346  0.00  0.00     0.032 A 
ENDBRANCH   2  23
TORSDOF 9
ENDMDL
MODEL 2
REMARK VINA RESULT:      -5.6      1.349      4.063
REMARK  9 active torsions:
REMARK  status: ('A' for Active; 'I' for Inactive)
REMARK    1  A    between atoms: N_3  and  C_1 
REMARK       I    between atoms: C_5  and  N_3 
REMARK    2  A    between atoms: C_9  and  N_3 
REMARK    3  A    between atoms: C_8  and  C_5 
REMARK    4  A    between atoms: C_16  and  C_9 
REMARK    5  A    between atoms: O_18  and  C_12 
REMARK    6  A    between atoms: N_17  and  C_16 
REMARK    7  A    between atoms: C_22  and  N_17 
REMARK    8  A    between atoms: C_23  and  N_17 
REMARK    9  A    between atoms: C_24  and  O_18 
ROOT
ATOM      1  N   UNL d   1      52.951  33.046  53.898  0.00  0.00    -0.250 N 
ATOM      2  C   UNL d   1      53.587  33.389  54.289  0.00  0.00     0.289 C 
ATOM      3  O   UNL d   1      54.258  32.961  54.440  0.00  0.00    -0.264 OA
ENDROOT
BRANCH   1   4
ATOM      4  C   UNL d   1      53.004  32.253  53.659  0.00  0.00     0.182 A 
ATOM      5  N   UNL d   1      53.037  31.587  54.177  0.00  0.00    -0.220 NA
ATOM      6  C   UNL d   1      53.088  30.885  53.696  0.00  0.00     0.112 A 
ATOM      7  C   UNL d   1      53.135  30.077  53.890  0.00  0.00     0.118 A 
ATOM      8  C   UNL d   1      53.087  31.127  52.892  0.00  0.00     0.052 A 
ATOM      9  C   UNL d   1      53.181  29.500  53.289  0.00  0.00     0.026 A 
ATOM     10  C   UNL d   1      53.180  29.737  52.482  0.00  0.00     0.003 A 
ATOM     11  C   UNL d   1      53.133  30.560  52.297  0.00  0.00     0.008 A 
ATOM     12  S   UNL d   1      53.035  31.973  52.859  0.00  0.00    -0.048 SA
BRANCH   7  13
ATOM     13  O   UNL d   1      53.136  29.837  54.700  0.00  0.00    -0.304 OA
BRANCH  13  14
ATOM     14  C   UNL d   1      53.282  29.033  54.901  0.00  0.00     0.123 C 
ATOM     15  C   UNL d   1      53.308  28.811  55.440  0.00  0.00     0.029 C 
ENDBRANCH  13  14
ENDBRANCH   7  13
ENDBRANCH   1   4
BRANCH   1  16
ATOM     16  C   UNL d   1      52.272  33.479  53.745  0.00  0.00     0.104 C 
BRANCH  16  17
ATOM     17  C   UNL d   1      51.849  33.347  53.049  0.00  0.00     0.100 C 
BRANCH  17  18
ATOM     18  N   UNL d   1      51.216  33.830  52.859  0.00  0.00    -0.301 N 
BRANCH  18  19
ATOM     19  C   UNL d   1      51.268  34.339  52.212  0.00  0.00     0.080 C 
ATOM     20  C   UNL d   1      50.949  34.115  51.491  0.00  0.00     0.021 C 
ENDBRANCH  18  19
BRANCH  18  21
ATOM     21  C   UNL d   1      50.533  33.808  53.311  0.00  0.00     0.080 C 
ATOM     22  C   UNL d   1      49.998  34.425  53.270  0.00  0.00     0.021 C 
ENDBRANCH  18  21
ENDBRANCH  17  18
ENDBRANCH  16  17
ENDBRANCH   1  16
BRANCH   2  23
ATOM     23  C   UNL d   1      53.530  34.175  54.524  0.00  0.00     0.156 A 
ATOM     24  O   UNL d   1      53.157  34.458  55.193  0.00  0.00    -0.300 OA
ATOM     25  C   UNL d   1      53.242  35.282  55.202  0.00  0.00     0.123 A 
ATOM     26  C   UNL d   1      53.661  35.494  54.545  0.00  0.00     0.029 A 
ATOM     27  C   UNL d   1      53.850  34.826  54.110  0.00  0.00     0.032 A 
ENDBRANCH   2  23
TORSDOF 9
ENDMDL
MODEL 3
REMARK VINA RESULT:      -5.4      1.725      4.324
REMARK  9 active torsions:
REMARK  status: ('A' for Active; 'I' for Inactive)
REMARK    1  A    between atoms: N_3  and  C_1 
REMARK       I    between atoms: C_5  and  N_3 
REMARK    2  A    between atoms: C_9  and  N_3 
REMARK    3  A    between atoms: C_8  and  C_5 
REMARK    4  A    between atoms: C_16  and  C_9 
REMARK    5  A    between atoms: O_18  and  C_12 
REMARK    6  A    between atoms: N_17  and  C_16 
REMARK    7  A    between atoms: C_22  and  N_17 
REMARK    8  A    between atoms: C_23  and  N_17 
REMARK    9  A    between atoms: C_24  and  O_18 
ROOT
ATOM      1  N   UNL d   1      52.829  32.671  53.634  0.00  0.00    -0.250 N 
ATOM      2  C   UNL d   1      52.160  33.081  53.391  0.00  0.00     0.289 C 
ATOM      3  O   UNL d   1      51.552  32.695  53.019  0.00  0.00    -0.264 OA
ENDROOT
BRANCH   1   4
ATOM      4  C   UNL d   1      52.875  31.855  53.495  0.00  0.00     0.182 A 
ATOM      5  N   UNL d   1      52.989  31.263  54.086  0.00  0.00    -0.220 NA
ATOM      6  C   UNL d   1      53.002  30.504  53.697  0.00  0.00     0.112 A 
ATOM      7  C   UNL d   1      53.095  29.729  53.986  0.00  0.00     0.118 A 
ATOM      8  C   UNL d   1      52.896  30.638  52.875  0.00  0.00     0.052 A 
ATOM      9  C   UNL d   1      53.084  29.079  53.463  0.00  0.00     0.026 A 
ATOM     10  C   UNL d   1      52.978  29.207  52.640  0.00  0.00     0.003 A 
ATOM     11  C   UNL d   1      52.885  29.998  52.357  0.00  0.00     0.008 A 
ATOM     12  S   UNL d   1      52.816  31.472  52.740  0.00  0.00    -0.048 SA
BRANCH   7  13
ATOM     13  O   UNL d   1      53.201  29.598  54.814  0.00  0.00    -0.304 OA
BRANCH  13  14
ATOM     14  C   UNL d   1      53.326  28.817  55.104  0.00  0.00     0.123 C 
ATOM     15  C   UNL d   1      53.371  28.661  55.664  0.00  0.00     0.029 C 
ENDBRANCH  13  14
ENDBRANCH   7  13
ENDBRANCH   1   4
BRANCH   1  16
ATOM     16  C   UNL d   1      53.444  33.061  54.010  0.00  0.00     0.104 C 
BRANCH  16  17
ATOM     17  C   UNL d   1      54.224  32.845  53.852  0.00  0.00     0.100 C 
BRANCH  17  18
ATOM     18  N   UNL d   1      54.839  33.240  54.222  0.00  0.00    -0.301 N 
BRANCH  18  19
ATOM     19  C   UNL d   1      55.415  33.619  53.768  0.00  0.00     0.080 C 
ATOM     20  C   UNL d   1      55.888  33.181  53.262  0.00  0.00     0.021 C 
ENDBRANCH  18  19
BRANCH  18  21
ATOM     21  C   UNL d   1      54.882  33.259  55.039  0.00  0.00     0.080 C 
ATOM     22  C   UNL d   1      55.294  33.860  55.411  0.00  0.00     0.021 C 
ENDBRANCH  18  21
ENDBRANCH  17  18
ENDBRANCH  16  17
ENDBRANCH   1  16
BRANCH   2  23
ATOM     23  C   UNL d   1      52.118  33.890  53.531  0.00  0.00     0.156 A 
ATOM     24  O   UNL d   1      51.995  34.254  54.252  0.00  0.00    -0.300 OA
ATOM     25  C   UNL d   1      51.994  35.073  54.126  0.00  0.00     0.123 A 
ATOM     26  C   UNL d   1      52.117  35.201  53.338  0.00  0.00     0.029 A 
ATOM     27  C   UNL d   1      52.196  34.484  52.949  0.00  0.00     0.032 A 
ENDBRANCH   2  23
TORSDOF 9
ENDMDL
MODEL 4
REMARK VINA RESULT:      -4.2      1.477      2.804
REMARK  9 active torsions:
REMARK  status: ('A' for Active; 'I' for Inactive)
REMARK    1  A    between atoms: N_3  and  C_1 
REMARK       I    between atoms: C_5  and  N_3 
REMARK    2  A    between atoms: C_9  and  N_3 
REMARK    3  A    between atoms: C_8  and  C_5 
REMARK    4  A    between atoms: C_16  and  C_9 
REMARK    5  A    between atoms: O_18  and  C_12 
REMARK    6  A    between atoms: N_17  and  C_16 
REMARK    7  A    between atoms: C_22  and  N_17 
REMARK    8  A    between atoms: C_23  and  N_17 
REMARK    9  A    between atoms: C_24  and  O_18 
ROOT
ATOM      1  N   UNL d   1      52.421  32.193  53.170  0.00  0.00    -0.250 N 
ATOM      2  C   UNL d   1      52.144  31.422  53.111  0.00  0.00     0.289 C 
ATOM      3  O   UNL d   1      51.349  31.272  53.046  0.00  0.00    -0.264 OA
ENDROOT
BRANCH   1   4
ATOM      4  C   UNL d   1      51.877  32.819  53.161  0.00  0.00     0.182 A 
ATOM      5  N   UNL d   1      51.443  33.080  52.485  0.00  0.00    -0.220 NA
ATOM      6  C   UNL d   1      50.952  33.735  52.729  0.00  0.00     0.112 A 
ATOM      7  C   UNL d   1      50.412  34.211  52.313  0.00  0.00     0.118 A 
ATOM      8  C   UNL d   1      51.091  33.866  53.546  0.00  0.00     0.052 A 
ATOM      9  C   UNL d   1      50.002  34.825  52.704  0.00  0.00     0.026 A 
ATOM     10  C   UNL d   1      50.137  34.961  53.522  0.00  0.00     0.003 A 
ATOM     11  C   UNL d   1      50.688  34.471  53.934  0.00  0.00     0.008 A 
ATOM     12  S   UNL d   1      51.662  33.304  53.823  0.00  0.00    -0.048 SA
BRANCH   7  13
ATOM     13  O   UNL d   1      50.275  34.076  51.490  0.00  0.00    -0.304 OA
BRANCH  13  14
ATOM     14  C   UNL d   1      49.628  34.451  51.103  0.00  0.00     0.123 C 
ATOM     15  C   UNL d   1      49.307  34.226  50.672  0.00  0.00     0.029 C 
ENDBRANCH  13  14
ENDBRANCH   7  13
ENDBRANCH   1   4
BRANCH   1  16
ATOM     16  C   UNL d   1      53.224  32.343  53.236  0.00  0.00     0.104 C 
BRANCH  16  17
ATOM     17  C   UNL d   1      53.489  32.947  53.732  0.00  0.00     0.100 C 
BRANCH  17  18
ATOM     18  N   UNL d   1      54.292  33.061  53.842  0.00  0.00    -0.301 N 
BRANCH  18  19
ATOM     19  C   UNL d   1      54.772  33.246  53.197  0.00  0.00     0.080 C 
ATOM     20  C   UNL d   1      55.586  33.268  53.288  0.00  0.00     0.021 C 
ENDBRANCH  18  19
BRANCH  18  21
ATOM     21  C   UNL d   1      54.618  32.992  54.589  0.00  0.00     0.080 C 
ATOM     22  C   UNL d   1      54.687  33.653  55.067  0.00  0.00     0.021 C 
ENDBRANCH  18  21
ENDBRANCH  17  18
ENDBRANCH  16  17
ENDBRANCH   1  16
BRANCH   2  23
ATOM     23  C   UNL d   1      52.686  30.803  53.120  0.00  0.00     0.156 A 
ATOM     24  O   UNL d   1      53.189  30.587  52.514  0.00  0.00    -0.300 OA
ATOM     25  C   UNL d   1      53.632  29.936  52.772  0.00  0.00     0.123 A 
ATOM     26  C   UNL d   1      53.399  29.762  53.525  0.00  0.00     0.029 A 
ATOM     27  C   UNL d   1      52.814  30.285  53.763  0.00  0.00     0.032 A 
ENDBRANCH   2  23
TORSDOF 9
ENDMDL
MODEL 5
REMARK VINA RESULT:      -3.8      1.366      2.578
REMARK  9 active torsions:
REMARK  status: ('A' for Active; 'I' for Inactive)
REMARK    1  A    between atoms: N_3  and  C_1 
REMARK       I    between atoms: C_5  and  N_3 
REMARK    2  A    between atoms: C_9  and  N_3 
REMARK    3  A    between atoms: C_8  and  C_5 
REMARK    4  A    between atoms: C_16  and  C_9 
REMARK    5  A    between atoms: O_18  and  C_12 
REMARK    6  A    between atoms: N_17  and  C_16 
REMARK    7  A    between atoms: C_22  and  N_17 
REMARK    8  A    between atoms: C_23  and  N_17 
REMARK    9  A    between atoms: C_24  and  O_18 
ROOT
ATOM      1  N   UNL d   1      51.996  33.401  53.197  0.00  0.00    -0.250 N 
ATOM      2  C   UNL d   1      52.215  32.632  53.008  0.00  0.00     0.289 C 
ATOM      3  O   UNL d   1      51.799  32.208  52.456  0.00  0.00    -0.264 OA
ENDROOT
BRANCH   1   4
ATOM      4  C   UNL d   1      51.343  33.739  52.815  0.00  0.00     0.182 A 
ATOM      5  N   UNL d   1      50.710  34.148  53.197  0.00  0.00    -0.220 NA
ATOM      6  C   UNL d   1      50.162  34.402  52.595  0.00  0.00     0.112 A 
ATOM      7  C   UNL d   1      49.445  34.822  52.634  0.00  0.00     0.118 A 
ATOM      8  C   UNL d   1      50.463  34.148  51.854  0.00  0.00     0.052 A 
ATOM      9  C   UNL d   1      49.018  34.995  51.938  0.00  0.00     0.026 A 
ATOM     10  C   UNL d   1      49.315  34.743  51.193  0.00  0.00     0.003 A 
ATOM     11  C   UNL d   1      50.044  34.317  51.165  0.00  0.00     0.008 A 
ATOM     12  S   UNL d   1      51.194  33.736  51.979  0.00  0.00    -0.048 SA
BRANCH   7  13
ATOM     13  O   UNL d   1      49.145  35.076  53.382  0.00  0.00    -0.304 OA
BRANCH  13  14
ATOM     14  C   UNL d   1      48.522  35.642  53.416  0.00  0.00     0.123 C 
ATOM     15  C   UNL d   1      48.343  35.929  53.891  0.00  0.00     0.029 C 
ENDBRANCH  13  14
ENDBRANCH   7  13
ENDBRANCH   1   4
BRANCH   1  16
ATOM     16  C   UNL d   1      52.417  33.830  53.755  0.00  0.00     0.104 C 
BRANCH  16  17
ATOM     17  C   UNL d   1      52.513  34.644  53.659  0.00  0.00     0.100 C 
BRANCH  17  18
ATOM     18  N   UNL d   1      52.966  35.066  54.195  0.00  0.00    -0.301 N 
BRANCH  18  19
ATOM     19  C   UNL d   1      52.729  35.115  54.984  0.00  0.00     0.080 C 
ATOM     20  C   UNL d   1      53.292  35.174  55.576  0.00  0.00     0.021 C 
ENDBRANCH  18  19
BRANCH  18  21
ATOM     21  C   UNL d   1      53.652  35.438  53.949  0.00  0.00     0.080 C 
ATOM     22  C   UNL d   1      53.637  36.232  53.752  0.00  0.00     0.021 C 
ENDBRANCH  18  21
ENDBRANCH  17  18
ENDBRANCH  16  17
ENDBRANCH   1  16
BRANCH   2  23
ATOM     23  C   UNL d   1      52.864  32.300  53.389  0.00  0.00     0.156 A 
ATOM     24  O   UNL d   1      52.887  32.016  54.154  0.00  0.00    -0.300 OA
ATOM     25  C   UNL d   1      53.653  31.734  54.298  0.00  0.00     0.123 A 
ATOM     26  C   UNL d   1      54.087  31.847  53.626  0.00  0.00     0.029 A 
ATOM     27  C   UNL d   1      53.621  32.196  53.050  0.00  0.00     0.032 A 
ENDBRANCH   2  23
TORSDOF 9
ENDMDL
MODEL 6
REMARK VINA RESULT:      -3.4      1.543      4.039
REMARK  9 active torsions:
REMARK  status: ('A' for Active; 'I' for Inactive)
REMARK    1  A    between atoms: N_3  and  C_1 
REMARK       I    between atoms: C_5  and  N_3 
REMARK    2  A    between atoms: C_9  and  N_3 
REMARK    3  A    between atoms: C_8  and  C_5 
REMARK    4  A    between atoms: C_16  and  C_9 
REMARK    5  A    between atoms: O_18  and  C_12 
REMARK    6  A    between atoms: N_17  and  C_16 
REMARK    7  A    between atoms: C_22  and  N_17 
REMARK    8  A    between atoms: C_23  and  N_17 
REMARK    9  A    between atoms: C_24  and  O_18 
ROOT
ATOM      1  N   UNL d   1      53.290  31.972  53.555  0.00  0.00    -0.250 N 
ATOM      2  C   UNL d   1      53.498  31.184  53.659  0.00  0.00     0.289 C 
ATOM      3  O   UNL d   1      54.122  30.982  54.137  0.00  0.00    -0.264 OA
ENDROOT
BRANCH   1   4
ATOM      4  C   UNL d   1      53.726  32.559  53.945  0.00  0.00     0.182 A 
ATOM      5  N   UNL d   1      53.399  33.236  54.331  0.00  0.00    -0.220 NA
ATOM      6  C   UNL d   1      54.045  33.689  54.655  0.00  0.00     0.112 A 
ATOM      7  C   UNL d   1      54.067  34.399  55.088  0.00  0.00     0.118 A 
ATOM      8  C   UNL d   1      54.757  33.287  54.466  0.00  0.00     0.052 A 
ATOM      9  C   UNL d   1      54.796  34.719  55.338  0.00  0.00     0.026 A 
ATOM     10  C   UNL d   1      55.512  34.321  55.151  0.00  0.00     0.003 A 
ATOM     11  C   UNL d   1      55.478  33.600  54.711  0.00  0.00     0.008 A 
ATOM     12  S   UNL d   1      54.570  32.586  54.026  0.00  0.00    -0.048 SA
BRANCH   7  13
ATOM     13  O   UNL d   1      53.348  34.801  55.276  0.00  0.00    -0.304 OA
BRANCH  13  14
ATOM     14  C   UNL d   1      53.238  35.601  55.038  0.00  0.00     0.123 C 
ATOM     15  C   UNL d   1      52.734  35.896  55.043  0.00  0.00     0.029 C 
ENDBRANCH  13  14
ENDBRANCH   7  13
ENDBRANCH   1   4
BRANCH   1  16
ATOM     16  C   UNL d   1      52.659  32.176  53.073  0.00  0.00     0.104 C 
BRANCH  16  17
ATOM     17  C   UNL d   1      52.188  32.825  53.267  0.00  0.00     0.100 C 
BRANCH  17  18
ATOM     18  N   UNL d   1      51.612  33.081  52.744  0.00  0.00    -0.301 N 
BRANCH  18  19
ATOM     19  C   UNL d   1      50.817  32.936  52.907  0.00  0.00     0.080 C 
ATOM     20  C   UNL d   1      50.395  33.460  53.376  0.00  0.00     0.021 C 
ENDBRANCH  18  19
BRANCH  18  21
ATOM     21  C   UNL d   1      51.825  33.478  52.061  0.00  0.00     0.080 C 
ATOM     22  C   UNL d   1      51.406  34.141  51.828  0.00  0.00     0.021 C 
ENDBRANCH  18  21
ENDBRANCH  17  18
ENDBRANCH  16  17
ENDBRANCH   1  16
BRANCH   2  23
ATOM     23  C   UNL d   1      53.064  30.604  53.271  0.00  0.00     0.156 A 
ATOM     24  O   UNL d   1      53.075  30.440  52.471  0.00  0.00    -0.300 OA
ATOM     25  C   UNL d   1      52.551  29.813  52.333  0.00  0.00     0.123 A 
ATOM     26  C   UNL d   1      52.228  29.601  53.042  0.00  0.00     0.029 A 
ATOM     27  C   UNL d   1      52.530  30.076  53.637  0.00  0.00     0.032 A 
ENDBRANCH   2  23
TORSDOF 9
ENDMDL
