MODEL 1
REMARK VINA RESULT:      10.8      0.000      0.000
REMARK  2 active torsions:
REMARK  status: ('A' for Active; 'I' for Inactive)
REMARK    1  A    between atoms: S_2  and  N_1 
REMARK    2  A    between atoms: C_10  and  S_2 
ROOT
ATOM      1  S   UNL d   1     -54.844-102.067 -38.014  0.00  0.00     0.273 S 
ATOM      2  O   UNL d   1     -54.712-101.254 -38.051  0.00  0.00    -0.200 OA
ATOM      3  O   UNL d   1     -54.977-102.879 -37.967  0.00  0.00    -0.200 OA
ENDROOT
BRANCH   1   4
ATOM      4  N   UNL d   1     -54.859-102.031 -37.190  0.00  0.00    -0.207 N 
ATOM      5  C   UNL d   1     -54.739-101.279 -36.871  0.00  0.00     0.148 A 
ATOM      6  N   UNL d   1     -54.721-101.055 -36.070  0.00  0.00    -0.198 NA
ATOM      7  C   UNL d   1     -54.817-101.520 -35.412  0.00  0.00     0.066 A 
ATOM      8  C   UNL d   1     -54.866-101.963 -36.455  0.00  0.00     0.169 A 
ATOM      9  C   UNL d   1     -54.956-102.331 -35.365  0.00  0.00     0.066 A 
ATOM     10  N   UNL d   1     -55.034-102.876 -35.982  0.00  0.00    -0.198 NA
ATOM     11  C   UNL d   1     -54.990-102.740 -36.791  0.00  0.00     0.148 A 
ENDBRANCH   1   4
BRANCH   1  12
ATOM     12  C   UNL d   1     -54.830-102.108 -38.837  0.00  0.00     0.104 A 
ATOM     13  C   UNL d   1     -54.920-102.834 -39.216  0.00  0.00     0.013 A 
ATOM     14  C   UNL d   1     -54.906-102.875 -40.039  0.00  0.00     0.001 A 
ATOM     15  C   UNL d   1     -54.802-102.188 -40.483  0.00  0.00     0.000 A 
ATOM     16  C   UNL d   1     -54.713-101.460 -40.105  0.00  0.00     0.001 A 
ATOM     17  C   UNL d   1     -54.727-101.420 -39.282  0.00  0.00     0.013 A 
ENDBRANCH   1  12
TORSDOF 2
ENDMDL
