MODEL 1
REMARK VINA RESULT:      -2.9      0.000      0.000
REMARK  5 active torsions:
REMARK  status: ('A' for Active; 'I' for Inactive)
REMARK    1  A    between atoms: C_2  and  C_1 
REMARK    2  A    between atoms: C_8  and  C_2 
REMARK    3  A    between atoms: O_18  and  C_7 
REMARK    4  A    between atoms: C_13  and  C_8 
REMARK    5  A    between atoms: O_20  and  C_11 
ROOT
ATOM      1  C   UNL d   1      57.279   0.052  32.128  0.00  0.00     0.202 C 
ATOM      2  O   UNL d   1      57.685  -0.659  32.030  0.00  0.00    -0.286 OA
ENDROOT
BRANCH   1   3
ATOM      3  C   UNL d   1      56.719   0.129  32.728  0.00  0.00     0.117 A 
ATOM      4  C   UNL d   1      56.941   0.443  33.460  0.00  0.00     0.205 A 
ATOM      5  C   UNL d   1      56.385   0.521  34.061  0.00  0.00     0.084 A 
ATOM      6  O   UNL d   1      57.720   0.682  33.594  0.00  0.00    -0.286 OA
ATOM      7  C   UNL d   1      55.605   0.285  33.935  0.00  0.00     0.202 A 
ATOM      8  C   UNL d   1      55.381  -0.029  33.208  0.00  0.00     0.084 A 
ATOM      9  O   UNL d   1      55.045   0.365  34.544  0.00  0.00    -0.286 OA
ATOM     10  C   UNL d   1      55.939  -0.108  32.602  0.00  0.00     0.205 A 
ATOM     11  O   UNL d   1      55.715  -0.421  31.875  0.00  0.00    -0.286 OA
ENDBRANCH   1   3
BRANCH   1  12
ATOM     12  C   UNL d   1      57.434   0.682  31.627  0.00  0.00     0.042 C 
BRANCH  12  13
ATOM     13  C   UNL d   1      58.024   0.623  31.055  0.00  0.00     0.005 A 
ATOM     14  C   UNL d   1      57.818   0.541  30.262  0.00  0.00     0.026 A 
ATOM     15  C   UNL d   1      58.408   0.482  29.690  0.00  0.00     0.116 A 
ATOM     16  C   UNL d   1      59.202   0.506  29.911  0.00  0.00     0.116 A 
ATOM     17  C   UNL d   1      59.406   0.588  30.709  0.00  0.00     0.026 A 
ATOM     18  C   UNL d   1      58.809   0.647  31.278  0.00  0.00     0.002 A 
BRANCH  15  19
ATOM     19  O   UNL d   1      58.204   0.399  28.889  0.00  0.00    -0.326 OA
ATOM     20  C   UNL d   1      57.460   0.631  28.626  0.00  0.00     0.181 C 
ENDBRANCH  15  19
BRANCH  16  21
ATOM     21  O   UNL d   1      59.804   0.447  29.342  0.00  0.00    -0.326 OA
ATOM     22  C   UNL d   1      60.589   0.426  29.565  0.00  0.00     0.181 C 
ENDBRANCH  16  21
ENDBRANCH  12  13
ENDBRANCH   1  12
TORSDOF 5
ENDMDL
MODEL 2
REMARK VINA RESULT:      -2.9      1.173      4.483
REMARK  5 active torsions:
REMARK  status: ('A' for Active; 'I' for Inactive)
REMARK    1  A    between atoms: C_2  and  C_1 
REMARK    2  A    between atoms: C_8  and  C_2 
REMARK    3  A    between atoms: O_18  and  C_7 
REMARK    4  A    between atoms: C_13  and  C_8 
REMARK    5  A    between atoms: O_20  and  C_11 
ROOT
ATOM      1  C   UNL d   1      57.677   0.040  30.523  0.00  0.00     0.202 C 
ATOM      2  O   UNL d   1      57.012   0.456  30.267  0.00  0.00    -0.286 OA
ENDROOT
BRANCH   1   3
ATOM      3  C   UNL d   1      58.353   0.013  30.051  0.00  0.00     0.117 A 
ATOM      4  C   UNL d   1      59.067   0.318  30.337  0.00  0.00     0.205 A 
ATOM      5  C   UNL d   1      59.743   0.293  29.870  0.00  0.00     0.084 A 
ATOM      6  O   UNL d   1      59.107   0.650  31.092  0.00  0.00    -0.286 OA
ATOM      7  C   UNL d   1      59.711  -0.038  29.114  0.00  0.00     0.202 A 
ATOM      8  C   UNL d   1      59.002  -0.343  28.827  0.00  0.00     0.084 A 
ATOM      9  O   UNL d   1      60.396  -0.062  28.645  0.00  0.00    -0.286 OA
ATOM     10  C   UNL d   1      58.321  -0.318  29.296  0.00  0.00     0.205 A 
ATOM     11  O   UNL d   1      57.613  -0.622  29.008  0.00  0.00    -0.286 OA
ENDBRANCH   1   3
BRANCH   1  12
ATOM     12  C   UNL d   1      57.664  -0.345  31.246  0.00  0.00     0.042 C 
BRANCH  12  13
ATOM     13  C   UNL d   1      57.021  -0.256  31.752  0.00  0.00     0.005 A 
ATOM     14  C   UNL d   1      56.624  -0.922  32.031  0.00  0.00     0.026 A 
ATOM     15  C   UNL d   1      55.982  -0.834  32.538  0.00  0.00     0.116 A 
ATOM     16  C   UNL d   1      55.735  -0.080  32.765  0.00  0.00     0.116 A 
ATOM     17  C   UNL d   1      56.134   0.587  32.484  0.00  0.00     0.026 A 
ATOM     18  C   UNL d   1      56.780   0.491  31.975  0.00  0.00     0.002 A 
BRANCH  15  19
ATOM     19  O   UNL d   1      55.579  -1.503  32.821  0.00  0.00    -0.326 OA
ATOM     20  C   UNL d   1      55.967  -2.043  33.307  0.00  0.00     0.181 C 
ENDBRANCH  15  19
BRANCH  16  21
ATOM     21  O   UNL d   1      55.088   0.019  33.275  0.00  0.00    -0.326 OA
ATOM     22  C   UNL d   1      55.042   0.666  33.771  0.00  0.00     0.181 C 
ENDBRANCH  16  21
ENDBRANCH  12  13
ENDBRANCH   1  12
TORSDOF 5
ENDMDL
MODEL 3
REMARK VINA RESULT:      -1.5      1.377      1.602
REMARK  5 active torsions:
REMARK  status: ('A' for Active; 'I' for Inactive)
REMARK    1  A    between atoms: C_2  and  C_1 
REMARK    2  A    between atoms: C_8  and  C_2 
REMARK    3  A    between atoms: O_18  and  C_7 
REMARK    4  A    between atoms: C_13  and  C_8 
REMARK    5  A    between atoms: O_20  and  C_11 
ROOT
ATOM      1  C   UNL d   1      57.340  -0.253  31.609  0.00  0.00     0.202 C 
ATOM      2  O   UNL d   1      57.964   0.279  31.694  0.00  0.00    -0.286 OA
ENDROOT
BRANCH   1   3
ATOM      3  C   UNL d   1      56.718  -0.249  32.151  0.00  0.00     0.117 A 
ATOM      4  C   UNL d   1      56.764  -0.712  32.834  0.00  0.00     0.205 A 
ATOM      5  C   UNL d   1      56.145  -0.710  33.376  0.00  0.00     0.084 A 
ATOM      6  O   UNL d   1      57.428  -1.180  32.978  0.00  0.00    -0.286 OA
ATOM      7  C   UNL d   1      55.477  -0.245  33.239  0.00  0.00     0.202 A 
ATOM      8  C   UNL d   1      55.428   0.217  32.560  0.00  0.00     0.084 A 
ATOM      9  O   UNL d   1      54.854  -0.246  33.789  0.00  0.00    -0.286 OA
ATOM     10  C   UNL d   1      56.050   0.216  32.014  0.00  0.00     0.205 A 
ATOM     11  O   UNL d   1      56.001   0.679  31.335  0.00  0.00    -0.286 OA
ENDBRANCH   1   3
BRANCH   1  12
ATOM     12  C   UNL d   1      57.339  -0.785  30.986  0.00  0.00     0.042 C 
BRANCH  12  13
ATOM     13  C   UNL d   1      57.897  -0.721  30.384  0.00  0.00     0.005 A 
ATOM     14  C   UNL d   1      58.276  -1.397  30.103  0.00  0.00     0.026 A 
ATOM     15  C   UNL d   1      58.834  -1.333  29.501  0.00  0.00     0.116 A 
ATOM     16  C   UNL d   1      59.013  -0.594  29.180  0.00  0.00     0.116 A 
ATOM     17  C   UNL d   1      58.632   0.082  29.464  0.00  0.00     0.026 A 
ATOM     18  C   UNL d   1      58.072   0.011  30.069  0.00  0.00     0.002 A 
BRANCH  15  19
ATOM     19  O   UNL d   1      59.218  -2.012  29.216  0.00  0.00    -0.326 OA
ATOM     20  C   UNL d   1      58.843  -2.744  29.251  0.00  0.00     0.181 C 
ENDBRANCH  15  19
BRANCH  16  21
ATOM     21  O   UNL d   1      59.574  -0.520  28.573  0.00  0.00    -0.326 OA
ATOM     22  C   UNL d   1      60.080   0.120  28.548  0.00  0.00     0.181 C 
ENDBRANCH  16  21
ENDBRANCH  12  13
ENDBRANCH   1  12
TORSDOF 5
ENDMDL
