MODEL 1
REMARK VINA RESULT:      22.0      0.000      0.000
REMARK  2 active torsions:
REMARK  status: ('A' for Active; 'I' for Inactive)
REMARK    1  A    between atoms: C_12  and  C_4 
REMARK    2  A    between atoms: O_14  and  C_10 
ROOT
ATOM      1  C   UNL d   1      60.088  49.707  50.449  0.00  0.00     0.101 A 
ATOM      2  C   UNL d   1      59.804  49.708  49.672  0.00  0.00     0.203 A 
ATOM      3  C   UNL d   1      58.989  49.708  49.537  0.00  0.00     0.067 A 
ATOM      4  C   UNL d   1      58.467  49.707  50.165  0.00  0.00     0.103 A 
ATOM      5  C   UNL d   1      59.565  49.707  51.078  0.00  0.00     0.108 A 
ATOM      6  O   UNL d   1      58.750  49.707  50.941  0.00  0.00    -0.307 OA
ATOM      7  C   UNL d   1      60.899  49.707  50.582  0.00  0.00     0.203 A 
ATOM      8  C   UNL d   1      59.845  49.707  51.851  0.00  0.00     0.049 A 
ATOM      9  C   UNL d   1      61.195  49.707  51.370  0.00  0.00     0.066 A 
ATOM     10  C   UNL d   1      60.673  49.707  51.998  0.00  0.00     0.099 A 
ATOM     11  O   UNL d   1      60.341  49.708  49.026  0.00  0.00    -0.286 OA
ATOM     12  O   UNL d   1      61.436  49.708  49.936  0.00  0.00    -0.286 OA
ENDROOT
BRANCH   4  13
ATOM     13  C   UNL d   1      57.660  49.707  50.035  0.00  0.00     0.023 A 
ATOM     14  C   UNL d   1      57.148  49.708  50.683  0.00  0.00     0.002 A 
ATOM     15  C   UNL d   1      56.336  49.708  50.554  0.00  0.00     0.000 A 
ATOM     16  C   UNL d   1      56.034  49.707  49.785  0.00  0.00     0.000 A 
ATOM     17  C   UNL d   1      56.541  49.706  49.136  0.00  0.00     0.000 A 
ATOM     18  C   UNL d   1      57.358  49.707  49.265  0.00  0.00     0.002 A 
ENDBRANCH   4  13
BRANCH  10  19
ATOM     19  O   UNL d   1      60.951  49.707  52.801  0.00  0.00    -0.328 OA
ATOM     20  C   UNL d   1      61.753  49.707  52.959  0.00  0.00     0.181 C 
ENDBRANCH  10  19
TORSDOF 2
ENDMDL
