MODEL 1
REMARK VINA RESULT:      -2.3      0.000      0.000
REMARK  6 active torsions:
REMARK  status: ('A' for Active; 'I' for Inactive)
REMARK    1  A    between atoms: C_7  and  C_1 
REMARK    2  A    between atoms: N_5  and  C_3 
REMARK       I    between atoms: C_9  and  N_5 
REMARK    3  A    between atoms: C_8  and  S_11 
REMARK    4  A    between atoms: C_13  and  C_9 
REMARK    5  A    between atoms: S_11  and  C_13 
REMARK    6  A    between atoms: O_17  and  C_14 
ROOT
ATOM      1  C   UNL d   1      31.218  17.126 -24.479  0.00  0.00     0.137 A 
ATOM      2  S   UNL d   1      31.399  17.450 -23.736  0.00  0.00    -0.026 SA
ATOM      3  C   UNL d   1      32.148  17.798 -23.780  0.00  0.00     0.219 A 
ATOM      4  N   UNL d   1      31.862  17.278 -24.984  0.00  0.00    -0.139 NA
ATOM      5  N   UNL d   1      32.436  17.692 -24.553  0.00  0.00    -0.121 NA
ENDROOT
BRANCH   3   6
ATOM      6  N   UNL d   1      32.545  18.184 -23.168  0.00  0.00    -0.181 NA
ATOM      7  C   UNL d   1      32.642  19.008 -23.181  0.00  0.00     0.287 C 
ATOM      8  O   UNL d   1      32.337  19.443 -23.814  0.00  0.00    -0.265 OA
BRANCH   7   9
ATOM      9  C   UNL d   1      33.041  19.389 -22.563  0.00  0.00     0.089 C 
ATOM     10  C   UNL d   1      33.241  18.969 -21.881  0.00  0.00     0.012 C 
BRANCH   9  11
ATOM     11  S   UNL d   1      33.237  20.195 -22.638  0.00  0.00    -0.057 SA
BRANCH  11  12
ATOM     12  C   UNL d   1      33.147  20.692 -21.984  0.00  0.00     0.141 A 
ATOM     13  N   UNL d   1      32.950  20.467 -21.206  0.00  0.00    -0.230 NA
ATOM     14  C   UNL d   1      32.921  21.149 -20.736  0.00  0.00     0.107 A 
ATOM     15  C   UNL d   1      33.101  21.804 -21.217  0.00  0.00     0.058 A 
ATOM     16  S   UNL d   1      33.241  21.523 -21.989  0.00  0.00    -0.059 SA
ENDBRANCH  11  12
ENDBRANCH   9  11
ENDBRANCH   7   9
ENDBRANCH   3   6
BRANCH   1  17
ATOM     17  C   UNL d   1      30.522  16.724 -24.688  0.00  0.00     0.048 A 
ATOM     18  C   UNL d   1      29.847  17.134 -24.879  0.00  0.00     0.096 A 
ATOM     19  C   UNL d   1      29.168  16.735 -25.083  0.00  0.00     0.024 A 
ATOM     20  C   UNL d   1      29.185  15.918 -25.090  0.00  0.00     0.002 A 
ATOM     21  C   UNL d   1      29.841  15.504 -24.904  0.00  0.00     0.000 A 
ATOM     22  C   UNL d   1      30.525  15.904 -24.699  0.00  0.00     0.004 A 
BRANCH  18  23
ATOM     23  O   UNL d   1      29.839  17.944 -24.870  0.00  0.00    -0.328 OA
ATOM     24  C   UNL d   1      28.999  18.321 -25.044  0.00  0.00     0.181 C 
ENDBRANCH  18  23
ENDBRANCH   1  17
TORSDOF 6
ENDMDL
MODEL 2
REMARK VINA RESULT:      -0.8      1.463      2.004
REMARK  6 active torsions:
REMARK  status: ('A' for Active; 'I' for Inactive)
REMARK    1  A    between atoms: C_7  and  C_1 
REMARK    2  A    between atoms: N_5  and  C_3 
REMARK       I    between atoms: C_9  and  N_5 
REMARK    3  A    between atoms: C_8  and  S_11 
REMARK    4  A    between atoms: C_13  and  C_9 
REMARK    5  A    between atoms: S_11  and  C_13 
REMARK    6  A    between atoms: O_17  and  C_14 
ROOT
ATOM      1  C   UNL d   1      30.179  15.894 -24.410  0.00  0.00     0.137 A 
ATOM      2  S   UNL d   1      30.638  16.344 -23.884  0.00  0.00    -0.026 SA
ATOM      3  C   UNL d   1      31.420  16.344 -24.156  0.00  0.00     0.219 A 
ATOM      4  N   UNL d   1      30.684  15.615 -25.010  0.00  0.00    -0.139 NA
ATOM      5  N   UNL d   1      31.449  15.893 -24.853  0.00  0.00    -0.121 NA
ENDROOT
BRANCH   3   6
ATOM      6  N   UNL d   1      32.061  16.723 -23.801  0.00  0.00    -0.181 NA
ATOM      7  C   UNL d   1      32.136  17.549 -23.835  0.00  0.00     0.287 C 
ATOM      8  O   UNL d   1      31.560  17.992 -24.230  0.00  0.00    -0.265 OA
BRANCH   7   9
ATOM      9  C   UNL d   1      32.782  17.923 -23.477  0.00  0.00     0.089 C 
ATOM     10  C   UNL d   1      33.220  17.525 -22.901  0.00  0.00     0.012 C 
BRANCH   9  11
ATOM     11  S   UNL d   1      32.983  18.698 -23.703  0.00  0.00    -0.057 SA
BRANCH  11  12
ATOM     12  C   UNL d   1      33.084  19.273 -23.118  0.00  0.00     0.141 A 
ATOM     13  N   UNL d   1      33.143  19.147 -22.296  0.00  0.00    -0.230 NA
ATOM     14  C   UNL d   1      33.240  19.882 -21.925  0.00  0.00     0.107 A 
ATOM     15  C   UNL d   1      33.241  20.472 -22.513  0.00  0.00     0.058 A 
ATOM     16  S   UNL d   1      33.145  20.096 -23.251  0.00  0.00    -0.059 SA
ENDBRANCH  11  12
ENDBRANCH   9  11
ENDBRANCH   7   9
ENDBRANCH   3   6
BRANCH   1  17
ATOM     17  C   UNL d   1      29.364  15.745 -24.354  0.00  0.00     0.048 A 
ATOM     18  C   UNL d   1      29.018  15.598 -23.634  0.00  0.00     0.096 A 
ATOM     19  C   UNL d   1      28.219  15.453 -23.584  0.00  0.00     0.024 A 
ATOM     20  C   UNL d   1      27.780  15.459 -24.273  0.00  0.00     0.002 A 
ATOM     21  C   UNL d   1      28.107  15.603 -24.985  0.00  0.00     0.000 A 
ATOM     22  C   UNL d   1      28.910  15.749 -25.037  0.00  0.00     0.004 A 
BRANCH  18  23
ATOM     23  O   UNL d   1      29.461  15.593 -22.956  0.00  0.00    -0.328 OA
ATOM     24  C   UNL d   1      28.961  15.476 -22.172  0.00  0.00     0.181 C 
ENDBRANCH  18  23
ENDBRANCH   1  17
TORSDOF 6
ENDMDL
