MODEL 1
REMARK VINA RESULT:      68.8      0.000      0.000
REMARK  8 active torsions:
REMARK  status: ('A' for Active; 'I' for Inactive)
REMARK    1  A    between atoms: C_2  and  S_1 
REMARK    2  A    between atoms: N_8  and  S_1 
REMARK    3  A    between atoms: C_13  and  N_8 
REMARK    4  A    between atoms: N_9  and  C_14 
REMARK    5  A    between atoms: O_15  and  C_10 
REMARK    6  A    between atoms: C_14  and  C_13 
REMARK    7  A    between atoms: C_22  and  O_15 
REMARK    8  A    between atoms: C_23  and  C_22 
ROOT
ATOM      1  C   UNL d   1      60.672  48.345  50.451  0.00  0.00     0.105 A 
ATOM      2  C   UNL d   1      60.568  48.799  51.132  0.00  0.00     0.014 A 
ATOM      3  C   UNL d   1      59.883  49.249  51.231  0.00  0.00     0.024 A 
ATOM      4  C   UNL d   1      60.094  48.340  49.871  0.00  0.00     0.015 A 
ATOM      5  C   UNL d   1      59.300  49.240  50.641  0.00  0.00     0.100 A 
ATOM      6  C   UNL d   1      59.407  48.788  49.966  0.00  0.00     0.025 A 
ATOM      7  C   UNL d   1      61.146  48.805  51.711  0.00  0.00     0.001 A 
ATOM      8  C   UNL d   1      59.781  49.700  51.908  0.00  0.00     0.002 A 
ATOM      9  C   UNL d   1      61.048  49.254  52.390  0.00  0.00     0.000 A 
ATOM     10  C   UNL d   1      60.362  49.707  52.493  0.00  0.00     0.000 A 
ENDROOT
BRANCH   1  11
ATOM     11  S   UNL d   1      61.360  47.897  50.356  0.00  0.00     0.285 S 
ATOM     12  O   UNL d   1      61.105  47.382  50.941  0.00  0.00    -0.198 OA
ATOM     13  O   UNL d   1      61.617  48.418  49.764  0.00  0.00    -0.198 OA
BRANCH  11  14
ATOM     14  N   UNL d   1      62.045  47.450  50.261  0.00  0.00    -0.155 NA
BRANCH  14  15
ATOM     15  C   UNL d   1      61.989  46.627  50.188  0.00  0.00     0.131 C 
BRANCH  15  16
ATOM     16  C   UNL d   1      61.920  46.289  49.438  0.00  0.00     0.102 C 
BRANCH  16  17
ATOM     17  N   UNL d   1      61.666  45.513  49.360  0.00  0.00    -0.298 N 
ATOM     18  C   UNL d   1      60.973  45.265  49.730  0.00  0.00     0.107 A 
ATOM     19  C   UNL d   1      60.715  44.485  49.653  0.00  0.00     0.142 A 
ATOM     20  O   UNL d   1      61.154  43.950  49.203  0.00  0.00    -0.300 OA
ATOM     21  C   UNL d   1      61.851  44.196  48.830  0.00  0.00     0.142 A 
ATOM     22  C   UNL d   1      62.105  44.978  48.910  0.00  0.00     0.107 A 
ENDBRANCH  16  17
ENDBRANCH  15  16
ENDBRANCH  14  15
ENDBRANCH  11  14
ENDBRANCH   1  11
BRANCH   5  23
ATOM     23  O   UNL d   1      58.615  49.687  50.735  0.00  0.00    -0.305 OA
BRANCH  23  24
ATOM     24  C   UNL d   1      57.975  49.571  50.237  0.00  0.00     0.123 C 
BRANCH  24  25
ATOM     25  C   UNL d   1      57.272  49.261  50.531  0.00  0.00     0.027 C 
ATOM     26  C   UNL d   1      56.576  49.705  50.494  0.00  0.00     0.002 C 
ENDBRANCH  24  25
ENDBRANCH  23  24
ENDBRANCH   5  23
TORSDOF 8
ENDMDL
