MODEL 1
REMARK VINA RESULT:      17.2      0.000      0.000
REMARK  8 active torsions:
REMARK  status: ('A' for Active; 'I' for Inactive)
REMARK    1  A    between atoms: C_14  and  N_1 
REMARK    2  A    between atoms: N_9  and  C_2 
REMARK    3  A    between atoms: C_6  and  C_5 
REMARK    4  A    between atoms: C_7  and  C_6 
REMARK       I    between atoms: N_8  and  C_7 
REMARK    5  A    between atoms: C_10  and  N_8 
REMARK    6  A    between atoms: C_16  and  N_9 
REMARK    7  A    between atoms: O_15  and  C_13 
REMARK    8  A    between atoms: C_19  and  O_15 
ROOT
ATOM      1  C   UNL d   1      46.247 -16.032  43.464  0.00  0.00     0.074 C 
ENDROOT
BRANCH   1   2
ATOM      2  C   UNL d   1      45.947 -15.397  43.901  0.00  0.00     0.093 A 
ATOM      3  C   UNL d   1      45.165 -15.299  44.144  0.00  0.00     0.272 A 
ATOM      4  N   UNL d   1      45.107 -14.591  44.566  0.00  0.00    -0.252 N 
ATOM      5  O   UNL d   1      44.542 -15.823  43.990  0.00  0.00    -0.266 OA
ATOM      6  C   UNL d   1      45.860 -14.248  44.585  0.00  0.00     0.182 A 
ATOM      7  S   UNL d   1      46.378 -14.740  44.178  0.00  0.00    -0.045 SA
BRANCH   4   8
ATOM      8  C   UNL d   1      44.421 -14.290  44.903  0.00  0.00     0.085 C 
ATOM      9  C   UNL d   1      43.807 -14.021  44.426  0.00  0.00     0.021 C 
ENDBRANCH   4   8
BRANCH   6  10
ATOM     10  N   UNL d   1      46.049 -13.537  44.950  0.00  0.00    -0.221 NA
BRANCH  10  11
ATOM     11  C   UNL d   1      46.194 -12.862  44.504  0.00  0.00     0.101 C 
ATOM     12  C   UNL d   1      46.138 -12.111  44.842  0.00  0.00     0.022 C 
ENDBRANCH  10  11
ENDBRANCH   6  10
ENDBRANCH   1   2
BRANCH   1  13
ATOM     13  C   UNL d   1      46.358 -16.764  43.828  0.00  0.00     0.280 C 
ATOM     14  N   UNL d   1      46.309 -17.455  43.392  0.00  0.00    -0.206 NA
ATOM     15  O   UNL d   1      46.519 -16.791  44.634  0.00  0.00    -0.265 OA
BRANCH  14  16
ATOM     16  C   UNL d   1      46.421 -18.185  43.758  0.00  0.00     0.107 A 
ATOM     17  C   UNL d   1      46.534 -18.865  43.306  0.00  0.00     0.118 A 
ATOM     18  C   UNL d   1      46.645 -19.596  43.672  0.00  0.00     0.026 A 
ATOM     19  C   UNL d   1      46.643 -19.641  44.504  0.00  0.00     0.002 A 
ATOM     20  C   UNL d   1      46.531 -18.967  44.955  0.00  0.00     0.002 A 
ATOM     21  C   UNL d   1      46.420 -18.234  44.592  0.00  0.00     0.021 A 
BRANCH  17  22
ATOM     22  O   UNL d   1      46.534 -18.807  42.481  0.00  0.00    -0.304 OA
BRANCH  22  23
ATOM     23  C   UNL d   1      46.616 -19.487  42.026  0.00  0.00     0.123 C 
ATOM     24  C   UNL d   1      46.519 -19.455  41.207  0.00  0.00     0.029 C 
ENDBRANCH  22  23
ENDBRANCH  17  22
ENDBRANCH  14  16
ENDBRANCH   1  13
TORSDOF 8
ENDMDL
MODEL 2
REMARK VINA RESULT:      19.3      1.344      4.932
REMARK  8 active torsions:
REMARK  status: ('A' for Active; 'I' for Inactive)
REMARK    1  A    between atoms: C_14  and  N_1 
REMARK    2  A    between atoms: N_9  and  C_2 
REMARK    3  A    between atoms: C_6  and  C_5 
REMARK    4  A    between atoms: C_7  and  C_6 
REMARK       I    between atoms: N_8  and  C_7 
REMARK    5  A    between atoms: C_10  and  N_8 
REMARK    6  A    between atoms: C_16  and  N_9 
REMARK    7  A    between atoms: O_15  and  C_13 
REMARK    8  A    between atoms: C_19  and  O_15 
ROOT
ATOM      1  C   UNL d   1      46.645 -17.016  44.300  0.00  0.00     0.074 C 
ENDROOT
BRANCH   1   2
ATOM      2  C   UNL d   1      46.574 -17.783  43.998  0.00  0.00     0.093 A 
ATOM      3  C   UNL d   1      46.451 -17.987  43.208  0.00  0.00     0.272 A 
ATOM      4  N   UNL d   1      46.414 -18.810  43.152  0.00  0.00    -0.252 N 
ATOM      5  O   UNL d   1      46.378 -17.455  42.578  0.00  0.00    -0.266 OA
ATOM      6  C   UNL d   1      46.514 -19.119  43.913  0.00  0.00     0.182 A 
ATOM      7  S   UNL d   1      46.613 -18.491  44.436  0.00  0.00    -0.045 SA
BRANCH   4   8
ATOM      8  C   UNL d   1      46.298 -19.237  42.460  0.00  0.00     0.085 C 
ATOM      9  C   UNL d   1      46.562 -18.941  41.740  0.00  0.00     0.021 C 
ENDBRANCH   4   8
BRANCH   6  10
ATOM     10  N   UNL d   1      46.515 -19.917  44.106  0.00  0.00    -0.221 NA
BRANCH  10  11
ATOM     11  C   UNL d   1      45.809 -20.316  44.241  0.00  0.00     0.101 C 
ATOM     12  C   UNL d   1      45.402 -20.227  44.955  0.00  0.00     0.022 C 
ENDBRANCH  10  11
ENDBRANCH   6  10
ENDBRANCH   1   2
BRANCH   1  13
ATOM     13  C   UNL d   1      45.969 -16.561  44.426  0.00  0.00     0.280 C 
ATOM     14  N   UNL d   1      46.018 -15.745  44.457  0.00  0.00    -0.206 NA
ATOM     15  O   UNL d   1      45.243 -16.938  44.520  0.00  0.00    -0.265 OA
BRANCH  14  16
ATOM     16  C   UNL d   1      45.340 -15.292  44.583  0.00  0.00     0.107 A 
ATOM     17  C   UNL d   1      45.359 -14.476  44.476  0.00  0.00     0.118 A 
ATOM     18  C   UNL d   1      44.681 -14.023  44.602  0.00  0.00     0.026 A 
ATOM     19  C   UNL d   1      43.977 -14.399  44.839  0.00  0.00     0.002 A 
ATOM     20  C   UNL d   1      43.956 -15.210  44.946  0.00  0.00     0.002 A 
ATOM     21  C   UNL d   1      44.632 -15.666  44.821  0.00  0.00     0.021 A 
BRANCH  17  22
ATOM     22  O   UNL d   1      46.064 -14.114  44.240  0.00  0.00    -0.304 OA
BRANCH  22  23
ATOM     23  C   UNL d   1      46.039 -13.398  43.836  0.00  0.00     0.123 C 
ATOM     24  C   UNL d   1      46.024 -12.685  44.253  0.00  0.00     0.029 C 
ENDBRANCH  22  23
ENDBRANCH  17  22
ENDBRANCH  14  16
ENDBRANCH   1  13
TORSDOF 8
ENDMDL
