MODEL 1
REMARK VINA RESULT:      70.7      0.000      0.000
REMARK  4 active torsions:
REMARK  status: ('A' for Active; 'I' for Inactive)
REMARK    1  A    between atoms: N_2  and  S_1 
REMARK    2  A    between atoms: C_3  and  S_1 
REMARK    3  A    between atoms: C_5  and  N_4 
REMARK    4  A    between atoms: O_16  and  C_13 
ROOT
ATOM      1  N   UNL d   1     -47.209  30.621  35.741  0.00  0.00    -0.226 N 
ATOM      2  N   UNL d   1     -47.770  31.822  34.767  0.00  0.00    -0.300 N 
ATOM      3  C   UNL d   1     -47.229  30.513  34.920  0.00  0.00     0.111 A 
ATOM      4  C   UNL d   1     -47.469  31.328  36.075  0.00  0.00     0.111 A 
ATOM      5  C   UNL d   1     -47.511  31.117  34.428  0.00  0.00     0.100 A 
ATOM      6  C   UNL d   1     -47.751  31.932  35.583  0.00  0.00     0.100 A 
ENDROOT
BRANCH   1   7
ATOM      7  S   UNL d   1     -46.931  30.025  36.216  0.00  0.00     0.272 S 
ATOM      8  O   UNL d   1     -46.655  29.432  36.690  0.00  0.00    -0.200 OA
ATOM      9  O   UNL d   1     -46.460  30.555  36.604  0.00  0.00    -0.200 OA
BRANCH   7  10
ATOM     10  C   UNL d   1     -47.408  29.491  35.825  0.00  0.00     0.106 A 
ATOM     11  C   UNL d   1     -48.106  29.231  36.178  0.00  0.00     0.043 A 
ATOM     12  C   UNL d   1     -48.587  28.691  35.783  0.00  0.00     0.141 A 
ATOM     13  F   UNL d   1     -49.277  28.431  36.127  0.00  0.00    -0.204 F 
ATOM     14  C   UNL d   1     -48.364  28.417  35.037  0.00  0.00     0.030 A 
ATOM     15  C   UNL d   1     -47.679  28.677  34.699  0.00  0.00     0.003 A 
ATOM     16  C   UNL d   1     -47.198  29.217  35.094  0.00  0.00     0.013 A 
ENDBRANCH   7  10
ENDBRANCH   1   7
BRANCH   2  17
ATOM     17  C   UNL d   1     -48.051  32.425  34.287  0.00  0.00     0.086 A 
ATOM     18  C   UNL d   1     -47.526  32.838  33.802  0.00  0.00     0.110 A 
ATOM     19  C   UNL d   1     -47.810  33.446  33.317  0.00  0.00     0.026 A 
ATOM     20  C   UNL d   1     -48.618  33.642  33.316  0.00  0.00     0.002 A 
ATOM     21  C   UNL d   1     -49.141  33.225  33.804  0.00  0.00     0.002 A 
ATOM     22  C   UNL d   1     -48.857  32.617  34.289  0.00  0.00     0.019 A 
BRANCH  18  23
ATOM     23  O   UNL d   1     -46.733  32.647  33.802  0.00  0.00    -0.327 OA
ATOM     24  C   UNL d   1     -46.309  32.968  33.363  0.00  0.00     0.181 C 
ENDBRANCH  18  23
ENDBRANCH   2  17
TORSDOF 4
ENDMDL
MODEL 2
REMARK VINA RESULT:      73.5      3.889      5.428
REMARK  4 active torsions:
REMARK  status: ('A' for Active; 'I' for Inactive)
REMARK    1  A    between atoms: N_2  and  S_1 
REMARK    2  A    between atoms: C_3  and  S_1 
REMARK    3  A    between atoms: C_5  and  N_4 
REMARK    4  A    between atoms: O_16  and  C_13 
ROOT
ATOM      1  N   UNL d   1     -50.752  26.824  33.900  0.00  0.00    -0.226 N 
ATOM      2  N   UNL d   1     -49.455  27.647  34.489  0.00  0.00    -0.300 N 
ATOM      3  C   UNL d   1     -50.133  27.040  33.392  0.00  0.00     0.111 A 
ATOM      4  C   UNL d   1     -50.722  27.019  34.700  0.00  0.00     0.111 A 
ATOM      5  C   UNL d   1     -49.480  27.455  33.687  0.00  0.00     0.100 A 
ATOM      6  C   UNL d   1     -50.069  27.434  34.995  0.00  0.00     0.100 A 
ENDROOT
BRANCH   1   7
ATOM      7  S   UNL d   1     -51.388  26.418  33.604  0.00  0.00     0.272 S 
ATOM      8  O   UNL d   1     -52.023  26.014  33.309  0.00  0.00    -0.200 OA
ATOM      9  O   UNL d   1     -51.850  27.074  33.698  0.00  0.00    -0.200 OA
BRANCH   7  10
ATOM     10  C   UNL d   1     -50.922  25.755  33.509  0.00  0.00     0.106 A 
ATOM     11  C   UNL d   1     -51.274  25.010  33.470  0.00  0.00     0.043 A 
ATOM     12  C   UNL d   1     -50.803  24.341  33.374  0.00  0.00     0.141 A 
ATOM     13  F   UNL d   1     -51.146  23.603  33.336  0.00  0.00    -0.204 F 
ATOM     14  C   UNL d   1     -49.984  24.423  33.318  0.00  0.00     0.030 A 
ATOM     15  C   UNL d   1     -49.648  25.157  33.357  0.00  0.00     0.003 A 
ATOM     16  C   UNL d   1     -50.119  25.826  33.453  0.00  0.00     0.013 A 
ENDBRANCH   7  10
ENDBRANCH   1   7
BRANCH   2  17
ATOM     17  C   UNL d   1     -48.812  28.058  34.788  0.00  0.00     0.086 A 
ATOM     18  C   UNL d   1     -48.777  28.231  35.594  0.00  0.00     0.110 A 
ATOM     19  C   UNL d   1     -48.127  28.645  35.896  0.00  0.00     0.026 A 
ATOM     20  C   UNL d   1     -47.511  28.887  35.393  0.00  0.00     0.002 A 
ATOM     21  C   UNL d   1     -47.550  28.712  34.585  0.00  0.00     0.002 A 
ATOM     22  C   UNL d   1     -48.200  28.297  34.283  0.00  0.00     0.019 A 
BRANCH  18  23
ATOM     23  O   UNL d   1     -49.381  27.994  36.090  0.00  0.00    -0.327 OA
ATOM     24  C   UNL d   1     -49.350  28.157  36.759  0.00  0.00     0.181 C 
ENDBRANCH  18  23
ENDBRANCH   2  17
TORSDOF 4
ENDMDL
