MODEL 1
REMARK VINA RESULT:      21.8      0.000      0.000
REMARK  6 active torsions:
REMARK  status: ('A' for Active; 'I' for Inactive)
REMARK    1  A    between atoms: C_2  and  S_1 
REMARK    2  A    between atoms: C_13  and  S_1 
REMARK    3  A    between atoms: C_5  and  C_3 
REMARK    4  A    between atoms: C_19  and  C_5 
REMARK    5  A    between atoms: O_25  and  C_22 
REMARK    6  A    between atoms: C_30  and  O_25 
ROOT
ATOM      1  C   UNL d   1      57.314   0.048  32.964  0.00  0.00     0.094 A 
ATOM      2  C   UNL d   1      56.548   0.066  33.285  0.00  0.00     0.069 A 
ATOM      3  C   UNL d   1      57.966   0.206  33.439  0.00  0.00     0.031 A 
ATOM      4  C   UNL d   1      57.861   0.384  34.239  0.00  0.00     0.084 A 
ATOM      5  C   UNL d   1      58.724   0.188  33.117  0.00  0.00     0.029 A 
ATOM      6  N   UNL d   1      57.105   0.402  34.562  0.00  0.00    -0.244 NA
ATOM      7  C   UNL d   1      56.444   0.243  34.085  0.00  0.00     0.103 A 
ATOM      8  C   UNL d   1      58.515   0.542  34.715  0.00  0.00     0.046 A 
ATOM      9  C   UNL d   1      59.376   0.346  33.593  0.00  0.00     0.123 A 
ATOM     10  C   UNL d   1      59.271   0.523  34.393  0.00  0.00     0.124 A 
ATOM     11  O   UNL d   1      60.134   0.327  33.271  0.00  0.00    -0.301 OA
ATOM     12  O   UNL d   1      59.924   0.682  34.869  0.00  0.00    -0.301 OA
ATOM     13  C   UNL d   1      60.686   0.664  34.547  0.00  0.00     0.149 A 
ATOM     14  C   UNL d   1      60.791   0.486  33.747  0.00  0.00     0.149 A 
ENDROOT
BRANCH   1  15
ATOM     15  S   UNL d   1      57.430  -0.128  32.166  0.00  0.00     0.210 S 
ATOM     16  O   UNL d   1      57.424  -0.936  32.331  0.00  0.00    -0.217 OA
ATOM     17  O   UNL d   1      57.436   0.680  32.001  0.00  0.00    -0.217 OA
BRANCH  15  18
ATOM     18  C   UNL d   1      57.547  -0.292  31.366  0.00  0.00     0.088 A 
ATOM     19  C   UNL d   1      57.696   0.328  30.840  0.00  0.00     0.013 A 
ATOM     20  C   UNL d   1      57.813   0.163  30.035  0.00  0.00     0.025 A 
ATOM     21  C   UNL d   1      57.781  -0.613  29.765  0.00  0.00     0.100 A 
ATOM     22  C   UNL d   1      57.632  -1.236  30.287  0.00  0.00     0.025 A 
ATOM     23  C   UNL d   1      57.514  -1.070  31.096  0.00  0.00     0.013 A 
BRANCH  21  24
ATOM     24  O   UNL d   1      57.898  -0.787  28.958  0.00  0.00    -0.305 OA
BRANCH  24  25
ATOM     25  C   UNL d   1      58.616  -0.618  28.592  0.00  0.00     0.123 C 
ATOM     26  C   UNL d   1      59.319  -0.884  28.928  0.00  0.00     0.029 C 
ENDBRANCH  24  25
ENDBRANCH  21  24
ENDBRANCH  15  18
ENDBRANCH   1  15
BRANCH   2  27
ATOM     27  C   UNL d   1      55.891  -0.093  32.809  0.00  0.00     0.198 C 
ATOM     28  O   UNL d   1      55.893   0.115  32.010  0.00  0.00    -0.286 OA
BRANCH  27  29
ATOM     29  C   UNL d   1      55.229  -0.462  33.134  0.00  0.00     0.039 A 
ATOM     30  C   UNL d   1      55.088  -1.269  33.001  0.00  0.00     0.003 A 
ATOM     31  C   UNL d   1      54.426  -1.640  33.326  0.00  0.00     0.000 A 
ATOM     32  C   UNL d   1      53.895  -1.210  33.789  0.00  0.00     0.000 A 
ATOM     33  C   UNL d   1      54.036  -0.398  33.924  0.00  0.00     0.000 A 
ATOM     34  C   UNL d   1      54.695  -0.026  33.601  0.00  0.00     0.003 A 
ENDBRANCH  27  29
ENDBRANCH   2  27
TORSDOF 6
ENDMDL
