MODEL 1
REMARK VINA RESULT:      18.9      0.000      0.000
REMARK  2 active torsions:
REMARK  status: ('A' for Active; 'I' for Inactive)
REMARK       I    between atoms: C_3  and  N_1 
REMARK    1  A    between atoms: C_6  and  C_3 
REMARK    2  A    between atoms: O_16  and  C_11 
ROOT
ATOM      1  N   UNL d   1      46.173 -17.703  43.548  0.00  0.00    -0.175 N 
ATOM      2  N   UNL d   1      46.210 -17.305  42.829  0.00  0.00    -0.057 NA
ATOM      3  C   UNL d   1      46.017 -17.363  44.283  0.00  0.00     0.282 C 
ATOM      4  N   UNL d   1      46.377 -17.847  42.237  0.00  0.00    -0.129 NA
ATOM      5  C   UNL d   1      46.322 -18.507  43.388  0.00  0.00     0.107 A 
ATOM      6  C   UNL d   1      46.446 -18.596  42.592  0.00  0.00     0.122 A 
ATOM      7  O   UNL d   1      45.998 -17.834  44.955  0.00  0.00    -0.265 OA
ATOM      8  C   UNL d   1      46.357 -19.165  43.883  0.00  0.00     0.021 A 
ATOM      9  C   UNL d   1      46.610 -19.350  42.269  0.00  0.00     0.022 A 
ATOM     10  C   UNL d   1      46.517 -19.914  43.582  0.00  0.00     0.002 A 
ATOM     11  C   UNL d   1      46.646 -20.012  42.763  0.00  0.00     0.002 A 
ENDROOT
BRANCH   3  12
ATOM     12  C   UNL d   1      45.882 -16.553  44.338  0.00  0.00     0.059 A 
ATOM     13  C   UNL d   1      45.165 -16.266  44.615  0.00  0.00     0.013 A 
ATOM     14  C   UNL d   1      45.023 -15.454  44.673  0.00  0.00     0.057 A 
ATOM     15 BR   UNL d   1      44.301 -15.172  44.952  0.00  0.00    -0.047 Br
ATOM     16  C   UNL d   1      45.613 -14.919  44.448  0.00  0.00     0.100 A 
ATOM     17  C   UNL d   1      46.336 -15.202  44.169  0.00  0.00     0.025 A 
ATOM     18  C   UNL d   1      46.468 -16.018  44.115  0.00  0.00     0.007 A 
BRANCH  16  19
ATOM     19  O   UNL d   1      45.493 -14.095  44.498  0.00  0.00    -0.328 OA
ATOM     20  C   UNL d   1      46.131 -13.586  44.645  0.00  0.00     0.181 C 
ENDBRANCH  16  19
ENDBRANCH   3  12
TORSDOF 2
ENDMDL
MODEL 2
REMARK VINA RESULT:      20.9      1.670      4.174
REMARK  2 active torsions:
REMARK  status: ('A' for Active; 'I' for Inactive)
REMARK       I    between atoms: C_3  and  N_1 
REMARK    1  A    between atoms: C_6  and  C_3 
REMARK    2  A    between atoms: O_16  and  C_11 
ROOT
ATOM      1  N   UNL d   1      45.747 -15.611  44.294  0.00  0.00    -0.175 N 
ATOM      2  N   UNL d   1      46.444 -15.561  43.860  0.00  0.00    -0.057 NA
ATOM      3  C   UNL d   1      45.365 -16.305  44.519  0.00  0.00     0.282 C 
ATOM      4  N   UNL d   1      46.634 -14.770  43.756  0.00  0.00    -0.129 NA
ATOM      5  C   UNL d   1      45.508 -14.830  44.458  0.00  0.00     0.107 A 
ATOM      6  C   UNL d   1      46.046 -14.318  44.132  0.00  0.00     0.122 A 
ATOM      7  O   UNL d   1      44.670 -16.266  44.954  0.00  0.00    -0.265 OA
ATOM      8  C   UNL d   1      44.858 -14.532  44.869  0.00  0.00     0.021 A 
ATOM      9  C   UNL d   1      45.947 -13.491  44.209  0.00  0.00     0.022 A 
ATOM     10  C   UNL d   1      44.745 -13.721  44.955  0.00  0.00     0.002 A 
ATOM     11  C   UNL d   1      45.296 -13.190  44.621  0.00  0.00     0.002 A 
ENDROOT
BRANCH   3  12
ATOM     12  C   UNL d   1      45.682 -17.034  44.307  0.00  0.00     0.059 A 
ATOM     13  C   UNL d   1      45.788 -17.231  43.518  0.00  0.00     0.013 A 
ATOM     14  C   UNL d   1      46.107 -17.962  43.299  0.00  0.00     0.057 A 
ATOM     15 BR   UNL d   1      46.211 -18.154  42.505  0.00  0.00    -0.047 Br
ATOM     16  C   UNL d   1      46.324 -18.506  43.884  0.00  0.00     0.100 A 
ATOM     17  C   UNL d   1      46.219 -18.313  44.679  0.00  0.00     0.025 A 
ATOM     18  C   UNL d   1      45.899 -17.578  44.888  0.00  0.00     0.007 A 
BRANCH  16  19
ATOM     19  O   UNL d   1      46.647 -19.249  43.687  0.00  0.00    -0.328 OA
ATOM     20  C   UNL d   1      46.410 -19.931  44.096  0.00  0.00     0.181 C 
ENDBRANCH  16  19
ENDBRANCH   3  12
TORSDOF 2
ENDMDL
