MODEL 1
REMARK VINA RESULT:      26.8      0.000      0.000
REMARK  3 active torsions:
REMARK  status: ('A' for Active; 'I' for Inactive)
REMARK    1  A    between atoms: N_9  and  C_2 
REMARK    2  A    between atoms: C_11  and  N_9 
REMARK    3  A    between atoms: O_14  and  C_13 
ROOT
ATOM      1  C   UNL d   1     -55.506-100.146 -44.360  0.00  0.00     0.154 A 
ATOM      2  C   UNL d   1     -55.730 -99.400 -44.619  0.00  0.00     0.185 A 
ATOM      3  C   UNL d   1     -54.996-100.607 -44.817  0.00  0.00     0.186 A 
ATOM      4  N   UNL d   1     -55.696-100.572 -43.680  0.00  0.00    -0.218 NA
ATOM      5  N   UNL d   1     -54.873-101.317 -44.418  0.00  0.00    -0.203 NA
ATOM      6  N   UNL d   1     -55.446 -99.112 -45.338  0.00  0.00    -0.203 NA
ATOM      7  N   UNL d   1     -54.711-100.322 -45.532  0.00  0.00    -0.203 NA
ATOM      8  C   UNL d   1     -55.301-101.297 -43.722  0.00  0.00     0.201 A 
ATOM      9  C   UNL d   1     -54.936 -99.573 -45.795  0.00  0.00     0.202 A 
ENDROOT
BRANCH   2  10
ATOM     10  N   UNL d   1     -56.240 -98.939 -44.163  0.00  0.00    -0.225 NA
BRANCH  10  11
ATOM     11  C   UNL d   1     -57.034 -98.878 -44.365  0.00  0.00     0.085 A 
ATOM     12  C   UNL d   1     -57.609 -98.879 -43.772  0.00  0.00     0.043 A 
ATOM     13  C   UNL d   1     -58.408 -98.817 -43.972  0.00  0.00     0.096 A 
ATOM     14  C   UNL d   1     -58.631 -98.756 -44.764  0.00  0.00     0.024 A 
ATOM     15  C   UNL d   1     -58.047 -98.756 -45.358  0.00  0.00     0.004 A 
ATOM     16  C   UNL d   1     -57.257 -98.817 -45.156  0.00  0.00     0.019 A 
BRANCH  13  17
ATOM     17  O   UNL d   1     -58.987 -98.818 -43.375  0.00  0.00    -0.328 OA
ATOM     18  C   UNL d   1     -59.773 -98.980 -43.561  0.00  0.00     0.181 C 
ENDBRANCH  13  17
ENDBRANCH  10  11
ENDBRANCH   2  10
TORSDOF 3
ENDMDL
MODEL 2
REMARK VINA RESULT:      27.1      0.625      1.368
REMARK  3 active torsions:
REMARK  status: ('A' for Active; 'I' for Inactive)
REMARK    1  A    between atoms: N_9  and  C_2 
REMARK    2  A    between atoms: C_11  and  N_9 
REMARK    3  A    between atoms: O_14  and  C_13 
ROOT
ATOM      1  C   UNL d   1     -55.743 -99.753 -44.708  0.00  0.00     0.154 A 
ATOM      2  C   UNL d   1     -56.404 -99.570 -44.256  0.00  0.00     0.185 A 
ATOM      3  C   UNL d   1     -55.354-100.472 -44.598  0.00  0.00     0.186 A 
ATOM      4  N   UNL d   1     -55.350 -99.337 -45.301  0.00  0.00    -0.218 NA
ATOM      5  N   UNL d   1     -54.720-100.499 -45.124  0.00  0.00    -0.203 NA
ATOM      6  N   UNL d   1     -56.678-100.105 -43.692  0.00  0.00    -0.203 NA
ATOM      7  N   UNL d   1     -55.625-101.008 -44.037  0.00  0.00    -0.203 NA
ATOM      8  C   UNL d   1     -54.716 -99.805 -45.555  0.00  0.00     0.201 A 
ATOM      9  C   UNL d   1     -56.289-100.824 -43.582  0.00  0.00     0.202 A 
ENDROOT
BRANCH   2  10
ATOM     10  N   UNL d   1     -56.793 -98.851 -44.366  0.00  0.00    -0.225 NA
BRANCH  10  11
ATOM     11  C   UNL d   1     -57.614 -98.819 -44.352  0.00  0.00     0.085 A 
ATOM     12  C   UNL d   1     -58.012 -98.811 -43.629  0.00  0.00     0.043 A 
ATOM     13  C   UNL d   1     -58.837 -98.779 -43.613  0.00  0.00     0.096 A 
ATOM     14  C   UNL d   1     -59.263 -98.756 -44.319  0.00  0.00     0.024 A 
ATOM     15  C   UNL d   1     -58.856 -98.764 -45.046  0.00  0.00     0.004 A 
ATOM     16  C   UNL d   1     -58.040 -98.796 -45.059  0.00  0.00     0.019 A 
BRANCH  13  17
ATOM     17  O   UNL d   1     -59.238 -98.771 -42.884  0.00  0.00    -0.328 OA
ATOM     18  C   UNL d   1     -59.961 -99.161 -42.805  0.00  0.00     0.181 C 
ENDBRANCH  13  17
ENDBRANCH  10  11
ENDBRANCH   2  10
TORSDOF 3
ENDMDL
