MODEL 1
REMARK VINA RESULT:      79.7      0.000      0.000
REMARK  6 active torsions:
REMARK  status: ('A' for Active; 'I' for Inactive)
REMARK    1  A    between atoms: N_5  and  C_1 
REMARK    2  A    between atoms: S_2  and  C_11 
REMARK    3  A    between atoms: N_12  and  S_2 
REMARK    4  A    between atoms: O_8  and  C_4 
REMARK    5  A    between atoms: C_9  and  O_8 
REMARK    6  A    between atoms: C_16  and  C_9 
ROOT
ATOM      1  C   UNL d   1      61.393  48.536  49.813  0.00  0.00     0.300 C 
ATOM      2  O   UNL d   1      61.315  49.034  49.169  0.00  0.00    -0.259 OA
ENDROOT
BRANCH   1   3
ATOM      3  O   UNL d   1      61.304  48.826  50.582  0.00  0.00    -0.271 OA
BRANCH   3   4
ATOM      4  C   UNL d   1      60.578  49.117  50.840  0.00  0.00     0.132 A 
ATOM      5  C   UNL d   1      60.448  49.263  51.642  0.00  0.00     0.207 A 
ATOM      6  C   UNL d   1      59.720  49.554  51.900  0.00  0.00     0.303 A 
ATOM      7  N   UNL d   1      59.122  49.701  51.356  0.00  0.00    -0.206 NA
ATOM      8  O   UNL d   1      59.595  49.699  52.705  0.00  0.00    -0.263 OA
ATOM      9  C   UNL d   1      59.247  49.557  50.561  0.00  0.00     0.087 A 
ATOM     10  C   UNL d   1      59.974  49.266  50.303  0.00  0.00     0.046 A 
ATOM     11  C   UNL d   1      58.641  49.705  50.006  0.00  0.00     0.021 C 
BRANCH   5  12
ATOM     12  N   UNL d   1      61.054  49.114  52.187  0.00  0.00    -0.107 N 
ATOM     13  O   UNL d   1      61.409  48.368  52.208  0.00  0.00    -0.531 OA
ATOM     14  O   UNL d   1      61.301  49.706  52.704  0.00  0.00    -0.531 OA
ENDBRANCH   5  12
ENDBRANCH   3   4
ENDBRANCH   1   3
BRANCH   1  15
ATOM     15  C   UNL d   1      61.562  47.732  49.693  0.00  0.00     0.064 A 
ATOM     16  C   UNL d   1      61.880  47.292  50.298  0.00  0.00     0.006 A 
ATOM     17  C   UNL d   1      62.045  46.491  50.168  0.00  0.00     0.013 A 
ATOM     18  C   UNL d   1      61.887  46.156  49.440  0.00  0.00     0.104 A 
ATOM     19  C   UNL d   1      61.568  46.599  48.834  0.00  0.00     0.013 A 
ATOM     20  C   UNL d   1      61.402  47.395  48.957  0.00  0.00     0.006 A 
BRANCH  18  21
ATOM     21  S   UNL d   1      62.051  45.354  49.307  0.00  0.00     0.271 S 
ATOM     22  O   UNL d   1      62.398  44.637  49.116  0.00  0.00    -0.200 OA
ATOM     23  O   UNL d   1      62.745  45.755  49.099  0.00  0.00    -0.200 OA
BRANCH  21  24
ATOM     24  N   UNL d   1      61.470  44.802  49.460  0.00  0.00    -0.226 N 
ATOM     25  C   UNL d   1      61.373  44.505  50.215  0.00  0.00     0.111 C 
ATOM     26  C   UNL d   1      60.983  44.548  48.841  0.00  0.00     0.111 C 
ENDBRANCH  21  24
ENDBRANCH  18  21
ENDBRANCH   1  15
TORSDOF 6
ENDMDL
MODEL 2
REMARK VINA RESULT:      80.6      1.034      1.621
REMARK  6 active torsions:
REMARK  status: ('A' for Active; 'I' for Inactive)
REMARK    1  A    between atoms: N_5  and  C_1 
REMARK    2  A    between atoms: S_2  and  C_11 
REMARK    3  A    between atoms: N_12  and  S_2 
REMARK    4  A    between atoms: O_8  and  C_4 
REMARK    5  A    between atoms: C_9  and  O_8 
REMARK    6  A    between atoms: C_16  and  C_9 
ROOT
ATOM      1  C   UNL d   1      61.349  48.459  50.076  0.00  0.00     0.300 C 
ATOM      2  O   UNL d   1      62.010  48.938  50.078  0.00  0.00    -0.259 OA
ENDROOT
BRANCH   1   3
ATOM      3  O   UNL d   1      60.597  48.778  50.210  0.00  0.00    -0.271 OA
BRANCH   3   4
ATOM      4  C   UNL d   1      60.398  49.085  50.949  0.00  0.00     0.132 A 
ATOM      5  C   UNL d   1      59.610  49.241  51.136  0.00  0.00     0.207 A 
ATOM      6  C   UNL d   1      59.410  49.548  51.875  0.00  0.00     0.303 A 
ATOM      7  N   UNL d   1      59.998  49.699  52.428  0.00  0.00    -0.206 NA
ATOM      8  O   UNL d   1      58.618  49.703  52.058  0.00  0.00    -0.263 OA
ATOM      9  C   UNL d   1      60.781  49.546  52.247  0.00  0.00     0.087 A 
ATOM     10  C   UNL d   1      60.980  49.239  51.507  0.00  0.00     0.046 A 
ATOM     11  C   UNL d   1      61.380  49.698  52.806  0.00  0.00     0.021 C 
BRANCH   5  12
ATOM     12  N   UNL d   1      59.019  49.087  50.575  0.00  0.00    -0.107 N 
ATOM     13  O   UNL d   1      59.056  49.452  49.835  0.00  0.00    -0.531 OA
ATOM     14  O   UNL d   1      58.400  48.574  50.755  0.00  0.00    -0.531 OA
ENDBRANCH   5  12
ENDBRANCH   3   4
ENDBRANCH   1   3
BRANCH   1  15
ATOM     15  C   UNL d   1      61.430  47.644  49.938  0.00  0.00     0.064 A 
ATOM     16  C   UNL d   1      60.932  47.120  50.308  0.00  0.00     0.006 A 
ATOM     17  C   UNL d   1      61.022  46.310  50.163  0.00  0.00     0.013 A 
ATOM     18  C   UNL d   1      61.606  46.050  49.654  0.00  0.00     0.104 A 
ATOM     19  C   UNL d   1      62.106  46.578  49.283  0.00  0.00     0.013 A 
ATOM     20  C   UNL d   1      62.021  47.384  49.423  0.00  0.00     0.006 A 
BRANCH  18  21
ATOM     21  S   UNL d   1      61.699  45.239  49.507  0.00  0.00     0.271 S 
ATOM     22  O   UNL d   1      61.904  44.507  49.201  0.00  0.00    -0.200 OA
ATOM     23  O   UNL d   1      62.126  45.619  48.908  0.00  0.00    -0.200 OA
BRANCH  21  24
ATOM     24  N   UNL d   1      61.340  44.704  50.007  0.00  0.00    -0.226 N 
ATOM     25  C   UNL d   1      61.106  44.932  50.756  0.00  0.00     0.111 C 
ATOM     26  C   UNL d   1      61.216  43.928  49.745  0.00  0.00     0.111 C 
ENDBRANCH  21  24
ENDBRANCH  18  21
ENDBRANCH   1  15
TORSDOF 6
ENDMDL
