MODEL 1
REMARK VINA RESULT:      -0.8      0.000      0.000
REMARK  7 active torsions:
REMARK  status: ('A' for Active; 'I' for Inactive)
REMARK    1  A    between atoms: C_7  and  N_2 
REMARK    2  A    between atoms: C_21  and  C_7 
REMARK    3  A    between atoms: C_8  and  C_19 
REMARK       I    between atoms: N_13  and  C_8 
REMARK    4  A    between atoms: C_9  and  C_20 
REMARK    5  A    between atoms: O_14  and  C_11 
REMARK    6  A    between atoms: C_20  and  N_13 
REMARK    7  A    between atoms: C_19  and  O_14 
ROOT
ATOM      1  C   UNL d   1      60.429  -3.039  29.103  0.00  0.00     0.265 A 
ATOM      2  N   UNL d   1      59.772  -3.387  28.736  0.00  0.00    -0.272 N 
ATOM      3  C   UNL d   1      60.361  -2.262  29.382  0.00  0.00     0.059 A 
ATOM      4  C   UNL d   1      59.654  -1.845  29.296  0.00  0.00     0.029 A 
ATOM      5  C   UNL d   1      59.009  -2.198  28.932  0.00  0.00     0.021 A 
ATOM      6  C   UNL d   1      59.065  -2.971  28.650  0.00  0.00     0.083 A 
ATOM      7  O   UNL d   1      61.129  -3.451  29.189  0.00  0.00    -0.267 OA
ATOM      8  C   UNL d   1      59.590  -1.071  29.576  0.00  0.00     0.100 A 
ATOM      9  C   UNL d   1      61.015  -1.911  29.749  0.00  0.00     0.005 A 
ATOM     10  C   UNL d   1      60.947  -1.135  30.028  0.00  0.00     0.002 A 
ATOM     11  C   UNL d   1      60.237  -0.716  29.942  0.00  0.00     0.025 A 
ENDROOT
BRANCH   8  12
ATOM     12  O   UNL d   1      58.887  -0.656  29.490  0.00  0.00    -0.300 OA
BRANCH  12  13
ATOM     13  C   UNL d   1      58.749   0.008  29.962  0.00  0.00     0.185 C 
BRANCH  13  14
ATOM     14  C   UNL d   1      57.984   0.187  30.213  0.00  0.00     0.304 C 
ATOM     15  N   UNL d   1      57.775   0.115  31.009  0.00  0.00    -0.203 NA
ATOM     16  O   UNL d   1      57.420   0.441  29.662  0.00  0.00    -0.263 OA
BRANCH  15  17
ATOM     17  C   UNL d   1      57.006   0.296  31.248  0.00  0.00     0.127 C 
BRANCH  17  18
ATOM     18  C   UNL d   1      56.735   0.029  31.972  0.00  0.00     0.119 A 
ATOM     19  O   UNL d   1      56.715   0.451  32.674  0.00  0.00    -0.304 OA
ATOM     20  C   UNL d   1      56.403  -0.023  33.258  0.00  0.00     0.123 A 
ATOM     21  C   UNL d   1      56.224  -0.754  32.923  0.00  0.00     0.029 A 
ATOM     22  C   UNL d   1      56.432  -0.715  32.124  0.00  0.00     0.028 A 
ENDBRANCH  17  18
ENDBRANCH  15  17
ENDBRANCH  13  14
ENDBRANCH  12  13
ENDBRANCH   8  12
BRANCH   2  23
ATOM     23  C   UNL d   1      59.825  -4.155  28.455  0.00  0.00     0.083 C 
BRANCH  23  24
ATOM     24  C   UNL d   1      59.163  -4.641  28.456  0.00  0.00     0.018 A 
ATOM     25  C   UNL d   1      59.267  -5.464  28.455  0.00  0.00     0.002 A 
ATOM     26  C   UNL d   1      58.597  -5.946  28.456  0.00  0.00     0.007 A 
ATOM     27  C   UNL d   1      57.845  -5.607  28.457  0.00  0.00     0.035 A 
ATOM     28  C   UNL d   1      57.765  -4.787  28.457  0.00  0.00     0.007 A 
ATOM     29 BR   UNL d   1      57.185  -6.096  28.457  0.00  0.00    -0.049 Br
ATOM     30  C   UNL d   1      58.426  -4.307  28.457  0.00  0.00     0.002 A 
ENDBRANCH  23  24
ENDBRANCH   2  23
TORSDOF 7
ENDMDL
MODEL 2
REMARK VINA RESULT:      -0.3      1.688      2.862
REMARK  7 active torsions:
REMARK  status: ('A' for Active; 'I' for Inactive)
REMARK    1  A    between atoms: C_7  and  N_2 
REMARK    2  A    between atoms: C_21  and  C_7 
REMARK    3  A    between atoms: C_8  and  C_19 
REMARK       I    between atoms: N_13  and  C_8 
REMARK    4  A    between atoms: C_9  and  C_20 
REMARK    5  A    between atoms: O_14  and  C_11 
REMARK    6  A    between atoms: C_20  and  N_13 
REMARK    7  A    between atoms: C_19  and  O_14 
ROOT
ATOM      1  C   UNL d   1      59.277  -0.674  29.271  0.00  0.00     0.265 A 
ATOM      2  N   UNL d   1      59.813  -1.153  29.686  0.00  0.00    -0.272 N 
ATOM      3  C   UNL d   1      58.715  -0.244  29.701  0.00  0.00     0.059 A 
ATOM      4  C   UNL d   1      58.690  -0.292  30.524  0.00  0.00     0.029 A 
ATOM      5  C   UNL d   1      59.223  -0.768  30.927  0.00  0.00     0.021 A 
ATOM      6  C   UNL d   1      59.787  -1.201  30.509  0.00  0.00     0.083 A 
ATOM      7  O   UNL d   1      59.303  -0.627  28.456  0.00  0.00    -0.267 OA
ATOM      8  C   UNL d   1      58.127   0.139  30.949  0.00  0.00     0.100 A 
ATOM      9  C   UNL d   1      58.179   0.235  29.290  0.00  0.00     0.005 A 
ATOM     10  C   UNL d   1      57.618   0.665  29.719  0.00  0.00     0.002 A 
ATOM     11  C   UNL d   1      57.592   0.617  30.547  0.00  0.00     0.025 A 
ENDROOT
BRANCH   8  12
ATOM     12  O   UNL d   1      58.102   0.091  31.769  0.00  0.00    -0.300 OA
BRANCH  12  13
ATOM     13  C   UNL d   1      57.708   0.679  32.195  0.00  0.00     0.185 C 
BRANCH  13  14
ATOM     14  C   UNL d   1      57.513   0.556  32.988  0.00  0.00     0.304 C 
ATOM     15  N   UNL d   1      56.726   0.451  33.215  0.00  0.00    -0.203 NA
ATOM     16  O   UNL d   1      58.112   0.538  33.559  0.00  0.00    -0.263 OA
BRANCH  15  17
ATOM     17  C   UNL d   1      56.544   0.329  34.010  0.00  0.00     0.127 C 
BRANCH  17  18
ATOM     18  C   UNL d   1      55.760   0.275  34.241  0.00  0.00     0.119 A 
ATOM     19  O   UNL d   1      55.163  -0.134  33.857  0.00  0.00    -0.304 OA
ATOM     20  C   UNL d   1      54.470  -0.042  34.274  0.00  0.00     0.123 A 
ATOM     21  C   UNL d   1      54.629   0.430  34.930  0.00  0.00     0.029 A 
ATOM     22  C   UNL d   1      55.432   0.623  34.904  0.00  0.00     0.028 A 
ENDBRANCH  17  18
ENDBRANCH  15  17
ENDBRANCH  13  14
ENDBRANCH  12  13
ENDBRANCH   8  12
BRANCH   2  23
ATOM     23  C   UNL d   1      60.374  -1.584  29.274  0.00  0.00     0.083 C 
BRANCH  23  24
ATOM     24  C   UNL d   1      60.322  -2.403  29.241  0.00  0.00     0.018 A 
ATOM     25  C   UNL d   1      59.666  -2.750  28.869  0.00  0.00     0.002 A 
ATOM     26  C   UNL d   1      59.620  -3.574  28.840  0.00  0.00     0.007 A 
ATOM     27  C   UNL d   1      60.217  -4.032  29.174  0.00  0.00     0.035 A 
ATOM     28  C   UNL d   1      60.860  -3.667  29.538  0.00  0.00     0.007 A 
ATOM     29 BR   UNL d   1      60.161  -4.851  29.139  0.00  0.00    -0.049 Br
ATOM     30  C   UNL d   1      60.908  -2.852  29.569  0.00  0.00     0.002 A 
ENDBRANCH  23  24
ENDBRANCH   2  23
TORSDOF 7
ENDMDL
MODEL 3
REMARK VINA RESULT:       1.5      2.611      6.405
REMARK  7 active torsions:
REMARK  status: ('A' for Active; 'I' for Inactive)
REMARK    1  A    between atoms: C_7  and  N_2 
REMARK    2  A    between atoms: C_21  and  C_7 
REMARK    3  A    between atoms: C_8  and  C_19 
REMARK       I    between atoms: N_13  and  C_8 
REMARK    4  A    between atoms: C_9  and  C_20 
REMARK    5  A    between atoms: O_14  and  C_11 
REMARK    6  A    between atoms: C_20  and  N_13 
REMARK    7  A    between atoms: C_19  and  O_14 
ROOT
ATOM      1  C   UNL d   1      57.281   0.652  34.384  0.00  0.00     0.265 A 
ATOM      2  N   UNL d   1      56.464   0.661  34.245  0.00  0.00    -0.272 N 
ATOM      3  C   UNL d   1      57.794   0.650  33.734  0.00  0.00     0.059 A 
ATOM      4  C   UNL d   1      57.496   0.657  32.965  0.00  0.00     0.029 A 
ATOM      5  C   UNL d   1      56.686   0.666  32.836  0.00  0.00     0.021 A 
ATOM      6  C   UNL d   1      56.166   0.668  33.476  0.00  0.00     0.083 A 
ATOM      7  O   UNL d   1      57.576   0.645  35.146  0.00  0.00    -0.267 OA
ATOM      8  C   UNL d   1      58.011   0.655  32.318  0.00  0.00     0.100 A 
ATOM      9  C   UNL d   1      58.611   0.641  33.869  0.00  0.00     0.005 A 
ATOM     10  C   UNL d   1      59.123   0.640  33.219  0.00  0.00     0.002 A 
ATOM     11  C   UNL d   1      58.824   0.647  32.446  0.00  0.00     0.025 A 
ENDROOT
BRANCH   8  12
ATOM     12  O   UNL d   1      57.714   0.662  31.553  0.00  0.00    -0.300 OA
BRANCH  12  13
ATOM     13  C   UNL d   1      58.240   0.681  30.916  0.00  0.00     0.185 C 
BRANCH  13  14
ATOM     14  C   UNL d   1      58.083   0.242  30.235  0.00  0.00     0.304 C 
ATOM     15  N   UNL d   1      58.689  -0.162  29.847  0.00  0.00    -0.203 NA
ATOM     16  O   UNL d   1      57.311   0.207  29.939  0.00  0.00    -0.263 OA
BRANCH  15  17
ATOM     17  C   UNL d   1      58.520  -0.597  29.167  0.00  0.00     0.127 C 
BRANCH  17  18
ATOM     18  C   UNL d   1      58.894  -1.315  29.043  0.00  0.00     0.119 A 
ATOM     19  O   UNL d   1      58.774  -2.009  29.462  0.00  0.00    -0.304 OA
ATOM     20  C   UNL d   1      59.259  -2.588  29.157  0.00  0.00     0.123 A 
ATOM     21  C   UNL d   1      59.691  -2.258  28.539  0.00  0.00     0.029 A 
ATOM     22  C   UNL d   1      59.460  -1.467  28.473  0.00  0.00     0.028 A 
ENDBRANCH  17  18
ENDBRANCH  15  17
ENDBRANCH  13  14
ENDBRANCH  12  13
ENDBRANCH   8  12
BRANCH   2  23
ATOM     23  C   UNL d   1      55.945   0.663  34.879  0.00  0.00     0.083 C 
BRANCH  23  24
ATOM     24  C   UNL d   1      55.135   0.640  34.748  0.00  0.00     0.018 A 
ATOM     25  C   UNL d   1      54.854   0.600  33.968  0.00  0.00     0.002 A 
ATOM     26  C   UNL d   1      54.038   0.577  33.844  0.00  0.00     0.007 A 
ATOM     27  C   UNL d   1      53.523   0.594  34.487  0.00  0.00     0.035 A 
ATOM     28  C   UNL d   1      53.823   0.633  35.253  0.00  0.00     0.007 A 
ATOM     29 BR   UNL d   1      52.713   0.570  34.352  0.00  0.00    -0.049 Br
ATOM     30  C   UNL d   1      54.630   0.656  35.379  0.00  0.00     0.002 A 
ENDBRANCH  23  24
ENDBRANCH   2  23
TORSDOF 7
ENDMDL
