MODEL 1
REMARK VINA RESULT:      37.8      0.000      0.000
REMARK  4 active torsions:
REMARK  status: ('A' for Active; 'I' for Inactive)
REMARK    1  A    between atoms: N_3  and  C_8 
REMARK    2  A    between atoms: S_11  and  C_4 
REMARK    3  A    between atoms: C_15  and  S_11 
REMARK    4  A    between atoms: C_16  and  C_15 
ROOT
ATOM      1  C   UNL d   1      58.923  49.294  51.056  0.00  0.00     0.037 C 
ENDROOT
BRANCH   1   2
ATOM      2  S   UNL d   1      58.514  49.707  50.477  0.00  0.00    -0.067 SA
BRANCH   2   3
ATOM      3  C   UNL d   1      57.687  49.699  50.476  0.00  0.00     0.117 A 
ATOM      4  N   UNL d   1      57.274  49.707  51.182  0.00  0.00    -0.184 NA
ATOM      5  C   UNL d   1      56.447  49.699  51.182  0.00  0.00     0.369 A 
ATOM      6  N   UNL d   1      56.034  49.684  50.476  0.00  0.00    -0.191 NA
ATOM      7  O   UNL d   1      56.034  49.708  51.896  0.00  0.00    -0.242 OA
ATOM      8  C   UNL d   1      56.448  49.675  49.762  0.00  0.00     0.088 A 
ATOM      9  C   UNL d   1      57.275  49.683  49.762  0.00  0.00     0.045 A 
ATOM     10  C   UNL d   1      56.035  49.659  49.040  0.00  0.00     0.021 C 
ENDBRANCH   2   3
ENDBRANCH   1   2
BRANCH   1  11
ATOM     11  C   UNL d   1      59.720  49.119  50.966  0.00  0.00     0.007 A 
ATOM     12  C   UNL d   1      60.020  48.374  51.165  0.00  0.00     0.002 A 
ATOM     13  C   UNL d   1      60.811  48.204  51.075  0.00  0.00     0.024 A 
ATOM     14  C   UNL d   1      61.318  48.780  50.781  0.00  0.00     0.127 A 
ATOM     15  C   UNL d   1      61.034  49.513  50.583  0.00  0.00     0.024 A 
ATOM     16  C   UNL d   1      60.234  49.696  50.671  0.00  0.00     0.002 A 
BRANCH  14  17
ATOM     17  N   UNL d   1      62.120  48.616  50.686  0.00  0.00    -0.114 N 
ATOM     18  O   UNL d   1      62.364  47.929  50.304  0.00  0.00    -0.532 OA
ATOM     19  O   UNL d   1      62.680  49.148  50.977  0.00  0.00    -0.532 OA
ENDBRANCH  14  17
ENDBRANCH   1  11
TORSDOF 4
ENDMDL
