MODEL 1
REMARK VINA RESULT:      -2.9      0.000      0.000
REMARK  5 active torsions:
REMARK  status: ('A' for Active; 'I' for Inactive)
REMARK    1  A    between atoms: C_11  and  C_8 
REMARK       I    between atoms: N_22  and  C_11 
REMARK    2  A    between atoms: N_14  and  C_24 
REMARK    3  A    between atoms: C_27  and  N_22 
REMARK    4  A    between atoms: C_24  and  C_25 
REMARK    5  A    between atoms: C_25  and  C_27 
ROOT
ATOM      1  C   UNL d   1      33.039  21.574 -21.877  0.00  0.00     0.154 A 
ATOM      2  C   UNL d   1      33.120  21.007 -21.283  0.00  0.00     0.093 A 
ATOM      3  N   UNL d   1      32.993  22.378 -21.676  0.00  0.00    -0.210 NA
ATOM      4  N   UNL d   1      33.108  22.044 -20.293  0.00  0.00    -0.258 N 
ATOM      5  C   UNL d   1      33.155  21.245 -20.488  0.00  0.00     0.269 A 
ATOM      6  N   UNL d   1      33.021  21.185 -22.598  0.00  0.00    -0.285 N 
ATOM      7  C   UNL d   1      33.027  22.611 -20.887  0.00  0.00     0.152 A 
ATOM      8  C   UNL d   1      33.090  20.378 -22.457  0.00  0.00     0.124 A 
ATOM      9  C   UNL d   1      33.152  20.266 -21.635  0.00  0.00     0.030 A 
ATOM     10  C   UNL d   1      33.143  22.275 -19.504  0.00  0.00     0.084 A 
ATOM     11  C   UNL d   1      32.981  23.409 -20.692  0.00  0.00     0.038 A 
ATOM     12  C   UNL d   1      33.096  23.075 -19.308  0.00  0.00     0.018 A 
ATOM     13  C   UNL d   1      33.015  23.641 -19.903  0.00  0.00     0.005 A 
ATOM     14  O   UNL d   1      33.236  20.678 -19.894  0.00  0.00    -0.266 OA
ATOM     15  C   UNL d   1      32.945  21.539 -23.343  0.00  0.00     0.101 C 
ATOM     16  C   UNL d   1      33.131  23.315 -18.510  0.00  0.00     0.002 C 
ENDROOT
BRANCH   8  17
ATOM     17  C   UNL d   1      33.097  19.781 -23.027  0.00  0.00     0.295 C 
ATOM     18  O   UNL d   1      33.240  19.966 -23.817  0.00  0.00    -0.264 OA
ATOM     19  N   UNL d   1      32.961  18.999 -22.808  0.00  0.00    -0.205 NA
BRANCH  19  20
ATOM     20  C   UNL d   1      32.968  18.403 -23.378  0.00  0.00     0.104 C 
BRANCH  20  21
ATOM     21  C   UNL d   1      32.467  17.754 -23.301  0.00  0.00     0.040 C 
BRANCH  21  22
ATOM     22  C   UNL d   1      32.495  17.136 -23.861  0.00  0.00     0.083 C 
BRANCH  22  23
ATOM     23  N   UNL d   1      31.949  16.522 -23.825  0.00  0.00    -0.285 N 
ATOM     24  C   UNL d   1      31.762  15.981 -23.234  0.00  0.00     0.183 A 
ATOM     25  N   UNL d   1      31.164  15.490 -23.511  0.00  0.00    -0.222 NA
ATOM     26  C   UNL d   1      30.971  15.718 -24.281  0.00  0.00     0.120 A 
ATOM     27  C   UNL d   1      31.462  16.362 -24.474  0.00  0.00     0.102 A 
ENDBRANCH  22  23
ENDBRANCH  21  22
ENDBRANCH  20  21
ENDBRANCH  19  20
ENDBRANCH   8  17
TORSDOF 5
ENDMDL
MODEL 2
REMARK VINA RESULT:      -1.0      1.977      6.394
REMARK  5 active torsions:
REMARK  status: ('A' for Active; 'I' for Inactive)
REMARK    1  A    between atoms: C_11  and  C_8 
REMARK       I    between atoms: N_22  and  C_11 
REMARK    2  A    between atoms: N_14  and  C_24 
REMARK    3  A    between atoms: C_27  and  N_22 
REMARK    4  A    between atoms: C_24  and  C_25 
REMARK    5  A    between atoms: C_25  and  C_27 
ROOT
ATOM      1  C   UNL d   1      30.817  16.967 -23.821  0.00  0.00     0.154 A 
ATOM      2  C   UNL d   1      30.408  17.412 -24.382  0.00  0.00     0.093 A 
ATOM      3  N   UNL d   1      30.424  16.365 -23.406  0.00  0.00    -0.210 NA
ATOM      4  N   UNL d   1      29.219  16.656 -24.116  0.00  0.00    -0.258 N 
ATOM      5  C   UNL d   1      29.606  17.255 -24.529  0.00  0.00     0.269 A 
ATOM      6  N   UNL d   1      31.589  17.241 -23.793  0.00  0.00    -0.285 N 
ATOM      7  C   UNL d   1      29.628  16.211 -23.554  0.00  0.00     0.152 A 
ATOM      8  C   UNL d   1      31.664  17.855 -24.335  0.00  0.00     0.124 A 
ATOM      9  C   UNL d   1      30.926  17.963 -24.703  0.00  0.00     0.030 A 
ATOM     10  C   UNL d   1      28.424  16.503 -24.264  0.00  0.00     0.084 A 
ATOM     11  C   UNL d   1      29.243  15.613 -23.141  0.00  0.00     0.038 A 
ATOM     12  C   UNL d   1      28.038  15.904 -23.850  0.00  0.00     0.018 A 
ATOM     13  C   UNL d   1      28.447  15.459 -23.289  0.00  0.00     0.005 A 
ATOM     14  O   UNL d   1      29.197  17.700 -25.091  0.00  0.00    -0.266 OA
ATOM     15  C   UNL d   1      32.193  16.953 -23.305  0.00  0.00     0.101 C 
ATOM     16  C   UNL d   1      27.232  15.745 -23.997  0.00  0.00     0.002 C 
ENDROOT
BRANCH   8  17
ATOM     17  C   UNL d   1      32.348  18.291 -24.488  0.00  0.00     0.295 C 
ATOM     18  O   UNL d   1      32.873  18.042 -25.072  0.00  0.00    -0.264 OA
ATOM     19  N   UNL d   1      32.508  18.974 -24.058  0.00  0.00    -0.205 NA
BRANCH  19  20
ATOM     20  C   UNL d   1      33.192  19.409 -24.212  0.00  0.00     0.104 C 
BRANCH  20  21
ATOM     21  C   UNL d   1      33.240  20.197 -23.979  0.00  0.00     0.040 C 
BRANCH  21  22
ATOM     22  C   UNL d   1      32.981  20.424 -23.219  0.00  0.00     0.083 C 
BRANCH  22  23
ATOM     23  N   UNL d   1      33.078  21.201 -22.965  0.00  0.00    -0.285 N 
ATOM     24  C   UNL d   1      33.124  21.915 -23.372  0.00  0.00     0.183 A 
ATOM     25  N   UNL d   1      33.223  22.519 -22.824  0.00  0.00    -0.222 NA
ATOM     26  C   UNL d   1      33.240  22.190 -22.067  0.00  0.00     0.120 A 
ATOM     27  C   UNL d   1      33.150  21.367 -22.159  0.00  0.00     0.102 A 
ENDBRANCH  22  23
ENDBRANCH  21  22
ENDBRANCH  20  21
ENDBRANCH  19  20
ENDBRANCH   8  17
TORSDOF 5
ENDMDL
MODEL 3
REMARK VINA RESULT:      -0.9      1.313      2.311
REMARK  5 active torsions:
REMARK  status: ('A' for Active; 'I' for Inactive)
REMARK    1  A    between atoms: C_11  and  C_8 
REMARK       I    between atoms: N_22  and  C_11 
REMARK    2  A    between atoms: N_14  and  C_24 
REMARK    3  A    between atoms: C_27  and  N_22 
REMARK    4  A    between atoms: C_24  and  C_25 
REMARK    5  A    between atoms: C_25  and  C_27 
ROOT
ATOM      1  C   UNL d   1      32.925  19.434 -22.323  0.00  0.00     0.154 A 
ATOM      2  C   UNL d   1      32.765  20.073 -22.819  0.00  0.00     0.093 A 
ATOM      3  N   UNL d   1      33.084  19.567 -21.519  0.00  0.00    -0.210 NA
ATOM      4  N   UNL d   1      32.921  20.972 -21.713  0.00  0.00    -0.258 N 
ATOM      5  C   UNL d   1      32.763  20.845 -22.512  0.00  0.00     0.269 A 
ATOM      6  N   UNL d   1      32.889  18.749 -22.771  0.00  0.00    -0.285 N 
ATOM      7  C   UNL d   1      33.082  20.333 -21.217  0.00  0.00     0.152 A 
ATOM      8  C   UNL d   1      32.707  18.957 -23.546  0.00  0.00     0.124 A 
ATOM      9  C   UNL d   1      32.629  19.785 -23.576  0.00  0.00     0.030 A 
ATOM     10  C   UNL d   1      32.918  21.738 -21.413  0.00  0.00     0.084 A 
ATOM     11  C   UNL d   1      33.239  20.460 -20.419  0.00  0.00     0.038 A 
ATOM     12  C   UNL d   1      33.077  21.865 -20.614  0.00  0.00     0.018 A 
ATOM     13  C   UNL d   1      33.237  21.226 -20.117  0.00  0.00     0.005 A 
ATOM     14  O   UNL d   1      32.602  21.484 -23.008  0.00  0.00    -0.266 OA
ATOM     15  C   UNL d   1      33.014  17.978 -22.496  0.00  0.00     0.101 C 
ATOM     16  C   UNL d   1      33.075  22.640 -20.303  0.00  0.00     0.002 C 
ENDROOT
BRANCH   8  17
ATOM     17  C   UNL d   1      32.617  18.440 -24.182  0.00  0.00     0.295 C 
ATOM     18  O   UNL d   1      33.241  18.318 -24.707  0.00  0.00    -0.264 OA
ATOM     19  N   UNL d   1      31.904  18.045 -24.295  0.00  0.00    -0.205 NA
BRANCH  19  20
ATOM     20  C   UNL d   1      31.814  17.528 -24.932  0.00  0.00     0.104 C 
BRANCH  20  21
ATOM     21  C   UNL d   1      31.233  16.944 -24.910  0.00  0.00     0.040 C 
BRANCH  21  22
ATOM     22  C   UNL d   1      30.429  17.158 -24.852  0.00  0.00     0.083 C 
BRANCH  22  23
ATOM     23  N   UNL d   1      29.866  16.594 -24.648  0.00  0.00    -0.285 N 
ATOM     24  C   UNL d   1      29.920  15.786 -24.499  0.00  0.00     0.183 A 
ATOM     25  N   UNL d   1      29.169  15.505 -24.319  0.00  0.00    -0.222 NA
ATOM     26  C   UNL d   1      28.636  16.135 -24.355  0.00  0.00     0.120 A 
ATOM     27  C   UNL d   1      29.074  16.812 -24.560  0.00  0.00     0.102 A 
ENDBRANCH  22  23
ENDBRANCH  21  22
ENDBRANCH  20  21
ENDBRANCH  19  20
ENDBRANCH   8  17
TORSDOF 5
ENDMDL
