MODEL 1
REMARK VINA RESULT:      -3.8      0.000      0.000
REMARK  4 active torsions:
REMARK  status: ('A' for Active; 'I' for Inactive)
REMARK    1  A    between atoms: N_6  and  C_1 
REMARK    2  A    between atoms: C_8  and  N_4 
REMARK    3  A    between atoms: C_9  and  N_6 
REMARK    4  A    between atoms: C_13  and  C_9 
ROOT
ATOM      1  C   UNL d   1     -41.452-122.330 -51.953  0.00  0.00     0.157 A 
ATOM      2  C   UNL d   1     -41.654-122.910 -51.403  0.00  0.00     0.298 A 
ATOM      3  N   UNL d   1     -41.480-121.777 -50.734  0.00  0.00    -0.238 N 
ATOM      4  N   UNL d   1     -41.670-122.564 -50.649  0.00  0.00    -0.209 N 
ATOM      5  C   UNL d   1     -41.339-121.617 -51.552  0.00  0.00     0.104 A 
ATOM      6  O   UNL d   1     -41.818-123.726 -51.579  0.00  0.00    -0.263 OA
ATOM      7  C   UNL d   1     -41.422-121.170 -50.095  0.00  0.00     0.120 C 
ATOM      8  C   UNL d   1     -41.123-120.858 -51.891  0.00  0.00     0.022 C 
ENDROOT
BRANCH   1   9
ATOM      9  N   UNL d   1     -41.370-122.440 -52.790  0.00  0.00    -0.238 NA
BRANCH   9  10
ATOM     10  C   UNL d   1     -42.020-122.356 -53.295  0.00  0.00     0.099 C 
BRANCH  10  11
ATOM     11  C   UNL d   1     -41.900-122.319 -54.121  0.00  0.00     0.022 A 
ATOM     12  C   UNL d   1     -42.414-121.901 -54.578  0.00  0.00     0.022 A 
ATOM     13  C   UNL d   1     -42.298-121.863 -55.401  0.00  0.00     0.099 A 
ATOM     14  N   UNL d   1     -41.684-122.232 -55.756  0.00  0.00    -0.242 NA
ATOM     15  C   UNL d   1     -41.148-122.664 -55.309  0.00  0.00     0.099 A 
ATOM     16  C   UNL d   1     -41.260-122.709 -54.464  0.00  0.00     0.022 A 
ENDBRANCH  10  11
ENDBRANCH   9  10
ENDBRANCH   1   9
BRANCH   4  17
ATOM     17  C   UNL d   1     -41.857-122.989 -49.942  0.00  0.00     0.085 A 
ATOM     18  C   UNL d   1     -42.637-123.047 -49.707  0.00  0.00     0.019 A 
ATOM     19  C   UNL d   1     -42.825-123.475 -48.996  0.00  0.00     0.002 A 
ATOM     20  C   UNL d   1     -42.221-123.817 -48.566  0.00  0.00     0.000 A 
ATOM     21  C   UNL d   1     -41.437-123.761 -48.801  0.00  0.00     0.002 A 
ATOM     22  C   UNL d   1     -41.249-123.333 -49.512  0.00  0.00     0.019 A 
ENDBRANCH   4  17
TORSDOF 4
ENDMDL
MODEL 2
REMARK VINA RESULT:      -3.3      0.878      4.533
REMARK  4 active torsions:
REMARK  status: ('A' for Active; 'I' for Inactive)
REMARK    1  A    between atoms: N_6  and  C_1 
REMARK    2  A    between atoms: C_8  and  N_4 
REMARK    3  A    between atoms: C_9  and  N_6 
REMARK    4  A    between atoms: C_13  and  C_9 
ROOT
ATOM      1  C   UNL d   1     -41.492-122.455 -51.435  0.00  0.00     0.157 A 
ATOM      2  C   UNL d   1     -41.613-122.846 -52.151  0.00  0.00     0.298 A 
ATOM      3  N   UNL d   1     -41.302-121.588 -52.437  0.00  0.00    -0.238 N 
ATOM      4  N   UNL d   1     -41.494-122.306 -52.769  0.00  0.00    -0.209 N 
ATOM      5  C   UNL d   1     -41.297-121.669 -51.596  0.00  0.00     0.104 A 
ATOM      6  O   UNL d   1     -41.823-123.665 -52.239  0.00  0.00    -0.263 OA
ATOM      7  C   UNL d   1     -41.123-120.835 -52.862  0.00  0.00     0.120 C 
ATOM      8  C   UNL d   1     -41.123-121.049 -51.027  0.00  0.00     0.022 C 
ENDROOT
BRANCH   1   9
ATOM      9  N   UNL d   1     -41.555-122.795 -50.660  0.00  0.00    -0.238 NA
BRANCH   9  10
ATOM     10  C   UNL d   1     -42.273-122.788 -50.250  0.00  0.00     0.099 C 
BRANCH  10  11
ATOM     11  C   UNL d   1     -42.319-123.131 -49.490  0.00  0.00     0.022 A 
ATOM     12  C   UNL d   1     -43.009-123.465 -49.247  0.00  0.00     0.022 A 
ATOM     13  C   UNL d   1     -43.059-123.808 -48.490  0.00  0.00     0.099 A 
ATOM     14  N   UNL d   1     -42.434-123.815 -47.991  0.00  0.00    -0.242 NA
ATOM     15  C   UNL d   1     -41.720-123.479 -48.218  0.00  0.00     0.099 A 
ATOM     16  C   UNL d   1     -41.661-123.126 -48.993  0.00  0.00     0.022 A 
ENDBRANCH  10  11
ENDBRANCH   9  10
ENDBRANCH   1   9
BRANCH   4  17
ATOM     17  C   UNL d   1     -41.569-122.507 -53.587  0.00  0.00     0.085 A 
ATOM     18  C   UNL d   1     -42.010-122.025 -54.077  0.00  0.00     0.019 A 
ATOM     19  C   UNL d   1     -42.086-122.227 -54.900  0.00  0.00     0.002 A 
ATOM     20  C   UNL d   1     -41.716-122.899 -55.180  0.00  0.00     0.000 A 
ATOM     21  C   UNL d   1     -41.272-123.386 -54.690  0.00  0.00     0.002 A 
ATOM     22  C   UNL d   1     -41.197-123.183 -53.867  0.00  0.00     0.019 A 
ENDBRANCH   4  17
TORSDOF 4
ENDMDL
