MODEL 1
REMARK VINA RESULT:      -6.8      0.000      0.000
REMARK  4 active torsions:
REMARK  status: ('A' for Active; 'I' for Inactive)
REMARK    1  A    between atoms: C_2  and  C_1 
REMARK    2  A    between atoms: N_4  and  C_1 
REMARK    3  A    between atoms: O_13  and  C_5 
REMARK    4  A    between atoms: O_12  and  C_6 
ROOT
ATOM      1  C   UNL d   1     -48.809  13.188  22.477  0.00  0.00     0.031 A 
ATOM      2  C   UNL d   1     -47.676  12.160  23.095  0.00  0.00     0.138 A 
ATOM      3  C   UNL d   1     -47.437  12.813  22.644  0.00  0.00     0.118 A 
ATOM      4  C   UNL d   1     -48.481  12.021  23.237  0.00  0.00     0.118 A 
ATOM      5  C   UNL d   1     -48.006  13.320  22.340  0.00  0.00     0.029 A 
ATOM      6  C   UNL d   1     -49.046  12.536  22.927  0.00  0.00     0.029 A 
ATOM      7  O   UNL d   1     -47.114  11.638  23.410  0.00  0.00    -0.324 OA
ATOM      8  C   UNL d   1     -46.520  11.156  23.697  0.00  0.00     0.182 C 
ENDROOT
BRANCH   4   9
ATOM      9  O   UNL d   1     -48.721  11.370  23.687  0.00  0.00    -0.326 OA
ATOM     10  C   UNL d   1     -49.494  11.102  23.642  0.00  0.00     0.181 C 
ENDBRANCH   4   9
BRANCH   3  11
ATOM     11  O   UNL d   1     -46.622  12.947  22.505  0.00  0.00    -0.326 OA
ATOM     12  C   UNL d   1     -46.327  13.727  22.538  0.00  0.00     0.181 C 
ENDBRANCH   3  11
BRANCH   1  13
ATOM     13  C   UNL d   1     -49.372  13.696  22.171  0.00  0.00     0.120 C 
ATOM     14  S   UNL d   1     -49.679  13.557  21.410  0.00  0.00    -0.059 SA
BRANCH  13  15
ATOM     15  N   UNL d   1     -49.633  14.345  22.619  0.00  0.00    -0.292 N 
ATOM     16  C   UNL d   1     -49.288  15.067  22.481  0.00  0.00     0.108 A 
ATOM     17  C   UNL d   1     -49.531  15.733  22.916  0.00  0.00     0.142 A 
ATOM     18  O   UNL d   1     -50.119  15.659  23.485  0.00  0.00    -0.300 OA
ATOM     19  C   UNL d   1     -50.466  14.923  23.620  0.00  0.00     0.142 A 
ATOM     20  C   UNL d   1     -50.224  14.270  23.191  0.00  0.00     0.108 A 
ENDBRANCH  13  15
ENDBRANCH   1  13
TORSDOF 4
ENDMDL
MODEL 2
REMARK VINA RESULT:      -6.8      1.266      3.303
REMARK  4 active torsions:
REMARK  status: ('A' for Active; 'I' for Inactive)
REMARK    1  A    between atoms: C_2  and  C_1 
REMARK    2  A    between atoms: N_4  and  C_1 
REMARK    3  A    between atoms: O_13  and  C_5 
REMARK    4  A    between atoms: O_12  and  C_6 
ROOT
ATOM      1  C   UNL d   1     -48.695  13.264  22.504  0.00  0.00     0.031 A 
ATOM      2  C   UNL d   1     -49.890  14.240  23.087  0.00  0.00     0.138 A 
ATOM      3  C   UNL d   1     -49.211  14.576  22.753  0.00  0.00     0.118 A 
ATOM      4  C   UNL d   1     -49.972  13.415  23.130  0.00  0.00     0.118 A 
ATOM      5  C   UNL d   1     -48.620  14.084  22.465  0.00  0.00     0.029 A 
ATOM      6  C   UNL d   1     -49.374  12.929  22.838  0.00  0.00     0.029 A 
ATOM      7  O   UNL d   1     -50.497  14.721  23.382  0.00  0.00    -0.324 OA
ATOM      8  C   UNL d   1     -51.063  15.242  23.658  0.00  0.00     0.182 C 
ENDROOT
BRANCH   4   9
ATOM      9  O   UNL d   1     -50.650  13.078  23.464  0.00  0.00    -0.326 OA
ATOM     10  C   UNL d   1     -50.798  12.277  23.372  0.00  0.00     0.181 C 
ENDBRANCH   4   9
BRANCH   3  11
ATOM     11  O   UNL d   1     -49.136  15.409  22.712  0.00  0.00    -0.326 OA
ATOM     12  C   UNL d   1     -48.517  15.740  22.261  0.00  0.00     0.181 C 
ENDBRANCH   3  11
BRANCH   1  13
ATOM     13  C   UNL d   1     -48.103  12.778  22.216  0.00  0.00     0.120 C 
ATOM     14  S   UNL d   1     -48.156  12.485  21.438  0.00  0.00    -0.059 SA
BRANCH  13  15
ATOM     15  N   UNL d   1     -47.456  12.580  22.698  0.00  0.00    -0.292 N 
ATOM     16  C   UNL d   1     -46.781  13.026  22.631  0.00  0.00     0.108 A 
ATOM     17  C   UNL d   1     -46.119  12.849  23.103  0.00  0.00     0.142 A 
ATOM     18  O   UNL d   1     -46.149  12.225  23.635  0.00  0.00    -0.300 OA
ATOM     19  C   UNL d   1     -46.837  11.775  23.698  0.00  0.00     0.142 A 
ATOM     20  C   UNL d   1     -47.487  11.952  23.233  0.00  0.00     0.108 A 
ENDBRANCH  13  15
ENDBRANCH   1  13
TORSDOF 4
ENDMDL
MODEL 3
REMARK VINA RESULT:      -6.5      1.271      3.724
REMARK  4 active torsions:
REMARK  status: ('A' for Active; 'I' for Inactive)
REMARK    1  A    between atoms: C_2  and  C_1 
REMARK    2  A    between atoms: N_4  and  C_1 
REMARK    3  A    between atoms: O_13  and  C_5 
REMARK    4  A    between atoms: O_12  and  C_6 
ROOT
ATOM      1  C   UNL d   1     -48.479  13.176  22.453  0.00  0.00     0.031 A 
ATOM      2  C   UNL d   1     -49.763  14.008  23.069  0.00  0.00     0.138 A 
ATOM      3  C   UNL d   1     -49.709  13.189  23.186  0.00  0.00     0.118 A 
ATOM      4  C   UNL d   1     -49.176  14.411  22.644  0.00  0.00     0.118 A 
ATOM      5  C   UNL d   1     -49.067  12.782  22.877  0.00  0.00     0.029 A 
ATOM      6  C   UNL d   1     -48.535  13.993  22.337  0.00  0.00     0.029 A 
ATOM      7  O   UNL d   1     -50.405  14.434  23.375  0.00  0.00    -0.324 OA
ATOM      8  C   UNL d   1     -51.057  14.806  23.698  0.00  0.00     0.182 C 
ENDROOT
BRANCH   4   9
ATOM      9  O   UNL d   1     -49.229  15.228  22.527  0.00  0.00    -0.326 OA
ATOM     10  C   UNL d   1     -48.561  15.658  22.327  0.00  0.00     0.181 C 
ENDBRANCH   4   9
BRANCH   3  11
ATOM     11  O   UNL d   1     -50.306  12.789  23.616  0.00  0.00    -0.326 OA
ATOM     12  C   UNL d   1     -50.505  12.007  23.404  0.00  0.00     0.181 C 
ENDBRANCH   3  11
BRANCH   1  13
ATOM     13  C   UNL d   1     -47.841  12.766  22.146  0.00  0.00     0.120 C 
ATOM     14  S   UNL d   1     -47.896  12.433  21.385  0.00  0.00    -0.059 SA
BRANCH  13  15
ATOM     15  N   UNL d   1     -47.146  12.683  22.594  0.00  0.00    -0.292 N 
ATOM     16  C   UNL d   1     -47.131  12.114  23.172  0.00  0.00     0.108 A 
ATOM     17  C   UNL d   1     -46.447  12.011  23.635  0.00  0.00     0.142 A 
ATOM     18  O   UNL d   1     -45.789  12.485  23.506  0.00  0.00    -0.300 OA
ATOM     19  C   UNL d   1     -45.811  13.061  22.917  0.00  0.00     0.142 A 
ATOM     20  C   UNL d   1     -46.485  13.161  22.463  0.00  0.00     0.108 A 
ENDBRANCH  13  15
ENDBRANCH   1  13
TORSDOF 4
ENDMDL
MODEL 4
REMARK VINA RESULT:      -5.4      1.398      2.396
REMARK  4 active torsions:
REMARK  status: ('A' for Active; 'I' for Inactive)
REMARK    1  A    between atoms: C_2  and  C_1 
REMARK    2  A    between atoms: N_4  and  C_1 
REMARK    3  A    between atoms: O_13  and  C_5 
REMARK    4  A    between atoms: O_12  and  C_6 
ROOT
ATOM      1  C   UNL d   1     -48.344  12.869  22.439  0.00  0.00     0.031 A 
ATOM      2  C   UNL d   1     -47.023  13.708  22.961  0.00  0.00     0.138 A 
ATOM      3  C   UNL d   1     -47.641  14.108  22.582  0.00  0.00     0.118 A 
ATOM      4  C   UNL d   1     -47.065  12.887  23.079  0.00  0.00     0.118 A 
ATOM      5  C   UNL d   1     -48.295  13.685  22.325  0.00  0.00     0.029 A 
ATOM      6  C   UNL d   1     -47.726  12.470  22.818  0.00  0.00     0.029 A 
ATOM      7  O   UNL d   1     -46.355  14.120  23.226  0.00  0.00    -0.324 OA
ATOM      8  C   UNL d   1     -45.720  14.574  23.468  0.00  0.00     0.182 C 
ENDROOT
BRANCH   4   9
ATOM      9  O   UNL d   1     -46.449  12.486  23.457  0.00  0.00    -0.326 OA
ATOM     10  C   UNL d   1     -46.163  11.785  23.145  0.00  0.00     0.181 C 
ENDBRANCH   4   9
BRANCH   3  11
ATOM     11  O   UNL d   1     -47.591  14.936  22.466  0.00  0.00    -0.326 OA
ATOM     12  C   UNL d   1     -48.218  15.331  22.081  0.00  0.00     0.181 C 
ENDBRANCH   3  11
BRANCH   1  13
ATOM     13  C   UNL d   1     -48.999  12.451  22.181  0.00  0.00     0.120 C 
ATOM     14  S   UNL d   1     -49.016  12.158  21.402  0.00  0.00    -0.059 SA
BRANCH  13  15
ATOM     15  N   UNL d   1     -49.639  12.323  22.695  0.00  0.00    -0.292 N 
ATOM     16  C   UNL d   1     -50.245  12.864  22.690  0.00  0.00     0.108 A 
ATOM     17  C   UNL d   1     -50.898  12.759  23.195  0.00  0.00     0.142 A 
ATOM     18  O   UNL d   1     -50.928  12.110  23.697  0.00  0.00    -0.300 OA
ATOM     19  C   UNL d   1     -50.310  11.565  23.697  0.00  0.00     0.142 A 
ATOM     20  C   UNL d   1     -49.669  11.670  23.199  0.00  0.00     0.108 A 
ENDBRANCH  13  15
ENDBRANCH   1  13
TORSDOF 4
ENDMDL
MODEL 5
REMARK VINA RESULT:      -5.1      1.785      2.973
REMARK  4 active torsions:
REMARK  status: ('A' for Active; 'I' for Inactive)
REMARK    1  A    between atoms: C_2  and  C_1 
REMARK    2  A    between atoms: N_4  and  C_1 
REMARK    3  A    between atoms: O_13  and  C_5 
REMARK    4  A    between atoms: O_12  and  C_6 
ROOT
ATOM      1  C   UNL d   1     -46.737  13.178  22.735  0.00  0.00     0.031 A 
ATOM      2  C   UNL d   1     -45.477  12.128  22.908  0.00  0.00     0.138 A 
ATOM      3  C   UNL d   1     -46.208  11.954  23.256  0.00  0.00     0.118 A 
ATOM      4  C   UNL d   1     -45.376  12.827  22.472  0.00  0.00     0.118 A 
ATOM      5  C   UNL d   1     -46.831  12.481  23.166  0.00  0.00     0.029 A 
ATOM      6  C   UNL d   1     -46.007  13.350  22.387  0.00  0.00     0.029 A 
ATOM      7  O   UNL d   1     -44.838  11.607  22.989  0.00  0.00    -0.324 OA
ATOM      8  C   UNL d   1     -44.241  11.059  23.100  0.00  0.00     0.182 C 
ENDROOT
BRANCH   4   9
ATOM      9  O   UNL d   1     -44.646  13.002  22.124  0.00  0.00    -0.326 OA
ATOM     10  C   UNL d   1     -44.600  13.560  21.526  0.00  0.00     0.181 C 
ENDBRANCH   4   9
BRANCH   3  11
ATOM     11  O   UNL d   1     -46.303  11.247  23.694  0.00  0.00    -0.326 OA
ATOM     12  C   UNL d   1     -47.046  10.867  23.698  0.00  0.00     0.181 C 
ENDBRANCH   3  11
BRANCH   1  13
ATOM     13  C   UNL d   1     -47.361  13.700  22.648  0.00  0.00     0.120 C 
ATOM     14  S   UNL d   1     -47.299  14.468  22.963  0.00  0.00    -0.059 SA
BRANCH  13  15
ATOM     15  N   UNL d   1     -48.049  13.462  22.247  0.00  0.00    -0.292 N 
ATOM     16  C   UNL d   1     -48.759  13.530  22.636  0.00  0.00     0.108 A 
ATOM     17  C   UNL d   1     -49.463  13.299  22.257  0.00  0.00     0.142 A 
ATOM     18  O   UNL d   1     -49.439  13.003  21.492  0.00  0.00    -0.300 OA
ATOM     19  C   UNL d   1     -48.715  12.937  21.103  0.00  0.00     0.142 A 
ATOM     20  C   UNL d   1     -48.024  13.165  21.477  0.00  0.00     0.108 A 
ENDBRANCH  13  15
ENDBRANCH   1  13
TORSDOF 4
ENDMDL
MODEL 6
REMARK VINA RESULT:      -4.5      9.324     10.357
REMARK  4 active torsions:
REMARK  status: ('A' for Active; 'I' for Inactive)
REMARK    1  A    between atoms: C_2  and  C_1 
REMARK    2  A    between atoms: N_4  and  C_1 
REMARK    3  A    between atoms: O_13  and  C_5 
REMARK    4  A    between atoms: O_12  and  C_6 
ROOT
ATOM      1  C   UNL d   1     -40.059  14.428  18.745  0.00  0.00     0.031 A 
ATOM      2  C   UNL d   1     -39.390  14.439  17.237  0.00  0.00     0.138 A 
ATOM      3  C   UNL d   1     -39.087  13.932  17.818  0.00  0.00     0.118 A 
ATOM      4  C   UNL d   1     -40.029  14.940  17.410  0.00  0.00     0.118 A 
ATOM      5  C   UNL d   1     -39.424  13.932  18.566  0.00  0.00     0.029 A 
ATOM      6  C   UNL d   1     -40.361  14.933  18.164  0.00  0.00     0.029 A 
ATOM      7  O   UNL d   1     -39.061  14.452  16.477  0.00  0.00    -0.324 OA
ATOM      8  C   UNL d   1     -38.700  14.424  15.744  0.00  0.00     0.182 C 
ENDROOT
BRANCH   4   9
ATOM      9  O   UNL d   1     -40.333  15.446  16.831  0.00  0.00    -0.326 OA
ATOM     10  C   UNL d   1     -40.981  15.919  16.998  0.00  0.00     0.181 C 
ENDBRANCH   4   9
BRANCH   3  11
ATOM     11  O   UNL d   1     -38.442  13.429  17.636  0.00  0.00    -0.326 OA
ATOM     12  C   UNL d   1     -38.363  12.706  18.046  0.00  0.00     0.181 C 
ENDBRANCH   3  11
BRANCH   1  13
ATOM     13  C   UNL d   1     -40.392  14.424  19.492  0.00  0.00     0.120 C 
ATOM     14  S   UNL d   1     -41.134  14.064  19.608  0.00  0.00    -0.059 SA
BRANCH  13  15
ATOM     15  N   UNL d   1     -39.990  14.777  20.128  0.00  0.00    -0.292 N 
ATOM     16  C   UNL d   1     -39.656  14.289  20.685  0.00  0.00     0.108 A 
ATOM     17  C   UNL d   1     -39.248  14.618  21.331  0.00  0.00     0.142 A 
ATOM     18  O   UNL d   1     -39.184  15.433  21.406  0.00  0.00    -0.300 OA
ATOM     19  C   UNL d   1     -39.525  15.922  20.837  0.00  0.00     0.142 A 
ATOM     20  C   UNL d   1     -39.926  15.597  20.202  0.00  0.00     0.108 A 
ENDBRANCH  13  15
ENDBRANCH   1  13
TORSDOF 4
ENDMDL
MODEL 7
REMARK VINA RESULT:      -4.1      8.651     10.423
REMARK  4 active torsions:
REMARK  status: ('A' for Active; 'I' for Inactive)
REMARK    1  A    between atoms: C_2  and  C_1 
REMARK    2  A    between atoms: N_4  and  C_1 
REMARK    3  A    between atoms: O_13  and  C_5 
REMARK    4  A    between atoms: O_12  and  C_6 
ROOT
ATOM      1  C   UNL d   1     -39.049  15.387  20.306  0.00  0.00     0.031 A 
ATOM      2  C   UNL d   1     -40.058  15.615  19.022  0.00  0.00     0.138 A 
ATOM      3  C   UNL d   1     -39.246  15.514  18.894  0.00  0.00     0.118 A 
ATOM      4  C   UNL d   1     -40.366  15.602  19.792  0.00  0.00     0.118 A 
ATOM      5  C   UNL d   1     -38.750  15.401  19.538  0.00  0.00     0.029 A 
ATOM      6  C   UNL d   1     -39.860  15.488  20.433  0.00  0.00     0.029 A 
ATOM      7  O   UNL d   1     -40.574  15.730  18.383  0.00  0.00    -0.324 OA
ATOM      8  C   UNL d   1     -41.037  15.840  17.719  0.00  0.00     0.182 C 
ENDROOT
BRANCH   4   9
ATOM      9  O   UNL d   1     -41.177  15.703  19.922  0.00  0.00    -0.326 OA
ATOM     10  C   UNL d   1     -41.451  15.922  20.662  0.00  0.00     0.181 C 
ENDBRANCH   4   9
BRANCH   3  11
ATOM     11  O   UNL d   1     -38.943  15.528  18.113  0.00  0.00    -0.326 OA
ATOM     12  C   UNL d   1     -38.154  15.291  17.979  0.00  0.00     0.181 C 
ENDBRANCH   3  11
BRANCH   1  13
ATOM     13  C   UNL d   1     -38.550  15.274  20.945  0.00  0.00     0.120 C 
ATOM     14  S   UNL d   1     -38.082  15.908  21.216  0.00  0.00    -0.059 SA
BRANCH  13  15
ATOM     15  N   UNL d   1     -38.512  14.532  21.317  0.00  0.00    -0.292 N 
ATOM     16  C   UNL d   1     -37.996  13.982  21.017  0.00  0.00     0.108 A 
ATOM     17  C   UNL d   1     -37.940  13.230  21.371  0.00  0.00     0.142 A 
ATOM     18  O   UNL d   1     -38.405  13.048  22.022  0.00  0.00    -0.300 OA
ATOM     19  C   UNL d   1     -38.927  13.611  22.322  0.00  0.00     0.142 A 
ATOM     20  C   UNL d   1     -38.981  14.349  21.972  0.00  0.00     0.108 A 
ENDBRANCH  13  15
ENDBRANCH   1  13
TORSDOF 4
ENDMDL
MODEL 8
REMARK VINA RESULT:      -4.1      9.117     11.032
REMARK  4 active torsions:
REMARK  status: ('A' for Active; 'I' for Inactive)
REMARK    1  A    between atoms: C_2  and  C_1 
REMARK    2  A    between atoms: N_4  and  C_1 
REMARK    3  A    between atoms: O_13  and  C_5 
REMARK    4  A    between atoms: O_12  and  C_6 
ROOT
ATOM      1  C   UNL d   1     -39.077  15.375  18.642  0.00  0.00     0.031 A 
ATOM      2  C   UNL d   1     -40.332  15.607  17.598  0.00  0.00     0.138 A 
ATOM      3  C   UNL d   1     -40.470  15.611  18.414  0.00  0.00     0.118 A 
ATOM      4  C   UNL d   1     -39.566  15.487  17.302  0.00  0.00     0.118 A 
ATOM      5  C   UNL d   1     -39.841  15.495  18.928  0.00  0.00     0.029 A 
ATOM      6  C   UNL d   1     -38.940  15.371  17.826  0.00  0.00     0.029 A 
ATOM      7  O   UNL d   1     -40.956  15.723  17.065  0.00  0.00    -0.324 OA
ATOM      8  C   UNL d   1     -41.607  15.841  16.584  0.00  0.00     0.182 C 
ENDROOT
BRANCH   4   9
ATOM      9  O   UNL d   1     -39.427  15.483  16.487  0.00  0.00    -0.326 OA
ATOM     10  C   UNL d   1     -38.660  15.527  16.201  0.00  0.00     0.181 C 
ENDBRANCH   4   9
BRANCH   3  11
ATOM     11  O   UNL d   1     -41.247  15.733  18.705  0.00  0.00    -0.326 OA
ATOM     12  C   UNL d   1     -41.354  15.921  19.511  0.00  0.00     0.181 C 
ENDBRANCH   3  11
BRANCH   1  13
ATOM     13  C   UNL d   1     -38.453  15.259  19.158  0.00  0.00     0.120 C 
ATOM     14  S   UNL d   1     -37.941  15.893  19.330  0.00  0.00    -0.059 SA
BRANCH  13  15
ATOM     15  N   UNL d   1     -38.334  14.514  19.507  0.00  0.00    -0.292 N 
ATOM     16  C   UNL d   1     -38.485  14.437  20.300  0.00  0.00     0.108 A 
ATOM     17  C   UNL d   1     -38.374  13.701  20.673  0.00  0.00     0.142 A 
ATOM     18  O   UNL d   1     -38.112  13.056  20.239  0.00  0.00    -0.300 OA
ATOM     19  C   UNL d   1     -37.960  13.142  19.433  0.00  0.00     0.142 A 
ATOM     20  C   UNL d   1     -38.070  13.866  19.068  0.00  0.00     0.108 A 
ENDBRANCH  13  15
ENDBRANCH   1  13
TORSDOF 4
ENDMDL
