MODEL 1
REMARK VINA RESULT:      48.8      0.000      0.000
REMARK  4 active torsions:
REMARK  status: ('A' for Active; 'I' for Inactive)
REMARK    1  A    between atoms: S_2  and  N_1 
REMARK    2  A    between atoms: N_6  and  S_2 
REMARK    3  A    between atoms: C_10  and  C_3 
REMARK    4  A    between atoms: C_14  and  C_10 
ROOT
ATOM      1  N   UNL d   1     -50.939  25.235  33.334  0.00  0.00    -0.201 N 
ATOM      2  C   UNL d   1     -51.432  24.558  33.324  0.00  0.00     0.158 A 
ATOM      3  N   UNL d   1     -50.941  23.889  33.328  0.00  0.00    -0.226 NA
ATOM      4  C   UNL d   1     -50.160  24.974  33.345  0.00  0.00     0.095 A 
ATOM      5  C   UNL d   1     -50.159  24.148  33.341  0.00  0.00     0.100 A 
ATOM      6  C   UNL d   1     -49.450  25.392  33.358  0.00  0.00     0.020 A 
ATOM      7  C   UNL d   1     -49.441  23.742  33.350  0.00  0.00     0.021 A 
ATOM      8  C   UNL d   1     -48.732  24.987  33.366  0.00  0.00     0.002 A 
ATOM      9  C   UNL d   1     -48.725  24.157  33.363  0.00  0.00     0.002 A 
ENDROOT
BRANCH   1  10
ATOM     10  S   UNL d   1     -51.190  26.012  33.334  0.00  0.00     0.338 S 
ATOM     11  O   UNL d   1     -50.410  26.273  33.321  0.00  0.00    -0.181 OA
ATOM     12  O   UNL d   1     -51.973  25.753  33.347  0.00  0.00    -0.181 OA
BRANCH  10  13
ATOM     13  N   UNL d   1     -51.456  26.791  33.334  0.00  0.00    -0.212 N 
ATOM     14  C   UNL d   1     -50.916  27.410  33.358  0.00  0.00     0.120 A 
ATOM     15  C   UNL d   1     -51.188  28.196  33.358  0.00  0.00     0.142 A 
ATOM     16  O   UNL d   1     -52.000  28.346  33.334  0.00  0.00    -0.300 OA
ATOM     17  C   UNL d   1     -52.530  27.725  33.311  0.00  0.00     0.142 A 
ATOM     18  C   UNL d   1     -52.266  26.950  33.311  0.00  0.00     0.120 A 
ENDBRANCH  10  13
ENDBRANCH   1  10
BRANCH   2  19
ATOM     19  C   UNL d   1     -52.260  24.560  33.311  0.00  0.00     0.038 C 
BRANCH  19  20
ATOM     20  C   UNL d   1     -52.674  24.157  33.896  0.00  0.00     0.003 A 
ATOM     21  C   UNL d   1     -52.505  24.306  34.691  0.00  0.00     0.000 A 
ATOM     22  C   UNL d   1     -52.919  23.903  35.276  0.00  0.00     0.000 A 
ATOM     23  C   UNL d   1     -53.495  23.358  35.077  0.00  0.00     0.000 A 
ATOM     24  C   UNL d   1     -53.665  23.208  34.277  0.00  0.00     0.000 A 
ATOM     25  C   UNL d   1     -53.250  23.612  33.689  0.00  0.00     0.000 A 
ENDBRANCH  19  20
ENDBRANCH   2  19
TORSDOF 4
ENDMDL
