MODEL 1
REMARK VINA RESULT:     120.0      0.000      0.000
REMARK  9 active torsions:
REMARK  status: ('A' for Active; 'I' for Inactive)
REMARK    1  A    between atoms: N_4  and  C_1 
REMARK    2  A    between atoms: C_12  and  C_3 
REMARK       I    between atoms: C_11  and  N_4 
REMARK       I    between atoms: C_6  and  N_5 
REMARK    3  A    between atoms: O_27  and  C_6 
REMARK       I    between atoms: N_7  and  C_10 
REMARK    4  A    between atoms: C_10  and  C_28 
REMARK    5  A    between atoms: C_29  and  C_11 
REMARK    6  A    between atoms: C_25  and  C_18 
REMARK    7  A    between atoms: S_26  and  C_29 
REMARK    8  A    between atoms: C_28  and  S_26 
REMARK    9  A    between atoms: C_32  and  O_27 
ROOT
ATOM      1  N   UNL d   1      60.428  48.282  50.037  0.00  0.00    -0.182 NA
ATOM      2  C   UNL d   1      60.313  48.904  50.544  0.00  0.00     0.288 C 
ATOM      3  O   UNL d   1      60.737  48.953  51.235  0.00  0.00    -0.265 OA
ENDROOT
BRANCH   1   4
ATOM      4  C   UNL d   1      60.973  47.703  50.225  0.00  0.00     0.197 A 
ATOM      5  N   UNL d   1      60.813  46.910  50.339  0.00  0.00    -0.221 NA
ATOM      6  C   UNL d   1      61.509  46.534  50.516  0.00  0.00     0.090 A 
ATOM      7  C   UNL d   1      62.097  47.097  50.510  0.00  0.00     0.058 A 
ATOM      8  S   UNL d   1      61.769  47.814  50.332  0.00  0.00    -0.046 SA
BRANCH   6   9
ATOM      9  C   UNL d   1      61.600  45.746  50.668  0.00  0.00     0.018 A 
ATOM     10  C   UNL d   1      62.185  45.330  50.300  0.00  0.00     0.002 A 
ATOM     11  C   UNL d   1      62.279  44.540  50.451  0.00  0.00     0.000 A 
ATOM     12  C   UNL d   1      61.782  44.171  50.974  0.00  0.00     0.000 A 
ATOM     13  C   UNL d   1      61.191  44.592  51.346  0.00  0.00     0.000 A 
ATOM     14  C   UNL d   1      61.108  45.379  51.187  0.00  0.00     0.002 A 
BRANCH  12  15
ATOM     15  C   UNL d   1      61.874  43.359  51.132  0.00  0.00     0.000 A 
ATOM     16  C   UNL d   1      61.427  43.009  51.741  0.00  0.00     0.000 A 
ATOM     17  C   UNL d   1      61.515  42.205  51.902  0.00  0.00     0.000 A 
ATOM     18  C   UNL d   1      62.050  41.751  51.454  0.00  0.00     0.000 A 
ATOM     19  C   UNL d   1      62.493  42.109  50.847  0.00  0.00     0.000 A 
ATOM     20  C   UNL d   1      62.399  42.917  50.691  0.00  0.00     0.000 A 
ENDBRANCH  12  15
ENDBRANCH   6   9
ENDBRANCH   1   4
BRANCH   2  21
ATOM     21  C   UNL d   1      59.773  49.476  50.356  0.00  0.00     0.098 C 
BRANCH  21  22
ATOM     22  S   UNL d   1      58.986  49.334  50.675  0.00  0.00    -0.076 SA
BRANCH  22  23
ATOM     23  C   UNL d   1      58.300  49.700  50.312  0.00  0.00     0.097 C 
BRANCH  23  24
ATOM     24  C   UNL d   1      57.515  49.497  50.574  0.00  0.00     0.271 C 
ATOM     25  N   UNL d   1      57.329  49.498  51.410  0.00  0.00    -0.269 N 
ATOM     26  C   UNL d   1      56.543  49.296  51.681  0.00  0.00     0.102 A 
ATOM     27  C   UNL d   1      57.943  49.706  51.984  0.00  0.00     0.102 A 
ATOM     28  C   UNL d   1      56.361  49.298  52.519  0.00  0.00     0.104 A 
ATOM     29  N   UNL d   1      56.975  49.506  53.092  0.00  0.00    -0.249 N 
ATOM     30  C   UNL d   1      57.758  49.708  52.821  0.00  0.00     0.104 A 
ATOM     31  C   UNL d   1      56.797  49.507  53.899  0.00  0.00     0.378 C 
ATOM     32  O   UNL d   1      56.036  49.311  54.159  0.00  0.00    -0.237 OA
ATOM     33  O   UNL d   1      56.914  49.293  50.008  0.00  0.00    -0.266 OA
BRANCH  31  34
ATOM     34  O   UNL d   1      57.385  49.706  54.447  0.00  0.00    -0.257 OA
BRANCH  34  35
ATOM     35  C   UNL d   1      57.286  49.530  55.248  0.00  0.00     0.128 C 
ATOM     36  C   UNL d   1      56.525  49.433  55.569  0.00  0.00     0.029 C 
ENDBRANCH  34  35
ENDBRANCH  31  34
ENDBRANCH  23  24
ENDBRANCH  22  23
ENDBRANCH  21  22
ENDBRANCH   2  21
TORSDOF 9
ENDMDL
