MODEL 1
REMARK VINA RESULT:      -5.4      0.000      0.000
REMARK  4 active torsions:
REMARK  status: ('A' for Active; 'I' for Inactive)
REMARK    1  A    between atoms: C_2  and  C_1 
REMARK       I    between atoms: N_7  and  C_2 
REMARK    2  A    between atoms: N_6  and  C_5 
REMARK    3  A    between atoms: C_10  and  N_7 
REMARK    4  A    between atoms: C_8  and  C_9 
ROOT
ATOM      1  C   UNL d   1     -41.538-123.138 -52.222  0.00  0.00     0.021 A 
ATOM      2  C   UNL d   1     -41.636-122.492 -53.493  0.00  0.00     0.085 A 
ATOM      3  C   UNL d   1     -41.742-122.479 -52.675  0.00  0.00     0.021 A 
ATOM      4  C   UNL d   1     -41.226-123.810 -52.588  0.00  0.00     0.002 A 
ATOM      5  C   UNL d   1     -41.123-123.817 -53.399  0.00  0.00     0.002 A 
ATOM      6  C   UNL d   1     -41.327-123.158 -53.852  0.00  0.00     0.019 A 
ENDROOT
BRANCH   1   7
ATOM      7  C   UNL d   1     -41.647-123.122 -51.396  0.00  0.00     0.103 A 
ATOM      8  N   UNL d   1     -42.212-123.600 -51.049  0.00  0.00    -0.147 NA
ATOM      9  N   UNL d   1     -42.317-123.581 -50.230  0.00  0.00    -0.130 NA
ATOM     10  C   UNL d   1     -41.853-123.081 -49.766  0.00  0.00     0.169 A 
ATOM     11  C   UNL d   1     -41.281-122.599 -50.125  0.00  0.00     0.041 A 
ATOM     12  C   UNL d   1     -41.182-122.622 -50.932  0.00  0.00     0.024 A 
BRANCH  10  13
ATOM     13  N   UNL d   1     -41.954-123.060 -48.955  0.00  0.00    -0.288 N 
ATOM     14  C   UNL d   1     -42.707-122.946 -48.639  0.00  0.00     0.082 A 
ATOM     15  C   UNL d   1     -42.814-122.923 -47.821  0.00  0.00     0.019 A 
ATOM     16  C   UNL d   1     -42.166-123.015 -47.319  0.00  0.00     0.003 A 
ATOM     17  C   UNL d   1     -41.411-123.129 -47.634  0.00  0.00     0.019 A 
ATOM     18  C   UNL d   1     -41.306-123.151 -48.453  0.00  0.00     0.082 A 
ENDBRANCH  10  13
ENDBRANCH   1   7
BRANCH   2  19
ATOM     19  N   UNL d   1     -41.840-121.833 -53.945  0.00  0.00    -0.205 NA
ATOM     20  C   UNL d   1     -42.120-121.926 -54.708  0.00  0.00     0.351 C 
ATOM     21  O   UNL d   1     -42.198-122.685 -55.024  0.00  0.00    -0.261 OA
BRANCH  20  22
ATOM     22  C   UNL d   1     -42.324-121.272 -55.157  0.00  0.00     0.474 C 
ATOM     23  F   UNL d   1     -42.528-120.613 -55.610  0.00  0.00    -0.162 F 
ATOM     24  F   UNL d   1     -42.933-121.098 -54.629  0.00  0.00    -0.162 F 
ATOM     25  F   UNL d   1     -41.715-121.445 -55.686  0.00  0.00    -0.162 F 
ENDBRANCH  20  22
ENDBRANCH   2  19
TORSDOF 4
ENDMDL
