MODEL 1
REMARK VINA RESULT:      12.8      0.000      0.000
REMARK  6 active torsions:
REMARK  status: ('A' for Active; 'I' for Inactive)
REMARK    1  A    between atoms: N_7  and  C_1 
REMARK    2  A    between atoms: C_6  and  C_4 
REMARK    3  A    between atoms: C_20  and  N_9 
REMARK    4  A    between atoms: C_23  and  C_13 
REMARK    5  A    between atoms: O_19  and  C_23 
REMARK    6  A    between atoms: C_21  and  O_19 
ROOT
ATOM      1  C   UNL d   1     -41.634-123.041 -51.526  0.00  0.00     0.198 A 
ATOM      2  C   UNL d   1     -41.428-122.300 -51.838  0.00  0.00     0.191 A 
ATOM      3  O   UNL d   1     -41.697-123.577 -52.139  0.00  0.00    -0.268 OA
ATOM      4  C   UNL d   1     -41.537-123.191 -52.823  0.00  0.00     0.208 A 
ATOM      5  N   UNL d   1     -41.368-122.398 -52.654  0.00  0.00    -0.206 NA
ATOM      6  C   UNL d   1     -41.300-121.575 -51.427  0.00  0.00     0.124 C 
ATOM      7  N   UNL d   1     -41.174-120.857 -51.011  0.00  0.00    -0.190 NA
ENDROOT
BRANCH   1   8
ATOM      8  N   UNL d   1     -41.735-123.117 -50.705  0.00  0.00    -0.280 N 
ATOM      9  C   UNL d   1     -42.388-122.794 -50.354  0.00  0.00     0.101 A 
ATOM     10  C   UNL d   1     -42.489-122.871 -49.539  0.00  0.00     0.100 A 
ATOM     11  N   UNL d   1     -41.934-123.268 -49.096  0.00  0.00    -0.301 N 
ATOM     12  C   UNL d   1     -41.257-123.604 -49.455  0.00  0.00     0.100 A 
ATOM     13  C   UNL d   1     -41.156-123.527 -50.271  0.00  0.00     0.101 A 
BRANCH  11  14
ATOM     14  C   UNL d   1     -42.034-123.344 -48.285  0.00  0.00     0.064 A 
ATOM     15  C   UNL d   1     -41.383-123.388 -47.802  0.00  0.00     0.018 A 
ATOM     16  C   UNL d   1     -41.485-123.465 -46.982  0.00  0.00     0.002 A 
ATOM     17  C   UNL d   1     -42.233-123.495 -46.676  0.00  0.00     0.000 A 
ATOM     18  C   UNL d   1     -42.905-123.451 -47.156  0.00  0.00     0.002 A 
ATOM     19  C   UNL d   1     -42.804-123.374 -47.976  0.00  0.00     0.018 A 
ENDBRANCH  11  14
ENDBRANCH   1   8
BRANCH   4  20
ATOM     20  C   UNL d   1     -41.420-123.043 -53.635  0.00  0.00     0.141 A 
ATOM     21  O   UNL d   1     -41.313-122.533 -54.266  0.00  0.00    -0.301 OA
ATOM     22  C   UNL d   1     -41.241-123.001 -54.931  0.00  0.00     0.125 A 
ATOM     23  C   UNL d   1     -41.295-123.774 -54.758  0.00  0.00     0.029 A 
ATOM     24  C   UNL d   1     -41.408-123.817 -53.950  0.00  0.00     0.030 A 
BRANCH  22  25
ATOM     25  C   UNL d   1     -41.123-122.733 -55.710  0.00  0.00     0.147 C 
BRANCH  25  26
ATOM     26  O   UNL d   1     -41.256-121.950 -55.937  0.00  0.00    -0.303 OA
BRANCH  26  27
ATOM     27  C   UNL d   1     -41.923-121.737 -56.324  0.00  0.00     0.100 A 
ATOM     28  C   UNL d   1     -41.961-121.033 -56.748  0.00  0.00     0.023 A 
ATOM     29  C   UNL d   1     -41.279-120.517 -56.779  0.00  0.00     0.002 C 
ATOM     30  C   UNL d   1     -42.626-120.795 -57.149  0.00  0.00     0.002 A 
ATOM     31  C   UNL d   1     -43.295-121.289 -57.126  0.00  0.00     0.000 A 
ATOM     32  C   UNL d   1     -43.281-121.997 -56.709  0.00  0.00     0.002 A 
ATOM     33  C   UNL d   1     -42.592-122.206 -56.315  0.00  0.00     0.025 A 
ENDBRANCH  26  27
ENDBRANCH  25  26
ENDBRANCH  22  25
ENDBRANCH   4  20
TORSDOF 6
ENDMDL
