MODEL 1
REMARK VINA RESULT:      51.8      0.000      0.000
REMARK  5 active torsions:
REMARK  status: ('A' for Active; 'I' for Inactive)
REMARK    1  A    between atoms: N_2  and  S_1 
REMARK    2  A    between atoms: C_4  and  S_1 
REMARK    3  A    between atoms: C_3  and  C_6 
REMARK    4  A    between atoms: C_12  and  N_5 
REMARK    5  A    between atoms: O_24  and  C_20 
ROOT
ATOM      1  N   UNL d   1      13.819  12.570  -1.459  0.00  0.00    -0.226 N 
ATOM      2  N   UNL d   1      13.720  13.350  -2.905  0.00  0.00    -0.301 N 
ATOM      3  C   UNL d   1      14.145  12.228  -2.137  0.00  0.00     0.111 A 
ATOM      4  C   UNL d   1      13.440  13.311  -1.508  0.00  0.00     0.111 A 
ATOM      5  C   UNL d   1      13.393  13.697  -2.236  0.00  0.00     0.100 A 
ATOM      6  C   UNL d   1      14.093  12.620  -2.853  0.00  0.00     0.100 A 
ENDROOT
BRANCH   1   7
ATOM      7  S   UNL d   1      13.865  12.189  -0.742  0.00  0.00     0.271 S 
ATOM      8  O   UNL d   1      13.912  11.803  -0.014  0.00  0.00    -0.200 OA
ATOM      9  O   UNL d   1      13.179  11.779  -0.911  0.00  0.00    -0.200 OA
BRANCH   7  10
ATOM     10  C   UNL d   1      14.558  12.601  -0.568  0.00  0.00     0.104 A 
ATOM     11  C   UNL d   1      14.545  13.421  -0.462  0.00  0.00     0.017 A 
ATOM     12  C   UNL d   1      15.238  13.833  -0.288  0.00  0.00     0.072 A 
ATOM     13  C   UNL d   1      15.952  13.429  -0.217  0.00  0.00     0.004 A 
ATOM     14  C   UNL d   1      15.976  12.605  -0.321  0.00  0.00     0.001 A 
ATOM     15  C   UNL d   1      15.276  12.189  -0.497  0.00  0.00     0.013 A 
BRANCH  12  16
ATOM     16  C   UNL d   1      15.218  14.650  -0.184  0.00  0.00     0.419 C 
ATOM     17  F   UNL d   1      15.864  15.213  -0.218  0.00  0.00    -0.166 F 
ATOM     18  F   UNL d   1      14.546  15.161  -0.014  0.00  0.00    -0.166 F 
ATOM     19  F   UNL d   1      15.202  15.398  -0.090  0.00  0.00    -0.166 F 
ENDBRANCH  12  16
ENDBRANCH   7  10
ENDBRANCH   1   7
BRANCH   2  20
ATOM     20  C   UNL d   1      13.673  13.736  -3.631  0.00  0.00     0.064 A 
ATOM     21  C   UNL d   1      13.876  14.533  -3.690  0.00  0.00     0.020 A 
ATOM     22  C   UNL d   1      13.829  14.919  -4.417  0.00  0.00     0.026 A 
ATOM     23  C   UNL d   1      13.579  14.509  -5.086  0.00  0.00     0.094 A 
ATOM     24  C   UNL d   1      13.376  13.706  -5.023  0.00  0.00     0.026 A 
ATOM     25  C   UNL d   1      13.424  13.324  -4.294  0.00  0.00     0.020 A 
BRANCH  23  26
ATOM     26  O   UNL d   1      13.532  14.892  -5.815  0.00  0.00    -0.328 OA
ATOM     27  C   UNL d   1      13.685  15.706  -5.869  0.00  0.00     0.181 C 
ENDBRANCH  23  26
ENDBRANCH   2  20
TORSDOF 5
ENDMDL
