MODEL 1
REMARK VINA RESULT:      72.3      0.000      0.000
REMARK  4 active torsions:
REMARK  status: ('A' for Active; 'I' for Inactive)
REMARK    1  A    between atoms: N_6  and  C_2 
REMARK    2  A    between atoms: N_8  and  C_3 
REMARK    3  A    between atoms: C_10  and  N_8 
REMARK    4  A    between atoms: C_14  and  C_10 
ROOT
ATOM      1  N   UNL d   1     -51.898  25.442  34.918  0.00  0.00    -0.041 NA
ATOM      2  C   UNL d   1     -51.669  25.464  34.116  0.00  0.00     0.737 A 
ATOM      3  C   UNL d   1     -52.435  24.867  35.179  0.00  0.00     0.182 A 
ATOM      4  N   UNL d   1     -51.981  24.907  33.579  0.00  0.00    -0.060 NA
ATOM      5  C   UNL d   1     -52.744  24.313  34.644  0.00  0.00     0.055 A 
ATOM      6  C   UNL d   1     -52.521  24.331  33.850  0.00  0.00     0.103 A 
ATOM      7  C   UNL d   1     -53.281  23.737  34.906  0.00  0.00     0.005 A 
ATOM      8  C   UNL d   1     -52.832  23.773  33.309  0.00  0.00     0.020 A 
ATOM      9  C   UNL d   1     -53.588  23.190  34.381  0.00  0.00     0.000 A 
ATOM     10  C   UNL d   1     -53.362  23.209  33.578  0.00  0.00     0.002 A 
ENDROOT
BRANCH   3  11
ATOM     11  N   UNL d   1     -52.674  24.841  36.008  0.00  0.00    -0.225 NA
BRANCH  11  12
ATOM     12  C   UNL d   1     -52.744  25.461  36.442  0.00  0.00     0.101 C 
BRANCH  12  13
ATOM     13  C   UNL d   1     -52.707  25.398  37.202  0.00  0.00     0.019 A 
ATOM     14  C   UNL d   1     -52.103  25.655  37.566  0.00  0.00     0.002 A 
ATOM     15  C   UNL d   1     -52.068  25.592  38.320  0.00  0.00     0.000 A 
ATOM     16  C   UNL d   1     -52.638  25.271  38.703  0.00  0.00     0.000 A 
ATOM     17  C   UNL d   1     -53.249  25.012  38.319  0.00  0.00     0.000 A 
ATOM     18  C   UNL d   1     -53.276  25.079  37.570  0.00  0.00     0.002 A 
ENDBRANCH  12  13
ENDBRANCH  11  12
ENDBRANCH   3  11
BRANCH   2  19
ATOM     19  N   UNL d   1     -51.114  26.059  33.845  0.00  0.00    -0.133 N 
ATOM     20  C   UNL d   1     -51.385  26.862  33.711  0.00  0.00     0.125 A 
ATOM     21  C   UNL d   1     -50.840  27.455  33.442  0.00  0.00     0.142 A 
ATOM     22  O   UNL d   1     -50.026  27.253  33.307  0.00  0.00    -0.300 OA
ATOM     23  C   UNL d   1     -49.755  26.450  33.442  0.00  0.00     0.142 A 
ATOM     24  C   UNL d   1     -50.300  25.853  33.711  0.00  0.00     0.125 A 
ENDBRANCH   2  19
TORSDOF 4
ENDMDL
MODEL 2
REMARK VINA RESULT:      74.9      1.438      3.118
REMARK  4 active torsions:
REMARK  status: ('A' for Active; 'I' for Inactive)
REMARK    1  A    between atoms: N_6  and  C_2 
REMARK    2  A    between atoms: N_8  and  C_3 
REMARK    3  A    between atoms: C_10  and  N_8 
REMARK    4  A    between atoms: C_14  and  C_10 
ROOT
ATOM      1  N   UNL d   1     -51.826  25.509  34.899  0.00  0.00    -0.041 NA
ATOM      2  C   UNL d   1     -51.783  25.256  34.106  0.00  0.00     0.737 A 
ATOM      3  C   UNL d   1     -51.359  26.143  35.158  0.00  0.00     0.182 A 
ATOM      4  N   UNL d   1     -51.270  25.642  33.573  0.00  0.00    -0.060 NA
ATOM      5  C   UNL d   1     -50.849  26.526  34.628  0.00  0.00     0.055 A 
ATOM      6  C   UNL d   1     -50.803  26.280  33.842  0.00  0.00     0.103 A 
ATOM      7  C   UNL d   1     -50.380  27.162  34.886  0.00  0.00     0.005 A 
ATOM      8  C   UNL d   1     -50.288  26.666  33.306  0.00  0.00     0.020 A 
ATOM      9  C   UNL d   1     -49.877  27.541  34.366  0.00  0.00     0.000 A 
ATOM     10  C   UNL d   1     -49.830  27.291  33.571  0.00  0.00     0.002 A 
ENDROOT
BRANCH   3  11
ATOM     11  N   UNL d   1     -51.401  26.408  35.978  0.00  0.00    -0.225 NA
BRANCH  11  12
ATOM     12  C   UNL d   1     -51.382  25.932  36.571  0.00  0.00     0.101 C 
BRANCH  12  13
ATOM     13  C   UNL d   1     -51.475  26.205  37.278  0.00  0.00     0.019 A 
ATOM     14  C   UNL d   1     -52.031  25.939  37.708  0.00  0.00     0.002 A 
ATOM     15  C   UNL d   1     -52.122  26.210  38.408  0.00  0.00     0.000 A 
ATOM     16  C   UNL d   1     -51.657  26.747  38.673  0.00  0.00     0.000 A 
ATOM     17  C   UNL d   1     -51.094  27.010  38.225  0.00  0.00     0.000 A 
ATOM     18  C   UNL d   1     -51.010  26.735  37.529  0.00  0.00     0.002 A 
ENDBRANCH  12  13
ENDBRANCH  11  12
ENDBRANCH   3  11
BRANCH   2  19
ATOM     19  N   UNL d   1     -52.266  24.600  33.838  0.00  0.00    -0.133 N 
ATOM     20  C   UNL d   1     -51.900  23.841  33.679  0.00  0.00     0.125 A 
ATOM     21  C   UNL d   1     -52.374  23.188  33.414  0.00  0.00     0.142 A 
ATOM     22  O   UNL d   1     -53.211  23.287  33.306  0.00  0.00    -0.300 OA
ATOM     23  C   UNL d   1     -53.577  24.047  33.464  0.00  0.00     0.142 A 
ATOM     24  C   UNL d   1     -53.104  24.704  33.731  0.00  0.00     0.125 A 
ENDBRANCH   2  19
TORSDOF 4
ENDMDL
MODEL 3
REMARK VINA RESULT:      75.3      4.527      6.896
REMARK  4 active torsions:
REMARK  status: ('A' for Active; 'I' for Inactive)
REMARK    1  A    between atoms: N_6  and  C_2 
REMARK    2  A    between atoms: N_8  and  C_3 
REMARK    3  A    between atoms: C_10  and  N_8 
REMARK    4  A    between atoms: C_14  and  C_10 
ROOT
ATOM      1  N   UNL d   1     -48.409  30.536  34.165  0.00  0.00    -0.041 NA
ATOM      2  C   UNL d   1     -48.030  31.200  34.498  0.00  0.00     0.737 A 
ATOM      3  C   UNL d   1     -48.377  29.803  34.553  0.00  0.00     0.182 A 
ATOM      4  N   UNL d   1     -47.619  31.125  35.221  0.00  0.00    -0.060 NA
ATOM      5  C   UNL d   1     -47.968  29.731  35.271  0.00  0.00     0.055 A 
ATOM      6  C   UNL d   1     -47.592  30.385  35.604  0.00  0.00     0.103 A 
ATOM      7  C   UNL d   1     -47.935  28.997  35.659  0.00  0.00     0.005 A 
ATOM      8  C   UNL d   1     -47.179  30.313  36.329  0.00  0.00     0.020 A 
ATOM      9  C   UNL d   1     -47.534  28.923  36.367  0.00  0.00     0.000 A 
ATOM     10  C   UNL d   1     -47.153  29.585  36.704  0.00  0.00     0.002 A 
ENDROOT
BRANCH   3  11
ATOM     11  N   UNL d   1     -48.767  29.113  34.211  0.00  0.00    -0.225 NA
BRANCH  11  12
ATOM     12  C   UNL d   1     -49.376  29.160  33.757  0.00  0.00     0.101 C 
BRANCH  12  13
ATOM     13  C   UNL d   1     -49.785  28.534  33.606  0.00  0.00     0.019 A 
ATOM     14  C   UNL d   1     -50.523  28.594  33.482  0.00  0.00     0.002 A 
ATOM     15  C   UNL d   1     -50.926  27.972  33.332  0.00  0.00     0.000 A 
ATOM     16  C   UNL d   1     -50.588  27.294  33.308  0.00  0.00     0.000 A 
ATOM     17  C   UNL d   1     -49.834  27.246  33.437  0.00  0.00     0.000 A 
ATOM     18  C   UNL d   1     -49.440  27.870  33.585  0.00  0.00     0.002 A 
ENDBRANCH  12  13
ENDBRANCH  11  12
ENDBRANCH   3  11
BRANCH   2  19
ATOM     19  N   UNL d   1     -48.063  31.957  34.098  0.00  0.00    -0.133 N 
ATOM     20  C   UNL d   1     -48.816  32.358  34.010  0.00  0.00     0.125 A 
ATOM     21  C   UNL d   1     -48.855  33.108  33.614  0.00  0.00     0.142 A 
ATOM     22  O   UNL d   1     -48.147  33.462  33.306  0.00  0.00    -0.300 OA
ATOM     23  C   UNL d   1     -47.393  33.061  33.394  0.00  0.00     0.142 A 
ATOM     24  C   UNL d   1     -47.352  32.309  33.790  0.00  0.00     0.125 A 
ENDBRANCH   2  19
TORSDOF 4
ENDMDL
