MODEL 1
REMARK VINA RESULT:      21.9      0.000      0.000
REMARK  6 active torsions:
REMARK  status: ('A' for Active; 'I' for Inactive)
REMARK    1  A    between atoms: N_4  and  C_1 
REMARK    2  A    between atoms: N_8  and  C_1 
REMARK       I    between atoms: C_2  and  N_3 
REMARK    3  A    between atoms: C_6  and  C_2 
REMARK    4  A    between atoms: N_3  and  N_4 
REMARK    5  A    between atoms: C_17  and  N_8 
REMARK    6  A    between atoms: C_11  and  C_17 
ROOT
ATOM      1  C   UNL d   1      13.353  12.395  -3.977  0.00  0.00     0.297 C 
ATOM      2  N   UNL d   1      13.313  13.186  -4.256  0.00  0.00    -0.103 NA
ATOM      3  O   UNL d   1      13.200  11.781  -4.495  0.00  0.00    -0.264 OA
ENDROOT
BRANCH   1   4
ATOM      4  C   UNL d   1      13.546  12.241  -3.176  0.00  0.00     0.059 A 
ATOM      5  C   UNL d   1      14.302  12.403  -2.913  0.00  0.00     0.005 A 
ATOM      6  C   UNL d   1      14.503  12.256  -2.127  0.00  0.00     0.007 A 
ATOM      7  C   UNL d   1      13.944  11.947  -1.613  0.00  0.00     0.035 A 
ATOM      8  C   UNL d   1      13.171  11.779  -1.874  0.00  0.00     0.007 A 
ATOM      9 BR   UNL d   1      14.147  11.794  -0.803  0.00  0.00    -0.049 Br
ATOM     10  C   UNL d   1      12.988  11.933  -2.663  0.00  0.00     0.005 A 
ENDBRANCH   1   4
BRANCH   2  11
ATOM     11  N   UNL d   1      13.469  13.815  -3.726  0.00  0.00    -0.114 NA
BRANCH  11  12
ATOM     12  C   UNL d   1      13.453  14.583  -3.986  0.00  0.00     0.241 C 
ATOM     13  S   UNL d   1      12.770  14.888  -4.342  0.00  0.00    -0.035 SA
BRANCH  12  14
ATOM     14  N   UNL d   1      14.126  15.072  -3.897  0.00  0.00    -0.215 NA
BRANCH  14  15
ATOM     15  C   UNL d   1      14.099  15.716  -3.375  0.00  0.00     0.102 C 
BRANCH  15  16
ATOM     16  C   UNL d   1      14.789  15.965  -2.999  0.00  0.00     0.021 C 
ATOM     17  C   UNL d   1      14.749  16.416  -2.319  0.00  0.00     0.002 C 
ENDBRANCH  15  16
ENDBRANCH  14  15
ENDBRANCH  12  14
ENDBRANCH  11  12
ENDBRANCH   2  11
TORSDOF 6
ENDMDL
