MODEL 1
REMARK VINA RESULT:      54.2      0.000      0.000
REMARK  3 active torsions:
REMARK  status: ('A' for Active; 'I' for Inactive)
REMARK    1  A    between atoms: C_2  and  S_1 
REMARK    2  A    between atoms: N_3  and  S_1 
REMARK    3  A    between atoms: C_9  and  N_3 
ROOT
ATOM      1  S   UNL d   1      59.234  49.510  50.233  0.00  0.00     0.285 S 
ATOM      2  O   UNL d   1      59.677  49.313  49.573  0.00  0.00    -0.198 OA
ATOM      3  O   UNL d   1      58.790  49.708  50.901  0.00  0.00    -0.198 OA
ENDROOT
BRANCH   1   4
ATOM      4  C   UNL d   1      59.873  49.315  50.719  0.00  0.00     0.105 A 
ATOM      5  C   UNL d   1      59.800  49.362  51.538  0.00  0.00     0.013 A 
ATOM      6  C   UNL d   1      60.430  49.169  52.021  0.00  0.00     0.001 A 
ATOM      7  C   UNL d   1      60.358  49.216  52.845  0.00  0.00     0.000 C 
ATOM      8  C   UNL d   1      61.147  48.926  51.691  0.00  0.00     0.000 A 
ATOM      9  C   UNL d   1      61.223  48.878  50.870  0.00  0.00     0.001 A 
ATOM     10  C   UNL d   1      61.790  48.729  52.174  0.00  0.00     0.000 C 
ATOM     11  C   UNL d   1      60.585  49.073  50.381  0.00  0.00     0.012 A 
ATOM     12  C   UNL d   1      60.663  49.024  49.564  0.00  0.00     0.001 C 
ENDBRANCH   1   4
BRANCH   1  13
ATOM     13  N   UNL d   1      58.593  49.706  49.749  0.00  0.00    -0.159 NA
BRANCH  13  14
ATOM     14  C   UNL d   1      57.851  49.399  49.910  0.00  0.00     0.089 A 
ATOM     15  C   UNL d   1      57.461  49.600  50.610  0.00  0.00     0.015 A 
ATOM     16  C   UNL d   1      56.718  49.294  50.776  0.00  0.00     0.100 A 
ATOM     17  C   UNL d   1      56.069  49.237  51.276  0.00  0.00     0.029 C 
ATOM     18  C   UNL d   1      56.710  49.708  51.487  0.00  0.00     0.029 C 
ATOM     19  N   UNL d   1      56.358  48.786  50.242  0.00  0.00    -0.295 NA
ATOM     20  C   UNL d   1      56.739  48.581  49.542  0.00  0.00     0.100 A 
ATOM     21  C   UNL d   1      57.483  48.887  49.377  0.00  0.00     0.015 A 
ATOM     22  C   UNL d   1      56.753  48.169  48.828  0.00  0.00     0.029 C 
ATOM     23  C   UNL d   1      56.095  48.108  49.330  0.00  0.00     0.029 C 
ENDBRANCH  13  14
ENDBRANCH   1  13
TORSDOF 3
ENDMDL
