MODEL 1
REMARK VINA RESULT:       4.5      0.000      0.000
REMARK  2 active torsions:
REMARK  status: ('A' for Active; 'I' for Inactive)
REMARK    1  A    between atoms: CA_2  and  C_1 
REMARK    2  A    between atoms: C_3  and  CA_2 
ROOT
ATOM      1  C   UNL d   1     -51.291  25.178  33.311  0.00  0.00     0.025 A 
ATOM      2  C   UNL d   1     -52.116  25.275  33.307  0.00  0.00     0.003 A 
ATOM      3  C   UNL d   1     -50.964  24.412  33.314  0.00  0.00     0.003 A 
ATOM      4  C   UNL d   1     -52.282  23.850  33.310  0.00  0.00     0.058 A 
ATOM      5  C   UNL d   1     -52.606  24.609  33.306  0.00  0.00     0.011 A 
ATOM      6  C   UNL d   1     -51.466  23.750  33.314  0.00  0.00     0.011 A 
ATOM      7 CL   UNL d   1     -52.776  23.191  33.309  0.00  0.00    -0.082 Cl
ENDROOT
BRANCH   1   8
ATOM      8  CA  UNL d   1     -50.797  25.838  33.311  0.00  0.00     0.167 C 
ATOM      9  N   UNL d   1     -49.978  25.743  33.309  0.00  0.00    -0.142 N 
BRANCH   8  10
ATOM     10  C   UNL d   1     -51.129  26.593  33.314  0.00  0.00     0.231 C 
ATOM     11  O   UNL d   1     -51.945  26.693  33.322  0.00  0.00    -0.643 OA
ATOM     12  OXT UNL d   1     -50.636  27.256  33.308  0.00  0.00    -0.643 OA
ENDBRANCH   8  10
ENDBRANCH   1   8
TORSDOF 2
ENDMDL
MODEL 2
REMARK VINA RESULT:       5.5      0.958      1.042
REMARK  2 active torsions:
REMARK  status: ('A' for Active; 'I' for Inactive)
REMARK    1  A    between atoms: CA_2  and  C_1 
REMARK    2  A    between atoms: C_3  and  CA_2 
ROOT
ATOM      1  C   UNL d   1     -51.742  25.310  33.313  0.00  0.00     0.025 A 
ATOM      2  C   UNL d   1     -52.568  25.394  33.311  0.00  0.00     0.003 A 
ATOM      3  C   UNL d   1     -51.402  24.550  33.312  0.00  0.00     0.003 A 
ATOM      4  C   UNL d   1     -52.711  23.966  33.309  0.00  0.00     0.058 A 
ATOM      5  C   UNL d   1     -53.047  24.719  33.309  0.00  0.00     0.011 A 
ATOM      6  C   UNL d   1     -51.893  23.880  33.310  0.00  0.00     0.011 A 
ATOM      7 CL   UNL d   1     -53.194  23.299  33.307  0.00  0.00    -0.082 Cl
ENDROOT
BRANCH   1   8
ATOM      8  CA  UNL d   1     -51.259  25.978  33.315  0.00  0.00     0.167 C 
ATOM      9  N   UNL d   1     -51.593  26.732  33.321  0.00  0.00    -0.142 N 
BRANCH   8  10
ATOM     10  C   UNL d   1     -50.439  25.886  33.311  0.00  0.00     0.231 C 
ATOM     11  O   UNL d   1     -50.101  25.136  33.311  0.00  0.00    -0.643 OA
ATOM     12  OXT UNL d   1     -49.952  26.554  33.307  0.00  0.00    -0.643 OA
ENDBRANCH   8  10
ENDBRANCH   1   8
TORSDOF 2
ENDMDL
MODEL 3
REMARK VINA RESULT:       6.6      2.222      2.764
REMARK  2 active torsions:
REMARK  status: ('A' for Active; 'I' for Inactive)
REMARK    1  A    between atoms: CA_2  and  C_1 
REMARK    2  A    between atoms: C_3  and  CA_2 
ROOT
ATOM      1  C   UNL d   1     -51.983  25.155  33.350  0.00  0.00     0.025 A 
ATOM      2  C   UNL d   1     -52.080  25.980  33.341  0.00  0.00     0.003 A 
ATOM      3  C   UNL d   1     -51.217  24.828  33.346  0.00  0.00     0.003 A 
ATOM      4  C   UNL d   1     -50.654  26.145  33.322  0.00  0.00     0.058 A 
ATOM      5  C   UNL d   1     -51.413  26.469  33.327  0.00  0.00     0.011 A 
ATOM      6  C   UNL d   1     -50.555  25.329  33.332  0.00  0.00     0.011 A 
ATOM      7 CL   UNL d   1     -49.995  26.639  33.308  0.00  0.00    -0.082 Cl
ENDROOT
BRANCH   1   8
ATOM      8  CA  UNL d   1     -52.643  24.662  33.364  0.00  0.00     0.167 C 
ATOM      9  N   UNL d   1     -53.401  24.980  33.307  0.00  0.00    -0.142 N 
BRANCH   8  10
ATOM     10  C   UNL d   1     -52.538  23.846  33.436  0.00  0.00     0.231 C 
ATOM     11  O   UNL d   1     -53.170  23.358  33.635  0.00  0.00    -0.643 OA
ATOM     12  OXT UNL d   1     -51.792  23.516  33.307  0.00  0.00    -0.643 OA
ENDBRANCH   8  10
ENDBRANCH   1   8
TORSDOF 2
ENDMDL
