MODEL 1
REMARK VINA RESULT:      24.6      0.000      0.000
REMARK  3 active torsions:
REMARK  status: ('A' for Active; 'I' for Inactive)
REMARK    1  A    between atoms: C_6  and  C_1 
REMARK    2  A    between atoms: C_7  and  C_2 
REMARK    3  A    between atoms: O_14  and  C_12 
ROOT
ATOM      1  C   UNL d   1      46.020 -17.581  43.651  0.00  0.00     0.084 A 
ATOM      2  C   UNL d   1      45.986 -17.257  44.409  0.00  0.00     0.105 A 
ATOM      3  C   UNL d   1      46.219 -18.375  43.726  0.00  0.00     0.031 A 
ATOM      4  O   UNL d   1      46.166 -17.853  44.952  0.00  0.00    -0.307 OA
ATOM      5  C   UNL d   1      46.309 -18.542  44.524  0.00  0.00     0.100 A 
ATOM      6  C   UNL d   1      46.331 -18.969  43.171  0.00  0.00     0.026 A 
ATOM      7  C   UNL d   1      46.512 -19.303  44.775  0.00  0.00     0.027 A 
ATOM      8  C   UNL d   1      46.534 -19.733  43.407  0.00  0.00     0.094 A 
ATOM      9  C   UNL d   1      46.625 -19.902  44.219  0.00  0.00     0.026 A 
ENDROOT
BRANCH   2  10
ATOM     10  C   UNL d   1      45.804 -16.469  44.590  0.00  0.00     0.023 A 
ATOM     11  C   UNL d   1      46.404 -15.903  44.583  0.00  0.00     0.002 A 
ATOM     12  C   UNL d   1      46.228 -15.128  44.760  0.00  0.00     0.000 A 
ATOM     13  C   UNL d   1      45.452 -14.918  44.944  0.00  0.00     0.000 A 
ATOM     14  C   UNL d   1      44.859 -15.497  44.947  0.00  0.00     0.000 A 
ATOM     15  C   UNL d   1      45.031 -16.258  44.773  0.00  0.00     0.002 A 
ENDBRANCH   2  10
BRANCH   1  16
ATOM     16  C   UNL d   1      45.878 -17.183  42.942  0.00  0.00     0.299 C 
ATOM     17  O   UNL d   1      46.473 -16.741  42.594  0.00  0.00    -0.264 OA
ATOM     18  N   UNL d   1      45.146 -17.223  42.581  0.00  0.00    -0.102 N 
ENDBRANCH   1  16
BRANCH   8  19
ATOM     19  O   UNL d   1      46.646 -20.328  42.852  0.00  0.00    -0.328 OA
ATOM     20  C   UNL d   1      46.606 -20.148  42.044  0.00  0.00     0.181 C 
ENDBRANCH   8  19
TORSDOF 3
ENDMDL
MODEL 2
REMARK VINA RESULT:      25.1      7.132      8.192
REMARK  3 active torsions:
REMARK  status: ('A' for Active; 'I' for Inactive)
REMARK    1  A    between atoms: C_6  and  C_1 
REMARK    2  A    between atoms: C_7  and  C_2 
REMARK    3  A    between atoms: O_14  and  C_12 
ROOT
ATOM      1  C   UNL d   1      44.038 -15.888  36.865  0.00  0.00     0.084 A 
ATOM      2  C   UNL d   1      44.321 -15.114  36.843  0.00  0.00     0.105 A 
ATOM      3  C   UNL d   1      43.234 -15.866  36.696  0.00  0.00     0.031 A 
ATOM      4  O   UNL d   1      43.690 -14.613  36.661  0.00  0.00    -0.307 OA
ATOM      5  C   UNL d   1      43.021 -15.084  36.570  0.00  0.00     0.100 A 
ATOM      6  C   UNL d   1      42.668 -16.457  36.639  0.00  0.00     0.026 A 
ATOM      7  C   UNL d   1      42.239 -14.885  36.388  0.00  0.00     0.027 A 
ATOM      8  C   UNL d   1      41.884 -16.273  36.458  0.00  0.00     0.094 A 
ATOM      9  C   UNL d   1      41.667 -15.477  36.330  0.00  0.00     0.026 A 
ENDROOT
BRANCH   2  10
ATOM     10  C   UNL d   1      45.105 -14.882  36.982  0.00  0.00     0.023 A 
ATOM     11  C   UNL d   1      45.643 -14.880  36.356  0.00  0.00     0.002 A 
ATOM     12  C   UNL d   1      46.413 -14.653  36.489  0.00  0.00     0.000 A 
ATOM     13  C   UNL d   1      46.647 -14.427  37.246  0.00  0.00     0.000 A 
ATOM     14  C   UNL d   1      46.096 -14.434  37.866  0.00  0.00     0.000 A 
ATOM     15  C   UNL d   1      45.340 -14.657  37.736  0.00  0.00     0.002 A 
ENDBRANCH   2  10
BRANCH   1  16
ATOM     16  C   UNL d   1      44.480 -16.566  37.026  0.00  0.00     0.299 C 
ATOM     17  O   UNL d   1      44.939 -16.906  36.439  0.00  0.00    -0.264 OA
ATOM     18  N   UNL d   1      44.467 -16.904  37.770  0.00  0.00    -0.102 N 
ENDBRANCH   1  16
BRANCH   8  19
ATOM     19  O   UNL d   1      41.317 -16.863  36.401  0.00  0.00    -0.328 OA
ATOM     20  C   UNL d   1      40.514 -16.660  36.355  0.00  0.00     0.181 C 
ENDBRANCH   8  19
TORSDOF 3
ENDMDL
MODEL 3
REMARK VINA RESULT:      25.8      1.015      3.662
REMARK  3 active torsions:
REMARK  status: ('A' for Active; 'I' for Inactive)
REMARK    1  A    between atoms: C_6  and  C_1 
REMARK    2  A    between atoms: C_7  and  C_2 
REMARK    3  A    between atoms: O_14  and  C_12 
ROOT
ATOM      1  C   UNL d   1      46.006 -17.405  43.328  0.00  0.00     0.084 A 
ATOM      2  C   UNL d   1      46.191 -17.927  43.939  0.00  0.00     0.105 A 
ATOM      3  C   UNL d   1      45.897 -16.661  43.659  0.00  0.00     0.031 A 
ATOM      4  O   UNL d   1      46.197 -17.504  44.648  0.00  0.00    -0.307 OA
ATOM      5  C   UNL d   1      46.014 -16.721  44.468  0.00  0.00     0.100 A 
ATOM      6  C   UNL d   1      45.706 -15.935  43.328  0.00  0.00     0.026 A 
ATOM      7  C   UNL d   1      45.942 -16.056  44.955  0.00  0.00     0.027 A 
ATOM      8  C   UNL d   1      45.631 -15.263  43.802  0.00  0.00     0.094 A 
ATOM      9  C   UNL d   1      45.750 -15.324  44.625  0.00  0.00     0.026 A 
ENDROOT
BRANCH   2  10
ATOM     10  C   UNL d   1      46.345 -18.737  43.852  0.00  0.00     0.023 A 
ATOM     11  C   UNL d   1      46.377 -19.217  44.523  0.00  0.00     0.002 A 
ATOM     12  C   UNL d   1      46.528 -20.013  44.441  0.00  0.00     0.000 A 
ATOM     13  C   UNL d   1      46.646 -20.330  43.690  0.00  0.00     0.000 A 
ATOM     14  C   UNL d   1      46.611 -19.837  43.025  0.00  0.00     0.000 A 
ATOM     15  C   UNL d   1      46.463 -19.056  43.104  0.00  0.00     0.002 A 
ENDBRANCH   2  10
BRANCH   1  16
ATOM     16  C   UNL d   1      45.940 -17.593  42.527  0.00  0.00     0.299 C 
ATOM     17  O   UNL d   1      45.214 -17.806  42.214  0.00  0.00    -0.264 OA
ATOM     18  N   UNL d   1      46.596 -17.570  42.039  0.00  0.00    -0.102 N 
ENDBRANCH   1  16
BRANCH   8  19
ATOM     19  O   UNL d   1      45.440 -14.536  43.471  0.00  0.00    -0.328 OA
ATOM     20  C   UNL d   1      45.360 -13.871  43.960  0.00  0.00     0.181 C 
ENDBRANCH   8  19
TORSDOF 3
ENDMDL
