MODEL 1
REMARK VINA RESULT:      -8.2      0.000      0.000
REMARK  3 active torsions:
REMARK  status: ('A' for Active; 'I' for Inactive)
REMARK    1  A    between atoms: N_6  and  C_2 
REMARK    2  A    between atoms: C_8  and  C_3 
REMARK       I    between atoms: C_7  and  N_6 
REMARK    3  A    between atoms: C_10  and  C_7 
ROOT
ATOM      1  N   UNL d   1      53.092  32.494  53.400  0.00  0.00    -0.200 NA
ATOM      2  C   UNL d   1      53.558  33.165  53.475  0.00  0.00     0.216 A 
ATOM      3  C   UNL d   1      53.578  31.829  53.518  0.00  0.00     0.172 A 
ATOM      4  N   UNL d   1      54.343  32.100  53.666  0.00  0.00    -0.187 NA
ATOM      5  S   UNL d   1      54.333  32.928  53.639  0.00  0.00     0.054 SA
ENDROOT
BRANCH   3   6
ATOM      6  C   UNL d   1      53.336  31.044  53.492  0.00  0.00     0.036 A 
ATOM      7  C   UNL d   1      52.815  30.792  52.910  0.00  0.00     0.003 A 
ATOM      8  C   UNL d   1      52.576  30.001  52.891  0.00  0.00     0.000 A 
ATOM      9  C   UNL d   1      52.860  29.469  53.454  0.00  0.00     0.000 A 
ATOM     10  C   UNL d   1      53.384  29.723  54.039  0.00  0.00     0.000 A 
ATOM     11  C   UNL d   1      53.620  30.516  54.053  0.00  0.00     0.003 A 
ENDBRANCH   3   6
BRANCH   2  12
ATOM     12  N   UNL d   1      53.297  33.943  53.399  0.00  0.00    -0.181 NA
ATOM     13  C   UNL d   1      53.145  34.390  54.074  0.00  0.00     0.281 C 
ATOM     14  O   UNL d   1      53.253  34.063  54.821  0.00  0.00    -0.265 OA
BRANCH  13  15
ATOM     15  C   UNL d   1      52.887  35.161  53.998  0.00  0.00     0.063 C 
ATOM     16  C   UNL d   1      52.858  35.661  54.656  0.00  0.00     0.005 C 
ENDBRANCH  13  15
ENDBRANCH   2  12
TORSDOF 3
ENDMDL
MODEL 2
REMARK VINA RESULT:      -8.1      2.313      3.050
REMARK  3 active torsions:
REMARK  status: ('A' for Active; 'I' for Inactive)
REMARK    1  A    between atoms: N_6  and  C_2 
REMARK    2  A    between atoms: C_8  and  C_3 
REMARK       I    between atoms: C_7  and  N_6 
REMARK    3  A    between atoms: C_10  and  C_7 
ROOT
ATOM      1  N   UNL d   1      52.363  33.488  53.886  0.00  0.00    -0.200 NA
ATOM      2  C   UNL d   1      51.796  33.156  53.395  0.00  0.00     0.216 A 
ATOM      3  C   UNL d   1      53.065  33.051  53.798  0.00  0.00     0.172 A 
ATOM      4  N   UNL d   1      52.922  32.451  53.251  0.00  0.00    -0.187 NA
ATOM      5  S   UNL d   1      52.135  32.513  52.999  0.00  0.00     0.054 SA
ENDROOT
BRANCH   3   6
ATOM      6  C   UNL d   1      53.774  33.195  54.188  0.00  0.00     0.036 A 
ATOM      7  C   UNL d   1      54.472  33.267  53.763  0.00  0.00     0.003 A 
ATOM      8  C   UNL d   1      55.181  33.412  54.163  0.00  0.00     0.000 A 
ATOM      9  C   UNL d   1      55.186  33.483  54.985  0.00  0.00     0.000 A 
ATOM     10  C   UNL d   1      54.484  33.410  55.412  0.00  0.00     0.000 A 
ATOM     11  C   UNL d   1      53.777  33.266  55.006  0.00  0.00     0.003 A 
ENDBRANCH   3   6
BRANCH   2  12
ATOM     12  N   UNL d   1      51.019  33.418  53.311  0.00  0.00    -0.181 NA
ATOM     13  C   UNL d   1      50.845  34.010  52.764  0.00  0.00     0.281 C 
ATOM     14  O   UNL d   1      51.443  34.338  52.304  0.00  0.00    -0.265 OA
BRANCH  13  15
ATOM     15  C   UNL d   1      50.075  34.270  52.681  0.00  0.00     0.063 C 
ATOM     16  C   UNL d   1      49.812  34.580  51.962  0.00  0.00     0.005 C 
ENDBRANCH  13  15
ENDBRANCH   2  12
TORSDOF 3
ENDMDL
MODEL 3
REMARK VINA RESULT:      -8.0      1.701      3.985
REMARK  3 active torsions:
REMARK  status: ('A' for Active; 'I' for Inactive)
REMARK    1  A    between atoms: N_6  and  C_2 
REMARK    2  A    between atoms: C_8  and  C_3 
REMARK       I    between atoms: C_7  and  N_6 
REMARK    3  A    between atoms: C_10  and  C_7 
ROOT
ATOM      1  N   UNL d   1      53.258  31.734  53.629  0.00  0.00    -0.200 NA
ATOM      2  C   UNL d   1      53.286  30.966  53.342  0.00  0.00     0.216 A 
ATOM      3  C   UNL d   1      52.807  32.189  53.099  0.00  0.00     0.172 A 
ATOM      4  N   UNL d   1      52.560  31.694  52.488  0.00  0.00    -0.187 NA
ATOM      5  S   UNL d   1      52.856  30.934  52.636  0.00  0.00     0.054 SA
ENDROOT
BRANCH   3   6
ATOM      6  C   UNL d   1      52.639  32.990  53.175  0.00  0.00     0.036 A 
ATOM      7  C   UNL d   1      53.205  33.504  53.473  0.00  0.00     0.003 A 
ATOM      8  C   UNL d   1      53.028  34.309  53.546  0.00  0.00     0.000 A 
ATOM      9  C   UNL d   1      52.287  34.592  53.320  0.00  0.00     0.000 A 
ATOM     10  C   UNL d   1      51.718  34.075  53.021  0.00  0.00     0.000 A 
ATOM     11  C   UNL d   1      51.900  33.271  52.950  0.00  0.00     0.003 A 
ENDBRANCH   3   6
BRANCH   2  12
ATOM     12  N   UNL d   1      53.676  30.333  53.698  0.00  0.00    -0.181 NA
ATOM     13  C   UNL d   1      53.241  29.693  53.981  0.00  0.00     0.281 C 
ATOM     14  O   UNL d   1      52.422  29.684  53.909  0.00  0.00    -0.265 OA
BRANCH  13  15
ATOM     15  C   UNL d   1      53.628  29.065  54.333  0.00  0.00     0.063 C 
ATOM     16  C   UNL d   1      53.280  28.657  54.961  0.00  0.00     0.005 C 
ENDBRANCH  13  15
ENDBRANCH   2  12
TORSDOF 3
ENDMDL
MODEL 4
REMARK VINA RESULT:      -7.9      2.136      3.232
REMARK  3 active torsions:
REMARK  status: ('A' for Active; 'I' for Inactive)
REMARK    1  A    between atoms: N_6  and  C_2 
REMARK    2  A    between atoms: C_8  and  C_3 
REMARK       I    between atoms: C_7  and  N_6 
REMARK    3  A    between atoms: C_10  and  C_7 
ROOT
ATOM      1  N   UNL d   1      52.921  33.614  53.270  0.00  0.00    -0.200 NA
ATOM      2  C   UNL d   1      53.470  33.028  53.438  0.00  0.00     0.216 A 
ATOM      3  C   UNL d   1      52.227  33.244  52.999  0.00  0.00     0.172 A 
ATOM      4  N   UNL d   1      52.358  32.430  53.002  0.00  0.00    -0.187 NA
ATOM      5  S   UNL d   1      53.128  32.293  53.274  0.00  0.00     0.054 SA
ENDROOT
BRANCH   3   6
ATOM      6  C   UNL d   1      51.536  33.625  52.768  0.00  0.00     0.036 A 
ATOM      7  C   UNL d   1      50.891  33.650  53.275  0.00  0.00     0.003 A 
ATOM      8  C   UNL d   1      50.199  34.036  53.036  0.00  0.00     0.000 A 
ATOM      9  C   UNL d   1      50.160  34.393  52.293  0.00  0.00     0.000 A 
ATOM     10  C   UNL d   1      50.809  34.368  51.785  0.00  0.00     0.000 A 
ATOM     11  C   UNL d   1      51.498  33.980  52.029  0.00  0.00     0.003 A 
ENDBRANCH   3   6
BRANCH   2  12
ATOM     12  N   UNL d   1      54.234  33.152  53.721  0.00  0.00    -0.181 NA
ATOM     13  C   UNL d   1      54.357  33.261  54.529  0.00  0.00     0.281 C 
ATOM     14  O   UNL d   1      53.721  33.247  55.051  0.00  0.00    -0.265 OA
BRANCH  13  15
ATOM     15  C   UNL d   1      55.114  33.384  54.810  0.00  0.00     0.063 C 
ATOM     16  C   UNL d   1      55.240  33.826  55.497  0.00  0.00     0.005 C 
ENDBRANCH  13  15
ENDBRANCH   2  12
TORSDOF 3
ENDMDL
