MODEL 1
REMARK VINA RESULT:      77.0      0.000      0.000
REMARK  7 active torsions:
REMARK  status: ('A' for Active; 'I' for Inactive)
REMARK    1  A    between atoms: C_16  and  N_3 
REMARK    2  A    between atoms: C_15  and  N_8 
REMARK    3  A    between atoms: C_12  and  C_10 
REMARK    4  A    between atoms: C_11  and  N_14 
REMARK    5  A    between atoms: O_22  and  C_12 
REMARK    6  A    between atoms: C_13  and  C_15 
REMARK       I    between atoms: N_14  and  C_13 
REMARK    7  A    between atoms: C_28  and  O_22 
ROOT
ATOM      1  C   UNL d   1     -54.893-101.485 -40.870  0.00  0.00     0.191 A 
ATOM      2  C   UNL d   1     -54.823-100.859 -41.415  0.00  0.00     0.196 A 
ATOM      3  N   UNL d   1     -54.822-101.161 -40.110  0.00  0.00    -0.193 N 
ATOM      4  N   UNL d   1     -54.712-100.354 -40.192  0.00  0.00    -0.058 NA
ATOM      5  N   UNL d   1     -54.711-100.163 -40.979  0.00  0.00    -0.122 NA
ATOM      6  N   UNL d   1     -55.008-102.247 -41.141  0.00  0.00    -0.204 NA
ATOM      7  C   UNL d   1     -54.872-101.013 -42.215  0.00  0.00     0.289 A 
ATOM      8  N   UNL d   1     -54.988-101.779 -42.494  0.00  0.00    -0.249 N 
ATOM      9  C   UNL d   1     -55.058-102.405 -41.949  0.00  0.00     0.187 A 
ATOM     10  O   UNL d   1     -54.802-100.386 -42.761  0.00  0.00    -0.265 OA
ENDROOT
BRANCH   8  11
ATOM     11  C   UNL d   1     -55.039-101.944 -43.306  0.00  0.00     0.147 C 
BRANCH  11  12
ATOM     12  C   UNL d   1     -55.045-101.326 -43.862  0.00  0.00     0.297 C 
ATOM     13  N   UNL d   1     -55.385-100.606 -43.660  0.00  0.00    -0.207 NA
ATOM     14  O   UNL d   1     -54.712-101.440 -44.608  0.00  0.00    -0.264 OA
BRANCH  13  15
ATOM     15  C   UNL d   1     -55.395 -99.986 -44.209  0.00  0.00     0.090 A 
ATOM     16  C   UNL d   1     -56.087 -99.577 -44.341  0.00  0.00     0.081 A 
ATOM     17  C   UNL d   1     -56.097 -98.957 -44.889  0.00  0.00     0.007 A 
ATOM     18  C   UNL d   1     -55.409 -98.759 -45.299  0.00  0.00     0.000 A 
ATOM     19  C   UNL d   1     -54.718 -99.168 -45.167  0.00  0.00     0.002 A 
ATOM     20  C   UNL d   1     -54.712 -99.781 -44.623  0.00  0.00     0.019 A 
BRANCH  16  21
ATOM     21  C   UNL d   1     -56.775 -99.775 -43.931  0.00  0.00     0.302 C 
ATOM     22  O   UNL d   1     -57.091-100.537 -44.001  0.00  0.00    -0.259 OA
BRANCH  21  23
ATOM     23  O   UNL d   1     -57.147 -99.212 -43.453  0.00  0.00    -0.271 OA
BRANCH  23  24
ATOM     24  C   UNL d   1     -57.917 -98.962 -43.624  0.00  0.00     0.126 C 
ATOM     25  C   UNL d   1     -58.521 -99.513 -43.695  0.00  0.00     0.029 C 
ENDBRANCH  23  24
ENDBRANCH  21  23
ENDBRANCH  16  21
ENDBRANCH  13  15
ENDBRANCH  11  12
ENDBRANCH   8  11
BRANCH   3  26
ATOM     26  C   UNL d   1     -54.850-101.534 -39.394  0.00  0.00     0.086 A 
ATOM     27  C   UNL d   1     -54.904-102.370 -39.356  0.00  0.00     0.019 A 
ATOM     28  C   UNL d   1     -54.932-102.738 -38.634  0.00  0.00     0.002 A 
ATOM     29  C   UNL d   1     -54.907-102.287 -37.923  0.00  0.00     0.000 A 
ATOM     30  C   UNL d   1     -54.855-101.478 -37.969  0.00  0.00     0.002 A 
ATOM     31  C   UNL d   1     -54.936-102.669 -37.166  0.00  0.00     0.000 C 
ATOM     32  C   UNL d   1     -54.826-101.093 -38.696  0.00  0.00     0.019 A 
ENDBRANCH   3  26
TORSDOF 7
ENDMDL
