MODEL 1
REMARK VINA RESULT:      93.7      0.000      0.000
REMARK  4 active torsions:
REMARK  status: ('A' for Active; 'I' for Inactive)
REMARK    1  A    between atoms: C_14  and  N_1 
REMARK    2  A    between atoms: S_12  and  C_2 
REMARK       I    between atoms: N_7  and  C_10 
REMARK    3  A    between atoms: C_10  and  C_16 
REMARK    4  A    between atoms: C_16  and  S_12 
ROOT
ATOM      1  N   UNL d   1     -47.807  30.758  34.935  0.00  0.00    -0.254 N 
ATOM      2  C   UNL d   1     -48.407  30.468  34.447  0.00  0.00     0.183 A 
ATOM      3  N   UNL d   1     -48.776  30.971  33.909  0.00  0.00    -0.201 NA
ATOM      4  C   UNL d   1     -47.575  31.556  34.884  0.00  0.00     0.271 A 
ATOM      5  C   UNL d   1     -47.950  32.055  34.341  0.00  0.00     0.115 A 
ATOM      6  C   UNL d   1     -48.552  31.760  33.853  0.00  0.00     0.192 A 
ATOM      7  N   UNL d   1     -48.385  33.049  33.565  0.00  0.00    -0.145 NA
ATOM      8  N   UNL d   1     -48.819  32.382  33.373  0.00  0.00    -0.128 NA
ATOM      9  C   UNL d   1     -47.849  32.862  34.159  0.00  0.00     0.130 A 
ATOM     10  O   UNL d   1     -46.969  31.847  35.378  0.00  0.00    -0.266 OA
ENDROOT
BRANCH   2  11
ATOM     11  S   UNL d   1     -48.631  29.683  34.501  0.00  0.00    -0.044 SA
BRANCH  11  12
ATOM     12  C   UNL d   1     -49.217  29.378  33.989  0.00  0.00     0.099 C 
BRANCH  12  13
ATOM     13  C   UNL d   1     -49.296  28.564  33.890  0.00  0.00     0.271 C 
ATOM     14  N   UNL d   1     -50.027  28.239  33.696  0.00  0.00    -0.273 N 
ATOM     15  C   UNL d   1     -50.106  27.430  33.598  0.00  0.00     0.067 A 
ATOM     16  C   UNL d   1     -50.678  28.736  33.602  0.00  0.00     0.083 A 
ATOM     17  C   UNL d   1     -50.841  27.106  33.403  0.00  0.00     0.016 A 
ATOM     18  C   UNL d   1     -49.453  26.935  33.693  0.00  0.00     0.018 A 
ATOM     19  C   UNL d   1     -50.914  26.292  33.306  0.00  0.00     0.001 A 
ATOM     20  C   UNL d   1     -51.493  27.589  33.307  0.00  0.00     0.003 A 
ATOM     21  C   UNL d   1     -50.263  25.795  33.400  0.00  0.00     0.000 A 
ATOM     22  C   UNL d   1     -49.531  26.120  33.594  0.00  0.00     0.002 A 
ATOM     23  C   UNL d   1     -51.415  28.415  33.407  0.00  0.00     0.019 A 
ATOM     24  O   UNL d   1     -48.638  28.076  33.987  0.00  0.00    -0.266 OA
ENDBRANCH  12  13
ENDBRANCH  11  12
ENDBRANCH   2  11
BRANCH   1  25
ATOM     25  C   UNL d   1     -47.431  30.256  35.480  0.00  0.00     0.069 A 
ATOM     26  C   UNL d   1     -46.807  29.778  35.230  0.00  0.00     0.018 A 
ATOM     27  C   UNL d   1     -46.431  29.276  35.771  0.00  0.00     0.002 A 
ATOM     28  C   UNL d   1     -46.683  29.257  36.560  0.00  0.00     0.000 A 
ATOM     29  C   UNL d   1     -47.308  29.739  36.802  0.00  0.00     0.002 A 
ATOM     30  C   UNL d   1     -47.681  30.238  36.259  0.00  0.00     0.018 A 
ENDBRANCH   1  25
TORSDOF 4
ENDMDL
