MODEL 1
REMARK VINA RESULT:      56.2      0.000      0.000
REMARK  3 active torsions:
REMARK  status: ('A' for Active; 'I' for Inactive)
REMARK    1  A    between atoms: N_2  and  S_1 
REMARK    2  A    between atoms: C_5  and  S_1 
REMARK    3  A    between atoms: C_4  and  N_3 
ROOT
ATOM      1  N   UNL d   1      14.319  14.830  -2.644  0.00  0.00    -0.226 N 
ATOM      2  N   UNL d   1      13.698  13.651  -3.618  0.00  0.00    -0.301 N 
ATOM      3  C   UNL d   1      14.457  14.039  -2.474  0.00  0.00     0.111 A 
ATOM      4  C   UNL d   1      13.865  15.041  -3.309  0.00  0.00     0.111 A 
ATOM      5  C   UNL d   1      14.146  13.450  -2.961  0.00  0.00     0.100 A 
ATOM      6  C   UNL d   1      13.554  14.451  -3.796  0.00  0.00     0.100 A 
ENDROOT
BRANCH   1   7
ATOM      7  S   UNL d   1      14.629  15.419  -2.157  0.00  0.00     0.271 S 
ATOM      8  O   UNL d   1      14.704  15.918  -2.809  0.00  0.00    -0.200 OA
ATOM      9  O   UNL d   1      14.555  14.919  -1.504  0.00  0.00    -0.200 OA
BRANCH   7  10
ATOM     10  C   UNL d   1      14.940  16.009  -1.671  0.00  0.00     0.104 A 
ATOM     11  C   UNL d   1      15.025  16.774  -1.953  0.00  0.00     0.015 A 
ATOM     12  C   UNL d   1      15.335  17.363  -1.467  0.00  0.00     0.030 A 
ATOM     13  C   UNL d   1      15.560  17.186  -0.698  0.00  0.00     0.140 A 
ATOM     14  C   UNL d   1      15.477  16.411  -0.406  0.00  0.00     0.030 A 
ATOM     15  F   UNL d   1      15.871  17.775  -0.211  0.00  0.00    -0.204 F 
ATOM     16  C   UNL d   1      15.167  15.823  -0.892  0.00  0.00     0.015 A 
ENDBRANCH   7  10
ENDBRANCH   1   7
BRANCH   2  17
ATOM     17  C   UNL d   1      13.389  13.065  -4.102  0.00  0.00     0.064 A 
ATOM     18  C   UNL d   1      13.100  12.370  -3.776  0.00  0.00     0.016 A 
ATOM     19  C   UNL d   1      12.789  11.781  -4.263  0.00  0.00     0.001 A 
ATOM     20  C   UNL d   1      13.120  12.260  -2.956  0.00  0.00     0.002 C 
ATOM     21  C   UNL d   1      12.769  11.888  -5.074  0.00  0.00     0.000 A 
ATOM     22  C   UNL d   1      13.060  12.589  -5.413  0.00  0.00     0.001 A 
ATOM     23  C   UNL d   1      13.370  13.178  -4.927  0.00  0.00     0.016 A 
ATOM     24  C   UNL d   1      13.660  13.874  -5.254  0.00  0.00     0.002 C 
ENDBRANCH   2  17
TORSDOF 3
ENDMDL
