MODEL 1
REMARK VINA RESULT:      15.5      0.000      0.000
REMARK  2 active torsions:
REMARK  status: ('A' for Active; 'I' for Inactive)
REMARK    1  A    between atoms: C_2  and  C_1 
REMARK       I    between atoms: N_3  and  C_1 
REMARK    2  A    between atoms: C_5  and  N_4 
ROOT
ATOM      1  C   UNL d   1      46.347 -18.684  44.107  0.00  0.00     0.267 C 
ATOM      2  N   UNL d   1      46.212 -17.872  44.161  0.00  0.00    -0.269 N 
ATOM      3  N   UNL d   1      45.942 -16.246  44.271  0.00  0.00    -0.301 N 
ATOM      4  O   UNL d   1      46.436 -19.135  44.789  0.00  0.00    -0.267 OA
ATOM      5  C   UNL d   1      46.166 -17.508  44.898  0.00  0.00     0.102 A 
ATOM      6  C   UNL d   1      46.122 -17.419  43.478  0.00  0.00     0.102 A 
ATOM      7  C   UNL d   1      45.987 -16.607  43.532  0.00  0.00     0.100 A 
ATOM      8  C   UNL d   1      46.031 -16.696  44.953  0.00  0.00     0.100 A 
ENDROOT
BRANCH   1   9
ATOM      9  C   UNL d   1      46.392 -19.046  43.368  0.00  0.00     0.084 A 
ATOM     10  C   UNL d   1      46.236 -19.855  43.293  0.00  0.00     0.145 A 
ATOM     11  F   UNL d   1      46.035 -20.300  43.956  0.00  0.00    -0.204 F 
ATOM     12  C   UNL d   1      46.283 -20.217  42.547  0.00  0.00     0.030 A 
ATOM     13  C   UNL d   1      46.484 -19.772  41.888  0.00  0.00     0.002 A 
ATOM     14  C   UNL d   1      46.640 -18.963  41.963  0.00  0.00     0.000 A 
ATOM     15  C   UNL d   1      46.595 -18.601  42.698  0.00  0.00     0.007 A 
ENDBRANCH   1   9
BRANCH   3  16
ATOM     16  C   UNL d   1      45.806 -15.431  44.325  0.00  0.00     0.064 A 
ATOM     17  C   UNL d   1      45.112 -15.153  44.664  0.00  0.00     0.016 A 
ATOM     18  C   UNL d   1      44.977 -14.339  44.719  0.00  0.00     0.001 A 
ATOM     19  C   UNL d   1      44.549 -15.682  44.950  0.00  0.00     0.002 C 
ATOM     20  C   UNL d   1      45.536 -13.807  44.435  0.00  0.00     0.000 A 
ATOM     21  C   UNL d   1      46.232 -14.088  44.095  0.00  0.00     0.002 A 
ATOM     22  C   UNL d   1      45.401 -12.995  44.489  0.00  0.00     0.000 C 
ATOM     23  C   UNL d   1      46.368 -14.902  44.041  0.00  0.00     0.018 A 
ENDBRANCH   3  16
TORSDOF 2
ENDMDL
