MODEL 1
REMARK VINA RESULT:      -9.0      0.000      0.000
REMARK  3 active torsions:
REMARK  status: ('A' for Active; 'I' for Inactive)
REMARK    1  A    between atoms: N_2  and  C_1 
REMARK       I    between atoms: C_4  and  N_2 
REMARK    2  A    between atoms: C_8  and  C_4 
REMARK    3  A    between atoms: C_10  and  C_5 
ROOT
ATOM      1  C   UNL d   1      51.821  33.202  53.313  0.00  0.00     0.197 A 
ATOM      2  N   UNL d   1      52.337  33.580  53.814  0.00  0.00    -0.221 NA
ATOM      3  C   UNL d   1      53.043  33.092  53.810  0.00  0.00     0.090 A 
ATOM      4  S   UNL d   1      52.155  32.512  52.995  0.00  0.00    -0.046 SA
ATOM      5  C   UNL d   1      52.903  32.442  53.298  0.00  0.00     0.058 A 
ENDROOT
BRANCH   1   6
ATOM      6  N   UNL d   1      51.039  33.478  53.136  0.00  0.00    -0.183 NA
ATOM      7  C   UNL d   1      50.954  34.118  52.592  0.00  0.00     0.281 C 
ATOM      8  O   UNL d   1      51.621  34.464  52.241  0.00  0.00    -0.265 OA
BRANCH   7   9
ATOM      9  C   UNL d   1      50.209  34.412  52.397  0.00  0.00     0.058 A 
ATOM     10  C   UNL d   1      49.919  34.266  51.648  0.00  0.00     0.006 A 
ATOM     11  C   UNL d   1      49.162  34.562  51.440  0.00  0.00     0.012 A 
ATOM     12  C   UNL d   1      48.709  34.993  51.972  0.00  0.00     0.058 A 
ATOM     13  C   UNL d   1      49.018  35.138  52.741  0.00  0.00     0.012 A 
ATOM     14 CL   UNL d   1      48.023  35.269  51.804  0.00  0.00    -0.082 Cl
ATOM     15  C   UNL d   1      49.771  34.843  52.947  0.00  0.00     0.006 A 
ENDBRANCH   7   9
ENDBRANCH   1   6
BRANCH   3  16
ATOM     16  C   UNL d   1      53.739  33.219  54.224  0.00  0.00     0.018 A 
ATOM     17  C   UNL d   1      53.735  33.333  55.041  0.00  0.00     0.002 A 
ATOM     18  C   UNL d   1      54.445  33.463  55.463  0.00  0.00     0.000 A 
ATOM     19  C   UNL d   1      55.163  33.477  55.041  0.00  0.00     0.000 A 
ATOM     20  C   UNL d   1      55.162  33.363  54.228  0.00  0.00     0.000 A 
ATOM     21  C   UNL d   1      54.444  33.234  53.820  0.00  0.00     0.002 A 
ENDBRANCH   3  16
TORSDOF 3
ENDMDL
MODEL 2
REMARK VINA RESULT:      -8.3      2.412      4.988
REMARK  3 active torsions:
REMARK  status: ('A' for Active; 'I' for Inactive)
REMARK    1  A    between atoms: N_2  and  C_1 
REMARK       I    between atoms: C_4  and  N_2 
REMARK    2  A    between atoms: C_8  and  C_4 
REMARK    3  A    between atoms: C_10  and  C_5 
ROOT
ATOM      1  C   UNL d   1      51.639  33.293  53.235  0.00  0.00     0.197 A 
ATOM      2  N   UNL d   1      50.843  33.350  53.082  0.00  0.00    -0.221 NA
ATOM      3  C   UNL d   1      50.731  34.155  52.803  0.00  0.00     0.090 A 
ATOM      4  S   UNL d   1      52.033  34.005  53.072  0.00  0.00    -0.046 SA
ATOM      5  C   UNL d   1      51.479  34.534  52.808  0.00  0.00     0.058 A 
ENDROOT
BRANCH   1   6
ATOM      6  N   UNL d   1      52.020  32.593  53.525  0.00  0.00    -0.183 NA
ATOM      7  C   UNL d   1      52.438  32.108  52.975  0.00  0.00     0.281 C 
ATOM      8  O   UNL d   1      52.474  32.315  52.173  0.00  0.00    -0.265 OA
BRANCH   7   9
ATOM      9  C   UNL d   1      52.820  31.420  53.222  0.00  0.00     0.058 A 
ATOM     10  C   UNL d   1      52.511  30.701  52.991  0.00  0.00     0.006 A 
ATOM     11  C   UNL d   1      52.893  29.996  53.237  0.00  0.00     0.012 A 
ATOM     12  C   UNL d   1      53.568  30.014  53.703  0.00  0.00     0.058 A 
ATOM     13  C   UNL d   1      53.878  30.760  53.936  0.00  0.00     0.012 A 
ATOM     14 CL   UNL d   1      53.928  29.388  53.937  0.00  0.00    -0.082 Cl
ATOM     15  C   UNL d   1      53.498  31.462  53.691  0.00  0.00     0.006 A 
ENDBRANCH   7   9
ENDBRANCH   1   6
BRANCH   3  16
ATOM     16  C   UNL d   1      50.029  34.508  52.571  0.00  0.00     0.018 A 
ATOM     17  C   UNL d   1      49.731  34.405  51.809  0.00  0.00     0.002 A 
ATOM     18  C   UNL d   1      49.015  34.765  51.572  0.00  0.00     0.000 A 
ATOM     19  C   UNL d   1      48.603  35.234  52.124  0.00  0.00     0.000 A 
ATOM     20  C   UNL d   1      48.903  35.334  52.880  0.00  0.00     0.000 A 
ATOM     21  C   UNL d   1      49.621  34.967  53.102  0.00  0.00     0.002 A 
ENDBRANCH   3  16
TORSDOF 3
ENDMDL
MODEL 3
REMARK VINA RESULT:      -8.0      1.942      5.099
REMARK  3 active torsions:
REMARK  status: ('A' for Active; 'I' for Inactive)
REMARK    1  A    between atoms: N_2  and  C_1 
REMARK       I    between atoms: C_4  and  N_2 
REMARK    2  A    between atoms: C_8  and  C_4 
REMARK    3  A    between atoms: C_10  and  C_5 
ROOT
ATOM      1  C   UNL d   1      50.860  34.049  52.945  0.00  0.00     0.197 A 
ATOM      2  N   UNL d   1      50.230  34.481  53.221  0.00  0.00    -0.221 NA
ATOM      3  C   UNL d   1      49.760  34.654  52.523  0.00  0.00     0.090 A 
ATOM      4  S   UNL d   1      50.818  33.940  52.123  0.00  0.00    -0.046 SA
ATOM      5  C   UNL d   1      50.146  34.309  51.862  0.00  0.00     0.058 A 
ENDROOT
BRANCH   1   6
ATOM      6  N   UNL d   1      51.483  33.748  53.435  0.00  0.00    -0.183 NA
ATOM      7  C   UNL d   1      52.222  34.156  53.439  0.00  0.00     0.281 C 
ATOM      8  O   UNL d   1      52.331  34.835  52.975  0.00  0.00    -0.265 OA
BRANCH   7   9
ATOM      9  C   UNL d   1      52.850  33.892  53.904  0.00  0.00     0.058 A 
ATOM     10  C   UNL d   1      53.140  34.390  54.482  0.00  0.00     0.006 A 
ATOM     11  C   UNL d   1      53.779  34.129  54.959  0.00  0.00     0.012 A 
ATOM     12  C   UNL d   1      54.116  33.388  54.858  0.00  0.00     0.058 A 
ATOM     13  C   UNL d   1      53.808  32.883  54.260  0.00  0.00     0.012 A 
ATOM     14 CL   UNL d   1      54.693  33.133  55.279  0.00  0.00    -0.082 Cl
ATOM     15  C   UNL d   1      53.173  33.142  53.785  0.00  0.00     0.006 A 
ENDBRANCH   7   9
ENDBRANCH   1   6
BRANCH   3  16
ATOM     16  C   UNL d   1      49.059  35.077  52.486  0.00  0.00     0.018 A 
ATOM     17  C   UNL d   1      48.585  35.061  51.812  0.00  0.00     0.002 A 
ATOM     18  C   UNL d   1      47.870  35.493  51.775  0.00  0.00     0.000 A 
ATOM     19  C   UNL d   1      47.643  35.944  52.438  0.00  0.00     0.000 A 
ATOM     20  C   UNL d   1      48.118  35.957  53.106  0.00  0.00     0.000 A 
ATOM     21  C   UNL d   1      48.830  35.520  53.128  0.00  0.00     0.002 A 
ENDBRANCH   3  16
TORSDOF 3
ENDMDL
