MODEL 1
REMARK VINA RESULT:      33.7      0.000      0.000
REMARK  3 active torsions:
REMARK  status: ('A' for Active; 'I' for Inactive)
REMARK    1  A    between atoms: C_5  and  C_1 
REMARK    2  A    between atoms: N_6  and  C_2 
REMARK       I    between atoms: C_8  and  N_6 
REMARK    3  A    between atoms: C_9  and  C_8 
ROOT
ATOM      1  C   UNL d   1     -54.871-102.131 -39.762  0.00  0.00     0.231 A 
ATOM      2  C   UNL d   1     -54.786-101.968 -41.085  0.00  0.00     0.297 A 
ATOM      3  O   UNL d   1     -54.782-101.568 -40.364  0.00  0.00    -0.252 OA
ATOM      4  N   UNL d   1     -54.927-102.868 -40.117  0.00  0.00    -0.117 NA
ATOM      5  N   UNL d   1     -54.875-102.767 -40.933  0.00  0.00    -0.101 NA
ENDROOT
BRANCH   2   6
ATOM      6  N   UNL d   1     -54.711-101.614 -41.827  0.00  0.00    -0.165 NA
ATOM      7  C   UNL d   1     -55.150-101.886 -42.459  0.00  0.00     0.282 C 
ATOM      8  O   UNL d   1     -55.675-102.520 -42.366  0.00  0.00    -0.265 OA
BRANCH   7   9
ATOM      9  C   UNL d   1     -55.076-101.532 -43.200  0.00  0.00     0.060 A 
ATOM     10  C   UNL d   1     -54.956-101.990 -43.865  0.00  0.00     0.034 A 
ATOM     11  C   UNL d   1     -54.882-101.633 -44.604  0.00  0.00     0.140 A 
ATOM     12  F   UNL d   1     -54.759-102.094 -45.289  0.00  0.00    -0.204 F 
ATOM     13  C   UNL d   1     -54.929-100.812 -44.672  0.00  0.00     0.030 A 
ATOM     14  C   UNL d   1     -55.050-100.354 -43.996  0.00  0.00     0.003 A 
ATOM     15  C   UNL d   1     -55.124-100.717 -43.257  0.00  0.00     0.005 A 
ENDBRANCH   7   9
ENDBRANCH   2   6
BRANCH   1  16
ATOM     16  C   UNL d   1     -54.896-101.968 -38.950  0.00  0.00     0.168 A 
ATOM     17  O   UNL d   1     -55.089-102.566 -38.421  0.00  0.00    -0.297 OA
ATOM     18  C   UNL d   1     -55.114-102.406 -37.621  0.00  0.00     0.149 A 
ATOM     19  C   UNL d   1     -54.948-101.652 -37.344  0.00  0.00     0.149 A 
ATOM     20  O   UNL d   1     -54.753-101.045 -37.863  0.00  0.00    -0.299 OA
ATOM     21  C   UNL d   1     -54.728-101.205 -38.666  0.00  0.00     0.151 A 
ENDBRANCH   1  16
TORSDOF 3
ENDMDL
MODEL 2
REMARK VINA RESULT:      36.3      1.273      1.769
REMARK  3 active torsions:
REMARK  status: ('A' for Active; 'I' for Inactive)
REMARK    1  A    between atoms: C_5  and  C_1 
REMARK    2  A    between atoms: N_6  and  C_2 
REMARK       I    between atoms: C_8  and  N_6 
REMARK    3  A    between atoms: C_9  and  C_8 
ROOT
ATOM      1  C   UNL d   1     -55.105-102.209 -41.166  0.00  0.00     0.231 A 
ATOM      2  C   UNL d   1     -54.855-101.461 -42.244  0.00  0.00     0.297 A 
ATOM      3  O   UNL d   1     -55.095-101.433 -41.455  0.00  0.00    -0.252 OA
ATOM      4  N   UNL d   1     -54.872-102.705 -41.775  0.00  0.00    -0.117 NA
ATOM      5  N   UNL d   1     -54.718-102.244 -42.440  0.00  0.00    -0.101 NA
ENDROOT
BRANCH   2   6
ATOM      6  N   UNL d   1     -54.770-100.808 -42.740  0.00  0.00    -0.165 NA
ATOM      7  C   UNL d   1     -55.004-100.850 -43.521  0.00  0.00     0.282 C 
ATOM      8  O   UNL d   1     -55.329-101.549 -43.826  0.00  0.00    -0.265 OA
BRANCH   7   9
ATOM      9  C   UNL d   1     -54.920-100.197 -44.017  0.00  0.00     0.060 A 
ATOM     10  C   UNL d   1     -54.869-100.297 -44.826  0.00  0.00     0.034 A 
ATOM     11  C   UNL d   1     -54.785 -99.642 -45.318  0.00  0.00     0.140 A 
ATOM     12  F   UNL d   1     -54.733 -99.737 -46.146  0.00  0.00    -0.204 F 
ATOM     13  C   UNL d   1     -54.752 -98.884 -44.995  0.00  0.00     0.030 A 
ATOM     14  C   UNL d   1     -54.803 -98.789 -44.176  0.00  0.00     0.003 A 
ATOM     15  C   UNL d   1     -54.888 -99.450 -43.686  0.00  0.00     0.005 A 
ENDBRANCH   7   9
ENDBRANCH   2   6
BRANCH   1  16
ATOM     16  C   UNL d   1     -55.315-102.433 -40.396  0.00  0.00     0.168 A 
ATOM     17  O   UNL d   1     -56.096-102.628 -40.227  0.00  0.00    -0.297 OA
ATOM     18  C   UNL d   1     -56.302-102.849 -39.469  0.00  0.00     0.149 A 
ATOM     19  C   UNL d   1     -55.735-102.877 -38.876  0.00  0.00     0.149 A 
ATOM     20  O   UNL d   1     -54.952-102.685 -39.033  0.00  0.00    -0.299 OA
ATOM     21  C   UNL d   1     -54.743-102.463 -39.794  0.00  0.00     0.151 A 
ENDBRANCH   1  16
TORSDOF 3
ENDMDL
