MODEL 1
REMARK VINA RESULT:      -2.9      0.000      0.000
REMARK  5 active torsions:
REMARK  status: ('A' for Active; 'I' for Inactive)
REMARK    1  A    between atoms: C_17  and  N_5 
REMARK    2  A    between atoms: S_14  and  C_6 
REMARK    3  A    between atoms: C_11  and  C_18 
REMARK    4  A    between atoms: C_18  and  S_14 
REMARK    5  A    between atoms: C_19  and  C_17 
ROOT
ATOM      1  C   UNL d   1      57.201  -0.444  31.794  0.00  0.00     0.081 A 
ATOM      2  C   UNL d   1      56.970  -1.174  31.475  0.00  0.00     0.117 A 
ATOM      3  N   UNL d   1      57.386  -1.497  30.838  0.00  0.00    -0.215 NA
ATOM      4  C   UNL d   1      57.845  -0.037  31.479  0.00  0.00     0.268 A 
ATOM      5  N   UNL d   1      58.268  -0.359  30.837  0.00  0.00    -0.253 N 
ATOM      6  C   UNL d   1      58.034  -1.090  30.520  0.00  0.00     0.182 A 
ATOM      7  S   UNL d   1      56.321  -1.439  31.900  0.00  0.00    -0.068 SA
ATOM      8  C   UNL d   1      56.690  -0.262  32.417  0.00  0.00     0.013 A 
ATOM      9  C   UNL d   1      56.147  -0.876  32.482  0.00  0.00     0.031 A 
ATOM     10  O   UNL d   1      58.074   0.682  31.793  0.00  0.00    -0.267 OA
ATOM     11  C   UNL d   1      56.751   0.423  32.865  0.00  0.00     0.001 A 
ATOM     12  C   UNL d   1      55.524  -0.959  33.017  0.00  0.00     0.006 A 
ATOM     13  C   UNL d   1      56.282   0.671  33.497  0.00  0.00     0.000 A 
ATOM     14  C   UNL d   1      55.294  -0.444  33.616  0.00  0.00     0.001 A 
ATOM     15  C   UNL d   1      55.627   0.282  33.836  0.00  0.00     0.000 A 
ENDROOT
BRANCH   6  16
ATOM     16  S   UNL d   1      58.454  -1.412  29.881  0.00  0.00    -0.048 SA
BRANCH  16  17
ATOM     17  C   UNL d   1      58.191  -2.103  29.524  0.00  0.00     0.058 C 
BRANCH  17  18
ATOM     18  C   UNL d   1      58.734  -2.618  29.169  0.00  0.00     0.095 A 
ATOM     19  N   UNL d   1      58.732  -3.426  29.221  0.00  0.00    -0.238 NA
ATOM     20  C   UNL d   1      59.367  -3.706  28.785  0.00  0.00     0.111 A 
ATOM     21  C   UNL d   1      59.587  -4.481  28.676  0.00  0.00     0.028 C 
ATOM     22  S   UNL d   1      59.753  -3.068  28.470  0.00  0.00    -0.066 SA
ATOM     23  C   UNL d   1      59.365  -2.398  28.704  0.00  0.00     0.057 A 
ENDBRANCH  17  18
ENDBRANCH  16  17
ENDBRANCH   6  16
BRANCH   5  24
ATOM     24  C   UNL d   1      58.910   0.037  30.516  0.00  0.00     0.085 C 
BRANCH  24  25
ATOM     25  C   UNL d   1      59.455   0.418  31.026  0.00  0.00     0.019 C 
ATOM     26  C   UNL d   1      60.186   0.670  30.738  0.00  0.00     0.002 C 
ENDBRANCH  24  25
ENDBRANCH   5  24
TORSDOF 5
ENDMDL
MODEL 2
REMARK VINA RESULT:      -0.4      1.688      4.932
REMARK  5 active torsions:
REMARK  status: ('A' for Active; 'I' for Inactive)
REMARK    1  A    between atoms: C_17  and  N_5 
REMARK    2  A    between atoms: S_14  and  C_6 
REMARK    3  A    between atoms: C_11  and  C_18 
REMARK    4  A    between atoms: C_18  and  S_14 
REMARK    5  A    between atoms: C_19  and  C_17 
ROOT
ATOM      1  C   UNL d   1      59.752  -2.479  29.271  0.00  0.00     0.081 A 
ATOM      2  C   UNL d   1      58.924  -2.465  29.316  0.00  0.00     0.117 A 
ATOM      3  N   UNL d   1      58.535  -1.778  29.557  0.00  0.00    -0.215 NA
ATOM      4  C   UNL d   1      60.191  -1.809  29.466  0.00  0.00     0.268 A 
ATOM      5  N   UNL d   1      59.802  -1.113  29.709  0.00  0.00    -0.253 N 
ATOM      6  C   UNL d   1      58.974  -1.103  29.754  0.00  0.00     0.182 A 
ATOM      7  S   UNL d   1      58.649  -3.204  29.091  0.00  0.00    -0.068 SA
ATOM      8  C   UNL d   1      59.984  -3.230  29.017  0.00  0.00     0.013 A 
ATOM      9  C   UNL d   1      59.303  -3.677  28.906  0.00  0.00     0.031 A 
ATOM     10  O   UNL d   1      61.006  -1.821  29.421  0.00  0.00    -0.267 OA
ATOM     11  C   UNL d   1      60.768  -3.448  28.908  0.00  0.00     0.001 A 
ATOM     12  C   UNL d   1      59.235  -4.461  28.656  0.00  0.00     0.006 A 
ATOM     13  C   UNL d   1      61.073  -4.173  28.659  0.00  0.00     0.000 A 
ATOM     14  C   UNL d   1      59.836  -4.986  28.457  0.00  0.00     0.001 A 
ATOM     15  C   UNL d   1      60.656  -4.865  28.456  0.00  0.00     0.000 A 
ENDROOT
BRANCH   6  16
ATOM     16  S   UNL d   1      58.585  -0.410  29.997  0.00  0.00    -0.048 SA
BRANCH  16  17
ATOM     17  C   UNL d   1      57.798  -0.441  30.228  0.00  0.00     0.058 C 
BRANCH  17  18
ATOM     18  C   UNL d   1      57.550  -0.038  30.907  0.00  0.00     0.095 A 
ATOM     19  N   UNL d   1      57.957   0.022  31.605  0.00  0.00    -0.238 NA
ATOM     20  C   UNL d   1      57.505   0.470  32.120  0.00  0.00     0.111 A 
ATOM     21  C   UNL d   1      57.688   0.676  32.885  0.00  0.00     0.028 C 
ATOM     22  S   UNL d   1      56.825   0.682  31.736  0.00  0.00    -0.066 SA
ATOM     23  C   UNL d   1      56.851   0.371  30.990  0.00  0.00     0.057 A 
ENDBRANCH  17  18
ENDBRANCH  16  17
ENDBRANCH   6  16
BRANCH   5  24
ATOM     24  C   UNL d   1      60.228  -0.441  29.906  0.00  0.00     0.085 C 
BRANCH  24  25
ATOM     25  C   UNL d   1      60.499   0.068  29.296  0.00  0.00     0.019 C 
ATOM     26  C   UNL d   1      61.022   0.681  29.470  0.00  0.00     0.002 C 
ENDBRANCH  24  25
ENDBRANCH   5  24
TORSDOF 5
ENDMDL
