MODEL 1
REMARK VINA RESULT:      -2.4      0.000      0.000
REMARK  2 active torsions:
REMARK  status: ('A' for Active; 'I' for Inactive)
REMARK    1  A    between atoms: C_4  and  S_1 
REMARK    2  A    between atoms: C_6  and  C_4 
ROOT
ATOM      1  C   UNL d   1      29.975  16.541 -24.209  0.00  0.00     0.013 A 
ATOM      2  C   UNL d   1      30.349  17.202 -24.538  0.00  0.00     0.001 A 
ATOM      3  C   UNL d   1      30.378  16.047 -23.698  0.00  0.00     0.001 A 
ATOM      4  C   UNL d   1      31.160  16.205 -23.507  0.00  0.00     0.000 A 
ATOM      5  C   UNL d   1      31.134  17.362 -24.348  0.00  0.00     0.000 A 
ATOM      6  C   UNL d   1      31.545  16.865 -23.831  0.00  0.00     0.000 A 
ENDROOT
BRANCH   1   7
ATOM      7  C   UNL d   1      29.188  16.384 -24.402  0.00  0.00     0.119 C 
BRANCH   7   8
ATOM      8  S   UNL d   1      28.587  16.551 -23.861  0.00  0.00     0.303 S 
ATOM      9  O   UNL d   1      28.595  15.700 -23.609  0.00  0.00    -0.197 OA
ATOM     10  O   UNL d   1      28.531  17.432 -24.074  0.00  0.00    -0.197 OA
ATOM     11  N   UNL d   1      28.015  16.691 -23.339  0.00  0.00    -0.043 N 
ENDBRANCH   7   8
ENDBRANCH   1   7
TORSDOF 2
ENDMDL
MODEL 2
REMARK VINA RESULT:      -2.4      1.967      2.652
REMARK  2 active torsions:
REMARK  status: ('A' for Active; 'I' for Inactive)
REMARK    1  A    between atoms: C_4  and  S_1 
REMARK    2  A    between atoms: C_6  and  C_4 
ROOT
ATOM      1  C   UNL d   1      29.836  16.307 -24.027  0.00  0.00     0.013 A 
ATOM      2  C   UNL d   1      29.562  15.762 -23.468  0.00  0.00     0.001 A 
ATOM      3  C   UNL d   1      29.348  16.904 -24.297  0.00  0.00     0.001 A 
ATOM      4  C   UNL d   1      28.581  16.967 -24.015  0.00  0.00     0.000 A 
ATOM      5  C   UNL d   1      28.793  15.822 -23.183  0.00  0.00     0.000 A 
ATOM      6  C   UNL d   1      28.296  16.424 -23.454  0.00  0.00     0.000 A 
ENDROOT
BRANCH   1   7
ATOM      7  C   UNL d   1      30.608  16.243 -24.310  0.00  0.00     0.119 C 
BRANCH   7   8
ATOM      8  S   UNL d   1      31.208  16.712 -23.989  0.00  0.00     0.303 S 
ATOM      9  O   UNL d   1      31.088  17.295 -24.647  0.00  0.00    -0.197 OA
ATOM     10  O   UNL d   1      31.378  16.156 -23.291  0.00  0.00    -0.197 OA
ATOM     11  N   UNL d   1      31.776  17.172 -23.697  0.00  0.00    -0.043 N 
ENDBRANCH   7   8
ENDBRANCH   1   7
TORSDOF 2
ENDMDL
MODEL 3
REMARK VINA RESULT:      -2.4      2.112      2.510
REMARK  2 active torsions:
REMARK  status: ('A' for Active; 'I' for Inactive)
REMARK    1  A    between atoms: C_4  and  S_1 
REMARK    2  A    between atoms: C_6  and  C_4 
ROOT
ATOM      1  C   UNL d   1      30.220  16.037 -23.787  0.00  0.00     0.013 A 
ATOM      2  C   UNL d   1      29.572  16.425 -24.123  0.00  0.00     0.001 A 
ATOM      3  C   UNL d   1      30.123  15.556 -23.133  0.00  0.00     0.001 A 
ATOM      4  C   UNL d   1      29.378  15.456 -22.805  0.00  0.00     0.000 A 
ATOM      5  C   UNL d   1      28.824  16.326 -23.796  0.00  0.00     0.000 A 
ATOM      6  C   UNL d   1      28.721  15.842 -23.135  0.00  0.00     0.000 A 
ENDROOT
BRANCH   1   7
ATOM      7  C   UNL d   1      30.970  16.139 -24.118  0.00  0.00     0.119 C 
BRANCH   7   8
ATOM      8  S   UNL d   1      31.518  16.640 -23.756  0.00  0.00     0.303 S 
ATOM      9  O   UNL d   1      31.887  15.934 -23.365  0.00  0.00    -0.197 OA
ATOM     10  O   UNL d   1      31.185  17.400 -24.126  0.00  0.00    -0.197 OA
ATOM     11  N   UNL d   1      32.048  17.103 -23.404  0.00  0.00    -0.043 N 
ENDBRANCH   7   8
ENDBRANCH   1   7
TORSDOF 2
ENDMDL
MODEL 4
REMARK VINA RESULT:      -2.4      6.530      6.968
REMARK  2 active torsions:
REMARK  status: ('A' for Active; 'I' for Inactive)
REMARK    1  A    between atoms: C_4  and  S_1 
REMARK    2  A    between atoms: C_6  and  C_4 
ROOT
ATOM      1  C   UNL d   1      32.736  22.390 -21.250  0.00  0.00     0.013 A 
ATOM      2  C   UNL d   1      32.731  22.837 -21.945  0.00  0.00     0.001 A 
ATOM      3  C   UNL d   1      32.254  22.594 -20.622  0.00  0.00     0.001 A 
ATOM      4  C   UNL d   1      31.761  23.247 -20.678  0.00  0.00     0.000 A 
ATOM      5  C   UNL d   1      32.238  23.493 -22.005  0.00  0.00     0.000 A 
ATOM      6  C   UNL d   1      31.749  23.702 -21.372  0.00  0.00     0.000 A 
ENDROOT
BRANCH   1   7
ATOM      7  C   UNL d   1      33.233  21.733 -21.194  0.00  0.00     0.119 C 
BRANCH   7   8
ATOM      8  S   UNL d   1      32.967  20.990 -21.439  0.00  0.00     0.303 S 
ATOM      9  O   UNL d   1      32.697  20.826 -20.610  0.00  0.00    -0.197 OA
ATOM     10  O   UNL d   1      33.220  21.098 -22.305  0.00  0.00    -0.197 OA
ATOM     11  N   UNL d   1      32.708  20.279 -21.656  0.00  0.00    -0.043 N 
ENDBRANCH   7   8
ENDBRANCH   1   7
TORSDOF 2
ENDMDL
MODEL 5
REMARK VINA RESULT:      -2.3      6.196      6.747
REMARK  2 active torsions:
REMARK  status: ('A' for Active; 'I' for Inactive)
REMARK    1  A    between atoms: C_4  and  S_1 
REMARK    2  A    between atoms: C_6  and  C_4 
ROOT
ATOM      1  C   UNL d   1      33.023  21.736 -21.373  0.00  0.00     0.013 A 
ATOM      2  C   UNL d   1      33.215  21.669 -22.174  0.00  0.00     0.001 A 
ATOM      3  C   UNL d   1      32.858  21.070 -20.928  0.00  0.00     0.001 A 
ATOM      4  C   UNL d   1      32.883  20.328 -21.276  0.00  0.00     0.000 A 
ATOM      5  C   UNL d   1      33.241  20.926 -22.526  0.00  0.00     0.000 A 
ATOM      6  C   UNL d   1      33.075  20.250 -22.080  0.00  0.00     0.000 A 
ENDROOT
BRANCH   1   7
ATOM      7  C   UNL d   1      32.998  22.483 -21.023  0.00  0.00     0.119 C 
BRANCH   7   8
ATOM      8  S   UNL d   1      32.368  22.993 -21.179  0.00  0.00     0.303 S 
ATOM      9  O   UNL d   1      32.883  23.435 -21.752  0.00  0.00    -0.197 OA
ATOM     10  O   UNL d   1      31.792  22.584 -20.608  0.00  0.00    -0.197 OA
ATOM     11  N   UNL d   1      31.778  23.489 -21.341  0.00  0.00    -0.043 N 
ENDBRANCH   7   8
ENDBRANCH   1   7
TORSDOF 2
ENDMDL
MODEL 6
REMARK VINA RESULT:      -2.2      2.950      3.253
REMARK  2 active torsions:
REMARK  status: ('A' for Active; 'I' for Inactive)
REMARK    1  A    between atoms: C_4  and  S_1 
REMARK    2  A    between atoms: C_6  and  C_4 
ROOT
ATOM      1  C   UNL d   1      31.927  17.272 -23.953  0.00  0.00     0.013 A 
ATOM      2  C   UNL d   1      31.332  17.641 -24.392  0.00  0.00     0.001 A 
ATOM      3  C   UNL d   1      31.786  16.559 -23.579  0.00  0.00     0.001 A 
ATOM      4  C   UNL d   1      31.050  16.204 -23.639  0.00  0.00     0.000 A 
ATOM      5  C   UNL d   1      30.592  17.287 -24.454  0.00  0.00     0.000 A 
ATOM      6  C   UNL d   1      30.445  16.566 -24.078  0.00  0.00     0.000 A 
ENDROOT
BRANCH   1   7
ATOM      7  C   UNL d   1      32.668  17.631 -23.893  0.00  0.00     0.119 C 
BRANCH   7   8
ATOM      8  S   UNL d   1      32.854  18.093 -23.234  0.00  0.00     0.303 S 
ATOM      9  O   UNL d   1      33.241  17.386 -22.862  0.00  0.00    -0.197 OA
ATOM     10  O   UNL d   1      32.474  18.851 -23.560  0.00  0.00    -0.197 OA
ATOM     11  N   UNL d   1      33.039  18.518 -22.598  0.00  0.00    -0.043 N 
ENDBRANCH   7   8
ENDBRANCH   1   7
TORSDOF 2
ENDMDL
