MODEL 1
REMARK VINA RESULT:      -2.8      0.000      0.000
REMARK  3 active torsions:
REMARK  status: ('A' for Active; 'I' for Inactive)
REMARK    1  A    between atoms: C_7  and  C_1 
REMARK    2  A    between atoms: C_12  and  C_6 
REMARK       I    between atoms: N_10  and  C_7 
REMARK    3  A    between atoms: C_13  and  N_10 
ROOT
ATOM      1  C   UNL d   1      33.022  20.153 -22.492  0.00  0.00     0.108 A 
ATOM      2  C   UNL d   1      32.974  21.316 -21.875  0.00  0.00     0.046 A 
ATOM      3  C   UNL d   1      32.914  20.955 -22.609  0.00  0.00     0.116 A 
ATOM      4  C   UNL d   1      33.119  20.720 -21.322  0.00  0.00     0.112 A 
ATOM      5  S   UNL d   1      33.145  20.004 -21.725  0.00  0.00    -0.061 SA
ATOM      6  C   UNL d   1      32.918  22.098 -21.629  0.00  0.00     0.028 A 
ATOM      7  N   UNL d   1      33.209  20.904 -20.521  0.00  0.00    -0.239 NA
ATOM      8  C   UNL d   1      33.006  22.293 -20.830  0.00  0.00     0.020 A 
ATOM      9  C   UNL d   1      33.151  21.698 -20.278  0.00  0.00     0.082 A 
ATOM     10  N   UNL d   1      32.770  21.330 -23.337  0.00  0.00    -0.147 N 
ATOM     11  C   UNL d   1      32.950  23.076 -20.585  0.00  0.00     0.002 A 
ATOM     12  C   UNL d   1      33.241  21.882 -19.476  0.00  0.00     0.019 A 
ATOM     13  C   UNL d   1      33.039  23.274 -19.782  0.00  0.00     0.000 A 
ATOM     14  C   UNL d   1      33.183  22.679 -19.230  0.00  0.00     0.002 A 
ENDROOT
BRANCH   1  15
ATOM     15  C   UNL d   1      33.010  19.562 -23.070  0.00  0.00     0.287 C 
ATOM     16  N   UNL d   1      32.893  18.778 -22.871  0.00  0.00    -0.208 NA
ATOM     17  O   UNL d   1      33.120  19.776 -23.866  0.00  0.00    -0.265 OA
BRANCH  16  18
ATOM     18  C   UNL d   1      32.883  18.201 -23.455  0.00  0.00     0.085 A 
ATOM     19  C   UNL d   1      33.021  17.408 -23.259  0.00  0.00     0.018 A 
ATOM     20  C   UNL d   1      33.170  17.145 -22.518  0.00  0.00     0.002 C 
ATOM     21  C   UNL d   1      33.007  16.834 -23.865  0.00  0.00     0.002 A 
ATOM     22  C   UNL d   1      32.857  17.050 -24.657  0.00  0.00     0.000 A 
ATOM     23  C   UNL d   1      32.722  17.846 -24.829  0.00  0.00     0.002 A 
ATOM     24  C   UNL d   1      32.734  18.420 -24.237  0.00  0.00     0.019 A 
ENDBRANCH  16  18
ENDBRANCH   1  15
BRANCH   6  25
ATOM     25  C   UNL d   1      32.774  22.690 -22.178  0.00  0.00     0.100 A 
ATOM     26  O   UNL d   1      33.241  22.937 -22.808  0.00  0.00    -0.305 OA
ATOM     27  C   UNL d   1      32.841  23.552 -23.189  0.00  0.00     0.123 A 
ATOM     28  C   UNL d   1      32.152  23.680 -22.807  0.00  0.00     0.029 A 
ATOM     29  C   UNL d   1      32.094  23.160 -22.184  0.00  0.00     0.027 A 
ENDBRANCH   6  25
TORSDOF 3
ENDMDL
MODEL 2
REMARK VINA RESULT:      -0.6      1.595      5.365
REMARK  3 active torsions:
REMARK  status: ('A' for Active; 'I' for Inactive)
REMARK    1  A    between atoms: C_7  and  C_1 
REMARK    2  A    between atoms: C_12  and  C_6 
REMARK       I    between atoms: N_10  and  C_7 
REMARK    3  A    between atoms: C_13  and  N_10 
ROOT
ATOM      1  C   UNL d   1      32.666  19.174 -23.173  0.00  0.00     0.108 A 
ATOM      2  C   UNL d   1      32.106  18.152 -23.787  0.00  0.00     0.046 A 
ATOM      3  C   UNL d   1      31.957  18.892 -23.469  0.00  0.00     0.116 A 
ATOM      4  C   UNL d   1      32.909  17.997 -23.678  0.00  0.00     0.112 A 
ATOM      5  S   UNL d   1      33.241  18.645 -23.295  0.00  0.00    -0.061 SA
ATOM      6  C   UNL d   1      31.628  17.596 -24.160  0.00  0.00     0.028 A 
ATOM      7  N   UNL d   1      33.239  17.286 -23.942  0.00  0.00    -0.239 NA
ATOM      8  C   UNL d   1      31.948  16.882 -24.428  0.00  0.00     0.020 A 
ATOM      9  C   UNL d   1      32.751  16.727 -24.319  0.00  0.00     0.082 A 
ATOM     10  N   UNL d   1      31.226  19.287 -23.447  0.00  0.00    -0.147 N 
ATOM     11  C   UNL d   1      31.470  16.326 -24.801  0.00  0.00     0.002 A 
ATOM     12  C   UNL d   1      33.081  16.016 -24.582  0.00  0.00     0.019 A 
ATOM     13  C   UNL d   1      31.789  15.608 -25.070  0.00  0.00     0.000 A 
ATOM     14  C   UNL d   1      32.592  15.453 -24.961  0.00  0.00     0.002 A 
ENDROOT
BRANCH   1  15
ATOM     15  C   UNL d   1      32.793  19.900 -22.799  0.00  0.00     0.287 C 
ATOM     16  N   UNL d   1      32.740  19.972 -21.986  0.00  0.00    -0.208 NA
ATOM     17  O   UNL d   1      32.978  20.564 -23.263  0.00  0.00    -0.265 OA
BRANCH  16  18
ATOM     18  C   UNL d   1      32.868  20.698 -21.627  0.00  0.00     0.085 A 
ATOM     19  C   UNL d   1      32.854  20.763 -20.802  0.00  0.00     0.018 A 
ATOM     20  C   UNL d   1      32.720  20.152 -20.302  0.00  0.00     0.002 C 
ATOM     21  C   UNL d   1      32.987  21.509 -20.452  0.00  0.00     0.002 A 
ATOM     22  C   UNL d   1      33.132  22.183 -20.923  0.00  0.00     0.000 A 
ATOM     23  C   UNL d   1      33.142  22.096 -21.743  0.00  0.00     0.002 A 
ATOM     24  C   UNL d   1      33.011  21.362 -22.097  0.00  0.00     0.019 A 
ENDBRANCH  16  18
ENDBRANCH   1  15
BRANCH   6  25
ATOM     25  C   UNL d   1      30.830  17.750 -24.269  0.00  0.00     0.100 A 
ATOM     26  O   UNL d   1      30.201  17.609 -23.758  0.00  0.00    -0.305 OA
ATOM     27  C   UNL d   1      29.512  17.867 -24.135  0.00  0.00     0.123 A 
ATOM     28  C   UNL d   1      29.708  18.156 -24.852  0.00  0.00     0.029 A 
ATOM     29  C   UNL d   1      30.514  18.093 -24.952  0.00  0.00     0.027 A 
ENDBRANCH   6  25
TORSDOF 3
ENDMDL
MODEL 3
REMARK VINA RESULT:      -0.3      1.018      4.803
REMARK  3 active torsions:
REMARK  status: ('A' for Active; 'I' for Inactive)
REMARK    1  A    between atoms: C_7  and  C_1 
REMARK    2  A    between atoms: C_12  and  C_6 
REMARK       I    between atoms: N_10  and  C_7 
REMARK    3  A    between atoms: C_13  and  N_10 
ROOT
ATOM      1  C   UNL d   1      33.026  20.480 -21.671  0.00  0.00     0.108 A 
ATOM      2  C   UNL d   1      32.973  19.487 -22.536  0.00  0.00     0.046 A 
ATOM      3  C   UNL d   1      32.915  20.301 -22.462  0.00  0.00     0.116 A 
ATOM      4  C   UNL d   1      33.119  19.184 -21.783  0.00  0.00     0.112 A 
ATOM      5  S   UNL d   1      33.149  19.816 -21.258  0.00  0.00    -0.061 SA
ATOM      6  C   UNL d   1      32.913  18.977 -23.179  0.00  0.00     0.028 A 
ATOM      7  N   UNL d   1      33.208  18.369 -21.668  0.00  0.00    -0.239 NA
ATOM      8  C   UNL d   1      33.000  18.162 -23.075  0.00  0.00     0.020 A 
ATOM      9  C   UNL d   1      33.147  17.858 -22.322  0.00  0.00     0.082 A 
ATOM     10  N   UNL d   1      32.770  20.847 -23.072  0.00  0.00    -0.147 N 
ATOM     11  C   UNL d   1      32.940  17.652 -23.718  0.00  0.00     0.002 A 
ATOM     12  C   UNL d   1      33.235  17.044 -22.207  0.00  0.00     0.019 A 
ATOM     13  C   UNL d   1      33.027  16.832 -23.616  0.00  0.00     0.000 A 
ATOM     14  C   UNL d   1      33.174  16.528 -22.863  0.00  0.00     0.002 A 
ENDROOT
BRANCH   1  15
ATOM     15  C   UNL d   1      33.017  21.230 -21.327  0.00  0.00     0.287 C 
ATOM     16  N   UNL d   1      32.802  21.335 -20.545  0.00  0.00    -0.208 NA
ATOM     17  O   UNL d   1      33.231  21.887 -21.789  0.00  0.00    -0.265 OA
BRANCH  16  18
ATOM     18  C   UNL d   1      32.797  22.086 -20.214  0.00  0.00     0.085 A 
ATOM     19  C   UNL d   1      32.990  22.191 -19.416  0.00  0.00     0.018 A 
ATOM     20  C   UNL d   1      33.189  21.598 -18.917  0.00  0.00     0.002 C 
ATOM     21  C   UNL d   1      32.980  22.962 -19.096  0.00  0.00     0.002 A 
ATOM     22  C   UNL d   1      32.780  23.620 -19.569  0.00  0.00     0.000 A 
ATOM     23  C   UNL d   1      32.591  23.492 -20.362  0.00  0.00     0.002 A 
ATOM     24  C   UNL d   1      32.598  22.734 -20.687  0.00  0.00     0.019 A 
ENDBRANCH  16  18
ENDBRANCH   1  15
BRANCH   6  25
ATOM     25  C   UNL d   1      32.767  19.279 -23.927  0.00  0.00     0.100 A 
ATOM     26  O   UNL d   1      33.239  19.768 -24.390  0.00  0.00    -0.305 OA
ATOM     27  C   UNL d   1      32.834  19.909 -25.097  0.00  0.00     0.123 A 
ATOM     28  C   UNL d   1      32.138  19.519 -25.072  0.00  0.00     0.029 A 
ATOM     29  C   UNL d   1      32.079  19.127 -24.361  0.00  0.00     0.027 A 
ENDBRANCH   6  25
TORSDOF 3
ENDMDL
