MODEL 1
REMARK VINA RESULT:      -8.6      0.000      0.000
REMARK  5 active torsions:
REMARK  status: ('A' for Active; 'I' for Inactive)
REMARK    1  A    between atoms: C_2  and  C_1 
REMARK    2  A    between atoms: O_16  and  C_13 
REMARK    3  A    between atoms: C_21  and  O_16 
REMARK    4  A    between atoms: O_22  and  C_17 
REMARK    5  A    between atoms: C_20  and  C_21 
ROOT
ATOM      1  C   UNL d   1     -47.516  12.060  23.182  0.00  0.00     0.030 A 
ATOM      2  C   UNL d   1     -47.095  12.756  23.044  0.00  0.00     0.027 A 
ATOM      3  C   UNL d   1     -46.273  12.760  23.124  0.00  0.00     0.103 A 
ATOM      4  O   UNL d   1     -45.872  12.073  23.341  0.00  0.00    -0.273 OA
ATOM      5  C   UNL d   1     -46.292  11.377  23.480  0.00  0.00     0.300 A 
ATOM      6  C   UNL d   1     -47.114  11.373  23.400  0.00  0.00     0.071 A 
ATOM      7  C   UNL d   1     -47.490  13.454  22.824  0.00  0.00     0.027 A 
ATOM      8  C   UNL d   1     -47.060  14.135  22.690  0.00  0.00     0.100 A 
ATOM      9  C   UNL d   1     -45.847  13.457  22.985  0.00  0.00     0.027 A 
ATOM     10  C   UNL d   1     -46.239  14.144  22.769  0.00  0.00     0.025 A 
ATOM     11  O   UNL d   1     -45.902  10.689  23.697  0.00  0.00    -0.259 OA
ATOM     12  C   UNL d   1     -45.818  14.830  22.632  0.00  0.00     0.002 C 
ENDROOT
BRANCH   1  13
ATOM     13  C   UNL d   1     -48.337  12.062  23.101  0.00  0.00     0.100 A 
ATOM     14  O   UNL d   1     -48.747  12.182  22.394  0.00  0.00    -0.305 OA
ATOM     15  C   UNL d   1     -49.553  12.141  22.555  0.00  0.00     0.122 A 
ATOM     16  C   UNL d   1     -50.217  12.216  22.078  0.00  0.00     0.117 A 
ATOM     17  C   UNL d   1     -49.644  11.995  23.362  0.00  0.00     0.027 A 
ATOM     18  C   UNL d   1     -50.967  12.147  22.396  0.00  0.00     0.026 A 
ATOM     19  C   UNL d   1     -51.064  12.002  23.202  0.00  0.00     0.002 A 
ATOM     20  C   UNL d   1     -50.400  11.925  23.686  0.00  0.00     0.002 A 
ATOM     21  C   UNL d   1     -48.894  11.947  23.698  0.00  0.00     0.027 A 
BRANCH  16  22
ATOM     22  O   UNL d   1     -50.127  12.360  21.280  0.00  0.00    -0.326 OA
ATOM     23  C   UNL d   1     -50.585  12.938  20.911  0.00  0.00     0.181 C 
ENDBRANCH  16  22
ENDBRANCH   1  13
BRANCH   8  24
ATOM     24  O   UNL d   1     -47.461  14.827  22.471  0.00  0.00    -0.302 OA
BRANCH  24  25
ATOM     25  C   UNL d   1     -48.043  15.138  22.966  0.00  0.00     0.165 C 
BRANCH  25  26
ATOM     26  C   UNL d   1     -48.676  15.555  22.648  0.00  0.00     0.220 C 
ATOM     27  O   UNL d   1     -48.658  15.785  21.856  0.00  0.00    -0.284 OA
ATOM     28  C   UNL d   1     -49.317  15.742  23.106  0.00  0.00     0.048 C 
ENDBRANCH  25  26
ENDBRANCH  24  25
ENDBRANCH   8  24
TORSDOF 5
ENDMDL
MODEL 2
REMARK VINA RESULT:      -7.8      1.145      3.035
REMARK  5 active torsions:
REMARK  status: ('A' for Active; 'I' for Inactive)
REMARK    1  A    between atoms: C_2  and  C_1 
REMARK    2  A    between atoms: O_16  and  C_13 
REMARK    3  A    between atoms: C_21  and  O_16 
REMARK    4  A    between atoms: O_22  and  C_17 
REMARK    5  A    between atoms: C_20  and  C_21 
ROOT
ATOM      1  C   UNL d   1     -47.495  14.038  22.889  0.00  0.00     0.030 A 
ATOM      2  C   UNL d   1     -47.407  13.243  23.091  0.00  0.00     0.027 A 
ATOM      3  C   UNL d   1     -46.652  12.910  23.125  0.00  0.00     0.103 A 
ATOM      4  O   UNL d   1     -45.987  13.368  22.958  0.00  0.00    -0.273 OA
ATOM      5  C   UNL d   1     -46.074  14.163  22.756  0.00  0.00     0.300 A 
ATOM      6  C   UNL d   1     -46.829  14.496  22.722  0.00  0.00     0.071 A 
ATOM      7  C   UNL d   1     -48.072  12.774  23.261  0.00  0.00     0.027 A 
ATOM      8  C   UNL d   1     -47.969  11.988  23.459  0.00  0.00     0.100 A 
ATOM      9  C   UNL d   1     -46.560  12.113  23.328  0.00  0.00     0.027 A 
ATOM     10  C   UNL d   1     -47.217  11.651  23.495  0.00  0.00     0.025 A 
ATOM     11  O   UNL d   1     -45.418  14.626  22.589  0.00  0.00    -0.259 OA
ATOM     12  C   UNL d   1     -47.125  10.865  23.694  0.00  0.00     0.002 C 
ENDROOT
BRANCH   1  13
ATOM     13  C   UNL d   1     -48.251  14.366  22.856  0.00  0.00     0.100 A 
ATOM     14  O   UNL d   1     -48.773  14.302  22.219  0.00  0.00    -0.305 OA
ATOM     15  C   UNL d   1     -49.464  14.705  22.412  0.00  0.00     0.122 A 
ATOM     16  C   UNL d   1     -50.165  14.830  22.002  0.00  0.00     0.117 A 
ATOM     17  C   UNL d   1     -49.372  15.020  23.169  0.00  0.00     0.027 A 
ATOM     18  C   UNL d   1     -50.771  15.263  22.338  0.00  0.00     0.026 A 
ATOM     19  C   UNL d   1     -50.685  15.580  23.095  0.00  0.00     0.002 A 
ATOM     20  C   UNL d   1     -49.982  15.457  23.511  0.00  0.00     0.002 A 
ATOM     21  C   UNL d   1     -48.625  14.810  23.442  0.00  0.00     0.027 A 
BRANCH  16  22
ATOM     22  O   UNL d   1     -50.255  14.519  21.254  0.00  0.00    -0.326 OA
ATOM     23  C   UNL d   1     -50.922  14.068  21.072  0.00  0.00     0.181 C 
ENDBRANCH  16  22
ENDBRANCH   1  13
BRANCH   8  24
ATOM     24  O   UNL d   1     -48.637  11.526  23.627  0.00  0.00    -0.302 OA
BRANCH  24  25
ATOM     25  C   UNL d   1     -49.389  11.865  23.600  0.00  0.00     0.165 C 
BRANCH  25  26
ATOM     26  C   UNL d   1     -50.057  11.393  23.665  0.00  0.00     0.220 C 
ATOM     27  O   UNL d   1     -49.978  10.572  23.698  0.00  0.00    -0.284 OA
ATOM     28  C   UNL d   1     -50.795  11.726  23.697  0.00  0.00     0.048 C 
ENDBRANCH  25  26
ENDBRANCH  24  25
ENDBRANCH   8  24
TORSDOF 5
ENDMDL
MODEL 3
REMARK VINA RESULT:      -5.8      1.247      2.846
REMARK  5 active torsions:
REMARK  status: ('A' for Active; 'I' for Inactive)
REMARK    1  A    between atoms: C_2  and  C_1 
REMARK    2  A    between atoms: O_16  and  C_13 
REMARK    3  A    between atoms: C_21  and  O_16 
REMARK    4  A    between atoms: O_22  and  C_17 
REMARK    5  A    between atoms: C_20  and  C_21 
ROOT
ATOM      1  C   UNL d   1     -49.055  12.340  23.293  0.00  0.00     0.030 A 
ATOM      2  C   UNL d   1     -48.274  12.081  23.351  0.00  0.00     0.027 A 
ATOM      3  C   UNL d   1     -48.117  11.288  23.525  0.00  0.00     0.103 A 
ATOM      4  O   UNL d   1     -48.737  10.757  23.641  0.00  0.00    -0.273 OA
ATOM      5  C   UNL d   1     -49.517  11.015  23.583  0.00  0.00     0.300 A 
ATOM      6  C   UNL d   1     -49.674  11.807  23.409  0.00  0.00     0.071 A 
ATOM      7  C   UNL d   1     -47.642  12.609  23.236  0.00  0.00     0.027 A 
ATOM      8  C   UNL d   1     -46.874  12.338  23.297  0.00  0.00     0.100 A 
ATOM      9  C   UNL d   1     -47.334  11.025  23.585  0.00  0.00     0.027 A 
ATOM     10  C   UNL d   1     -46.713  11.547  23.471  0.00  0.00     0.025 A 
ATOM     11  O   UNL d   1     -50.140  10.494  23.697  0.00  0.00    -0.259 OA
ATOM     12  C   UNL d   1     -45.942  11.286  23.529  0.00  0.00     0.002 C 
ENDROOT
BRANCH   1  13
ATOM     13  C   UNL d   1     -49.205  13.132  23.119  0.00  0.00     0.100 A 
ATOM     14  O   UNL d   1     -49.572  13.409  22.433  0.00  0.00    -0.305 OA
ATOM     15  C   UNL d   1     -49.614  14.230  22.478  0.00  0.00     0.122 A 
ATOM     16  C   UNL d   1     -49.916  14.798  21.967  0.00  0.00     0.117 A 
ATOM     17  C   UNL d   1     -49.274  14.463  23.192  0.00  0.00     0.027 A 
ATOM     18  C   UNL d   1     -49.881  15.591  22.161  0.00  0.00     0.026 A 
ATOM     19  C   UNL d   1     -49.542  15.830  22.874  0.00  0.00     0.002 A 
ATOM     20  C   UNL d   1     -49.237  15.263  23.391  0.00  0.00     0.002 A 
ATOM     21  C   UNL d   1     -49.022  13.786  23.587  0.00  0.00     0.027 A 
BRANCH  16  22
ATOM     22  O   UNL d   1     -50.253  14.567  21.261  0.00  0.00    -0.326 OA
ATOM     23  C   UNL d   1     -51.005  14.835  21.055  0.00  0.00     0.181 C 
ENDBRANCH  16  22
ENDBRANCH   1  13
BRANCH   8  24
ATOM     24  O   UNL d   1     -46.250  12.871  23.181  0.00  0.00    -0.302 OA
BRANCH  24  25
ATOM     25  C   UNL d   1     -46.173  13.263  22.459  0.00  0.00     0.165 C 
BRANCH  25  26
ATOM     26  C   UNL d   1     -45.597  13.841  22.362  0.00  0.00     0.220 C 
ATOM     27  O   UNL d   1     -45.756  14.618  22.588  0.00  0.00    -0.284 OA
ATOM     28  C   UNL d   1     -44.875  13.654  22.046  0.00  0.00     0.048 C 
ENDBRANCH  25  26
ENDBRANCH  24  25
ENDBRANCH   8  24
TORSDOF 5
ENDMDL
