MODEL 1
REMARK VINA RESULT:      -8.4      0.000      0.000
REMARK  5 active torsions:
REMARK  status: ('A' for Active; 'I' for Inactive)
REMARK    1  A    between atoms: S_10  and  C_6 
REMARK    2  A    between atoms: C_14  and  S_10 
REMARK    3  A    between atoms: C_12  and  C_14 
REMARK    4  A    between atoms: O_16  and  C_12 
REMARK    5  A    between atoms: C_18  and  O_16 
ROOT
ATOM      1  C   UNL d   1      52.524  34.205  53.721  0.00  0.00     0.117 A 
ATOM      2  C   UNL d   1      52.800  33.470  53.504  0.00  0.00     0.082 A 
ATOM      3  N   UNL d   1      51.833  34.515  53.354  0.00  0.00    -0.214 NA
ATOM      4  C   UNL d   1      52.413  33.023  52.931  0.00  0.00     0.283 A 
ATOM      5  N   UNL d   1      51.722  33.333  52.564  0.00  0.00    -0.183 NA
ATOM      6  C   UNL d   1      51.446  34.076  52.787  0.00  0.00     0.198 A 
ATOM      7  S   UNL d   1      53.031  34.534  54.319  0.00  0.00    -0.068 SA
ATOM      8  C   UNL d   1      53.469  33.318  53.945  0.00  0.00     0.013 A 
ATOM      9  C   UNL d   1      53.626  33.980  54.463  0.00  0.00     0.031 A 
ATOM     10  O   UNL d   1      52.704  32.265  52.712  0.00  0.00    -0.265 OA
ATOM     11  C   UNL d   1      53.978  32.671  53.966  0.00  0.00     0.001 A 
ATOM     12  C   UNL d   1      54.275  33.977  54.978  0.00  0.00     0.006 A 
ATOM     13  C   UNL d   1      54.628  32.667  54.481  0.00  0.00     0.000 A 
ATOM     14  C   UNL d   1      54.766  33.337  54.988  0.00  0.00     0.001 A 
ENDROOT
BRANCH   6  15
ATOM     15  S   UNL d   1      50.758  34.385  52.422  0.00  0.00    -0.042 SA
BRANCH  15  16
ATOM     16  C   UNL d   1      50.063  34.426  52.845  0.00  0.00     0.107 C 
BRANCH  16  17
ATOM     17  C   UNL d   1      49.396  34.830  52.514  0.00  0.00     0.307 C 
ATOM     18  O   UNL d   1      49.142  34.660  51.751  0.00  0.00    -0.258 OA
BRANCH  17  19
ATOM     19  O   UNL d   1      48.990  35.411  52.975  0.00  0.00    -0.271 OA
BRANCH  19  20
ATOM     20  C   UNL d   1      48.208  35.611  52.784  0.00  0.00     0.126 C 
ATOM     21  C   UNL d   1      47.797  36.172  53.226  0.00  0.00     0.029 C 
ENDBRANCH  19  20
ENDBRANCH  17  19
ENDBRANCH  16  17
ENDBRANCH  15  16
ENDBRANCH   6  15
TORSDOF 5
ENDMDL
MODEL 2
REMARK VINA RESULT:      -8.2      0.991      1.310
REMARK  5 active torsions:
REMARK  status: ('A' for Active; 'I' for Inactive)
REMARK    1  A    between atoms: S_10  and  C_6 
REMARK    2  A    between atoms: C_14  and  S_10 
REMARK    3  A    between atoms: C_12  and  C_14 
REMARK    4  A    between atoms: O_16  and  C_12 
REMARK    5  A    between atoms: C_18  and  O_16 
ROOT
ATOM      1  C   UNL d   1      52.414  33.415  53.436  0.00  0.00     0.117 A 
ATOM      2  C   UNL d   1      52.737  34.063  53.809  0.00  0.00     0.082 A 
ATOM      3  N   UNL d   1      51.741  33.512  52.939  0.00  0.00    -0.214 NA
ATOM      4  C   UNL d   1      52.416  34.814  53.709  0.00  0.00     0.283 A 
ATOM      5  N   UNL d   1      51.743  34.912  53.213  0.00  0.00    -0.183 NA
ATOM      6  C   UNL d   1      51.420  34.254  52.837  0.00  0.00     0.198 A 
ATOM      7  S   UNL d   1      52.857  32.719  53.640  0.00  0.00    -0.068 SA
ATOM      8  C   UNL d   1      53.374  33.802  54.246  0.00  0.00     0.013 A 
ATOM      9  C   UNL d   1      53.461  32.958  54.149  0.00  0.00     0.031 A 
ATOM     10  O   UNL d   1      52.754  35.479  54.097  0.00  0.00    -0.265 OA
ATOM     11  C   UNL d   1      53.906  34.202  54.732  0.00  0.00     0.001 A 
ATOM     12  C   UNL d   1      54.067  32.543  54.533  0.00  0.00     0.006 A 
ATOM     13  C   UNL d   1      54.513  33.787  55.116  0.00  0.00     0.000 A 
ATOM     14  C   UNL d   1      54.582  32.945  55.005  0.00  0.00     0.001 A 
ENDROOT
BRANCH   6  15
ATOM     15  S   UNL d   1      50.750  34.351  52.343  0.00  0.00    -0.042 SA
BRANCH  15  16
ATOM     16  C   UNL d   1      50.019  34.480  52.678  0.00  0.00     0.107 C 
BRANCH  16  17
ATOM     17  C   UNL d   1      49.368  34.710  52.186  0.00  0.00     0.307 C 
ATOM     18  O   UNL d   1      49.308  34.430  51.416  0.00  0.00    -0.258 OA
BRANCH  17  19
ATOM     19  O   UNL d   1      48.778  35.232  52.493  0.00  0.00    -0.271 OA
BRANCH  19  20
ATOM     20  C   UNL d   1      48.097  35.386  52.047  0.00  0.00     0.126 C 
ATOM     21  C   UNL d   1      47.574  35.983  52.268  0.00  0.00     0.029 C 
ENDBRANCH  19  20
ENDBRANCH  17  19
ENDBRANCH  16  17
ENDBRANCH  15  16
ENDBRANCH   6  15
TORSDOF 5
ENDMDL
MODEL 3
REMARK VINA RESULT:      -7.8      2.364      4.432
REMARK  5 active torsions:
REMARK  status: ('A' for Active; 'I' for Inactive)
REMARK    1  A    between atoms: S_10  and  C_6 
REMARK    2  A    between atoms: C_14  and  S_10 
REMARK    3  A    between atoms: C_12  and  C_14 
REMARK    4  A    between atoms: O_16  and  C_12 
REMARK    5  A    between atoms: C_18  and  O_16 
ROOT
ATOM      1  C   UNL d   1      53.335  32.905  53.937  0.00  0.00     0.117 A 
ATOM      2  C   UNL d   1      52.832  33.356  53.481  0.00  0.00     0.082 A 
ATOM      3  N   UNL d   1      53.410  32.081  53.783  0.00  0.00    -0.214 NA
ATOM      4  C   UNL d   1      52.395  33.018  52.870  0.00  0.00     0.283 A 
ATOM      5  N   UNL d   1      52.470  32.194  52.717  0.00  0.00    -0.183 NA
ATOM      6  C   UNL d   1      52.979  31.742  53.180  0.00  0.00     0.198 A 
ATOM      7  S   UNL d   1      53.709  33.398  54.519  0.00  0.00    -0.068 SA
ATOM      8  C   UNL d   1      52.874  34.123  53.754  0.00  0.00     0.013 A 
ATOM      9  C   UNL d   1      53.422  34.164  54.408  0.00  0.00     0.031 A 
ATOM     10  O   UNL d   1      51.878  33.489  52.404  0.00  0.00    -0.265 OA
ATOM     11  C   UNL d   1      52.494  34.813  53.512  0.00  0.00     0.001 A 
ATOM     12  C   UNL d   1      53.574  34.881  54.796  0.00  0.00     0.006 A 
ATOM     13  C   UNL d   1      52.646  35.530  53.900  0.00  0.00     0.000 A 
ATOM     14  C   UNL d   1      53.196  35.549  54.549  0.00  0.00     0.001 A 
ENDROOT
BRANCH   6  15
ATOM     15  S   UNL d   1      53.054  30.922  53.027  0.00  0.00    -0.042 SA
BRANCH  15  16
ATOM     16  C   UNL d   1      52.663  30.387  53.501  0.00  0.00     0.107 C 
BRANCH  16  17
ATOM     17  C   UNL d   1      52.902  29.574  53.500  0.00  0.00     0.307 C 
ATOM     18  O   UNL d   1      52.648  29.066  52.906  0.00  0.00    -0.258 OA
BRANCH  17  19
ATOM     19  O   UNL d   1      53.407  29.287  54.115  0.00  0.00    -0.271 OA
BRANCH  19  20
ATOM     20  C   UNL d   1      53.170  28.633  54.565  0.00  0.00     0.126 C 
ATOM     21  C   UNL d   1      53.524  28.471  55.291  0.00  0.00     0.029 C 
ENDBRANCH  19  20
ENDBRANCH  17  19
ENDBRANCH  16  17
ENDBRANCH  15  16
ENDBRANCH   6  15
TORSDOF 5
ENDMDL
MODEL 4
REMARK VINA RESULT:      -6.1      2.475      3.170
REMARK  5 active torsions:
REMARK  status: ('A' for Active; 'I' for Inactive)
REMARK    1  A    between atoms: S_10  and  C_6 
REMARK    2  A    between atoms: C_14  and  S_10 
REMARK    3  A    between atoms: C_12  and  C_14 
REMARK    4  A    between atoms: O_16  and  C_12 
REMARK    5  A    between atoms: C_18  and  O_16 
ROOT
ATOM      1  C   UNL d   1      52.805  31.084  53.118  0.00  0.00     0.117 A 
ATOM      2  C   UNL d   1      53.213  31.066  53.823  0.00  0.00     0.082 A 
ATOM      3  N   UNL d   1      52.619  31.824  52.763  0.00  0.00    -0.214 NA
ATOM      4  C   UNL d   1      53.447  31.762  54.196  0.00  0.00     0.283 A 
ATOM      5  N   UNL d   1      53.262  32.502  53.841  0.00  0.00    -0.183 NA
ATOM      6  C   UNL d   1      52.850  32.515  53.128  0.00  0.00     0.198 A 
ATOM      7  S   UNL d   1      52.637  30.289  52.867  0.00  0.00    -0.068 SA
ATOM      8  C   UNL d   1      53.311  30.284  54.030  0.00  0.00     0.013 A 
ATOM      9  C   UNL d   1      52.954  29.783  53.437  0.00  0.00     0.031 A 
ATOM     10  O   UNL d   1      53.868  31.736  54.923  0.00  0.00    -0.265 OA
ATOM     11  C   UNL d   1      53.677  29.929  54.678  0.00  0.00     0.001 A 
ATOM     12  C   UNL d   1      52.971  28.958  53.505  0.00  0.00     0.006 A 
ATOM     13  C   UNL d   1      53.694  29.103  54.747  0.00  0.00     0.000 A 
ATOM     14  C   UNL d   1      53.331  28.623  54.144  0.00  0.00     0.001 A 
ENDROOT
BRANCH   6  15
ATOM     15  S   UNL d   1      52.665  33.252  52.774  0.00  0.00    -0.042 SA
BRANCH  15  16
ATOM     16  C   UNL d   1      51.969  33.628  52.967  0.00  0.00     0.107 C 
BRANCH  16  17
ATOM     17  C   UNL d   1      51.709  34.289  52.507  0.00  0.00     0.307 C 
ATOM     18  O   UNL d   1      52.208  34.929  52.377  0.00  0.00    -0.258 OA
BRANCH  17  19
ATOM     19  O   UNL d   1      50.929  34.289  52.179  0.00  0.00    -0.271 OA
BRANCH  19  20
ATOM     20  C   UNL d   1      50.296  34.579  52.630  0.00  0.00     0.126 C 
ATOM     21  C   UNL d   1      49.542  34.641  52.305  0.00  0.00     0.029 C 
ENDBRANCH  19  20
ENDBRANCH  17  19
ENDBRANCH  16  17
ENDBRANCH  15  16
ENDBRANCH   6  15
TORSDOF 5
ENDMDL
MODEL 5
REMARK VINA RESULT:      -5.9      1.820      5.466
REMARK  5 active torsions:
REMARK  status: ('A' for Active; 'I' for Inactive)
REMARK    1  A    between atoms: S_10  and  C_6 
REMARK    2  A    between atoms: C_14  and  S_10 
REMARK    3  A    between atoms: C_12  and  C_14 
REMARK    4  A    between atoms: O_16  and  C_12 
REMARK    5  A    between atoms: C_18  and  O_16 
ROOT
ATOM      1  C   UNL d   1      48.750  35.463  52.901  0.00  0.00     0.117 A 
ATOM      2  C   UNL d   1      48.419  35.242  52.189  0.00  0.00     0.082 A 
ATOM      3  N   UNL d   1      49.514  35.177  53.111  0.00  0.00    -0.214 NA
ATOM      4  C   UNL d   1      48.821  34.744  51.671  0.00  0.00     0.283 A 
ATOM      5  N   UNL d   1      49.584  34.459  51.881  0.00  0.00    -0.183 NA
ATOM      6  C   UNL d   1      49.914  34.684  52.601  0.00  0.00     0.198 A 
ATOM      7  S   UNL d   1      48.214  35.975  53.316  0.00  0.00    -0.068 SA
ATOM      8  C   UNL d   1      47.688  35.598  52.138  0.00  0.00     0.013 A 
ATOM      9  C   UNL d   1      47.545  36.063  52.840  0.00  0.00     0.031 A 
ATOM     10  O   UNL d   1      48.474  34.521  50.938  0.00  0.00    -0.265 OA
ATOM     11  C   UNL d   1      47.108  35.579  51.552  0.00  0.00     0.001 A 
ATOM     12  C   UNL d   1      46.840  36.487  52.938  0.00  0.00     0.006 A 
ATOM     13  C   UNL d   1      46.403  36.004  51.650  0.00  0.00     0.000 A 
ATOM     14  C   UNL d   1      46.281  36.460  52.358  0.00  0.00     0.001 A 
ENDROOT
BRANCH   6  15
ATOM     15  S   UNL d   1      50.675  34.401  52.811  0.00  0.00    -0.042 SA
BRANCH  15  16
ATOM     16  C   UNL d   1      50.760  33.633  53.069  0.00  0.00     0.107 C 
BRANCH  16  17
ATOM     17  C   UNL d   1      51.531  33.340  53.262  0.00  0.00     0.307 C 
ATOM     18  O   UNL d   1      52.049  33.793  53.711  0.00  0.00    -0.258 OA
BRANCH  17  19
ATOM     19  O   UNL d   1      51.767  32.576  52.988  0.00  0.00    -0.271 OA
BRANCH  19  20
ATOM     20  C   UNL d   1      52.507  32.273  53.208  0.00  0.00     0.126 C 
ATOM     21  C   UNL d   1      52.748  31.527  52.956  0.00  0.00     0.029 C 
ENDBRANCH  19  20
ENDBRANCH  17  19
ENDBRANCH  16  17
ENDBRANCH  15  16
ENDBRANCH   6  15
TORSDOF 5
ENDMDL
MODEL 6
REMARK VINA RESULT:      -5.6      1.170      5.226
REMARK  5 active torsions:
REMARK  status: ('A' for Active; 'I' for Inactive)
REMARK    1  A    between atoms: S_10  and  C_6 
REMARK    2  A    between atoms: C_14  and  S_10 
REMARK    3  A    between atoms: C_12  and  C_14 
REMARK    4  A    between atoms: O_16  and  C_12 
REMARK    5  A    between atoms: C_18  and  O_16 
ROOT
ATOM      1  C   UNL d   1      49.541  34.480  51.726  0.00  0.00     0.117 A 
ATOM      2  C   UNL d   1      49.260  34.932  52.343  0.00  0.00     0.082 A 
ATOM      3  N   UNL d   1      50.294  34.110  51.789  0.00  0.00    -0.214 NA
ATOM      4  C   UNL d   1      49.702  35.032  53.030  0.00  0.00     0.283 A 
ATOM      5  N   UNL d   1      50.456  34.662  53.094  0.00  0.00    -0.183 NA
ATOM      6  C   UNL d   1      50.735  34.207  52.467  0.00  0.00     0.198 A 
ATOM      7  S   UNL d   1      48.970  34.476  51.095  0.00  0.00    -0.068 SA
ATOM      8  C   UNL d   1      48.528  35.216  52.126  0.00  0.00     0.013 A 
ATOM      9  C   UNL d   1      48.332  34.937  51.343  0.00  0.00     0.031 A 
ATOM     10  O   UNL d   1      49.407  35.499  53.664  0.00  0.00    -0.265 OA
ATOM     11  C   UNL d   1      47.987  35.697  52.521  0.00  0.00     0.001 A 
ATOM     12  C   UNL d   1      47.615  35.142  50.981  0.00  0.00     0.006 A 
ATOM     13  C   UNL d   1      47.270  35.902  52.159  0.00  0.00     0.000 A 
ATOM     14  C   UNL d   1      47.095  35.613  51.377  0.00  0.00     0.001 A 
ENDROOT
BRANCH   6  15
ATOM     15  S   UNL d   1      51.485  33.838  52.530  0.00  0.00    -0.042 SA
BRANCH  15  16
ATOM     16  C   UNL d   1      51.632  33.330  53.149  0.00  0.00     0.107 C 
BRANCH  16  17
ATOM     17  C   UNL d   1      52.376  32.928  53.192  0.00  0.00     0.307 C 
ATOM     18  O   UNL d   1      52.608  32.413  52.595  0.00  0.00    -0.258 OA
BRANCH  17  19
ATOM     19  O   UNL d   1      52.883  33.059  53.857  0.00  0.00    -0.271 OA
BRANCH  19  20
ATOM     20  C   UNL d   1      53.519  32.545  53.994  0.00  0.00     0.126 C 
ATOM     21  C   UNL d   1      53.999  32.637  54.656  0.00  0.00     0.029 C 
ENDBRANCH  19  20
ENDBRANCH  17  19
ENDBRANCH  16  17
ENDBRANCH  15  16
ENDBRANCH   6  15
TORSDOF 5
ENDMDL
