MODEL 1
REMARK VINA RESULT:      50.1      0.000      0.000
REMARK  5 active torsions:
REMARK  status: ('A' for Active; 'I' for Inactive)
REMARK    1  A    between atoms: C_2  and  N_1 
REMARK    2  A    between atoms: C_4  and  C_7 
REMARK    3  A    between atoms: N_17  and  C_10 
REMARK    4  A    between atoms: C_20  and  N_17 
REMARK    5  A    between atoms: C_21  and  C_20 
ROOT
ATOM      1  C   UNL d   1     -58.590 -98.893 -45.265  0.00  0.00     0.144 A 
ATOM      2  C   UNL d   1     -57.970 -98.898 -44.712  0.00  0.00     0.027 A 
ATOM      3  C   UNL d   1     -57.181 -98.832 -44.973  0.00  0.00     0.021 A 
ATOM      4  C   UNL d   1     -58.426 -98.823 -46.068  0.00  0.00     0.103 A 
ATOM      5  C   UNL d   1     -57.021 -98.762 -45.785  0.00  0.00     0.003 A 
ATOM      6  C   UNL d   1     -57.646 -98.757 -46.327  0.00  0.00     0.021 A 
ENDROOT
BRANCH   3   7
ATOM      7  C   UNL d   1     -56.565 -98.837 -44.429  0.00  0.00     0.103 A 
ATOM      8  N   UNL d   1     -56.728 -98.825 -43.618  0.00  0.00    -0.145 NA
ATOM      9  N   UNL d   1     -56.112 -98.830 -43.072  0.00  0.00    -0.106 NA
ATOM     10  C   UNL d   1     -55.329 -98.846 -43.334  0.00  0.00     0.297 A 
ATOM     11  C   UNL d   1     -55.165 -98.858 -44.145  0.00  0.00     0.066 A 
ATOM     12  O   UNL d   1     -54.712 -98.851 -42.790  0.00  0.00    -0.264 OA
ATOM     13  C   UNL d   1     -55.785 -98.854 -44.698  0.00  0.00     0.024 A 
ATOM     14  C   UNL d   1     -55.619 -98.865 -45.504  0.00  0.00     0.002 C 
ENDBRANCH   3   7
BRANCH   1  15
ATOM     15  N   UNL d   1     -59.372 -98.959 -44.997  0.00  0.00    -0.112 N 
ATOM     16  O   UNL d   1     -59.958 -99.227 -45.520  0.00  0.00    -0.532 OA
ATOM     17  O   UNL d   1     -59.568 -98.762 -44.222  0.00  0.00    -0.532 OA
ENDBRANCH   1  15
BRANCH   4  18
ATOM     18  N   UNL d   1     -59.043 -98.818 -46.614  0.00  0.00    -0.239 NA
BRANCH  18  19
ATOM     19  C   UNL d   1     -59.337 -99.532 -46.913  0.00  0.00     0.144 C 
BRANCH  19  20
ATOM     20  C   UNL d   1     -59.245 -99.720 -47.710  0.00  0.00     0.255 C 
ATOM     21  O   UNL d   1     -59.868 -99.620 -48.239  0.00  0.00    -0.281 OA
ENDBRANCH  19  20
ENDBRANCH  18  19
ENDBRANCH   4  18
TORSDOF 5
ENDMDL
