MODEL 1
REMARK VINA RESULT:      -4.3      0.000      0.000
REMARK  8 active torsions:
REMARK  status: ('A' for Active; 'I' for Inactive)
REMARK    1  A    between atoms: C_5  and  C_1 
REMARK    2  A    between atoms: N_6  and  C_2 
REMARK    3  A    between atoms: C_7  and  C_5 
REMARK    4  A    between atoms: C_8  and  C_5 
REMARK    5  A    between atoms: O_13  and  C_7 
REMARK    6  A    between atoms: C_12  and  C_16 
REMARK    7  A    between atoms: C_22  and  O_13 
REMARK    8  A    between atoms: C_25  and  C_22 
ROOT
ATOM      1  C   UNL d   1     -43.199  12.621  21.677  0.00  0.00     0.296 C 
ATOM      2  O   UNL d   1     -43.077  11.812  21.804  0.00  0.00    -0.259 OA
ATOM      3  O   UNL d   1     -43.958  12.936  21.744  0.00  0.00    -0.296 OA
ATOM      4  C   UNL d   1     -44.717  13.250  21.812  0.00  0.00     0.185 C 
ENDROOT
BRANCH   1   5
ATOM      5  C   UNL d   1     -42.561  13.107  21.484  0.00  0.00     0.065 A 
ATOM      6  C   UNL d   1     -41.866  13.672  21.529  0.00  0.00     0.018 A 
ATOM      7  C   UNL d   1     -41.696  13.672  20.508  0.00  0.00     0.057 A 
ATOM      8  N   UNL d   1     -41.243  13.987  20.134  0.00  0.00    -0.192 NA
ATOM      9  C   UNL d   1     -41.879  13.465  20.058  0.00  0.00     0.057 A 
ATOM     10  C   UNL d   1     -42.087  13.443  21.142  0.00  0.00     0.018 A 
BRANCH   8  11
ATOM     11  C   UNL d   1     -40.777  14.279  19.518  0.00  0.00     0.145 A 
ATOM     12  C   UNL d   1     -40.184  14.743  19.845  0.00  0.00     0.117 A 
ATOM     13  N   UNL d   1     -39.631  15.110  19.353  0.00  0.00    -0.241 NA
ATOM     14  C   UNL d   1     -39.671  15.013  18.543  0.00  0.00     0.099 A 
ATOM     15  C   UNL d   1     -40.268  14.544  18.206  0.00  0.00     0.100 A 
ATOM     16  C   UNL d   1     -39.124  15.375  18.053  0.00  0.00     0.021 A 
ATOM     17  C   UNL d   1     -40.311  14.445  17.386  0.00  0.00     0.021 A 
ATOM     18  N   UNL d   1     -40.822  14.177  18.698  0.00  0.00    -0.230 NA
ATOM     19  C   UNL d   1     -39.759  14.812  16.907  0.00  0.00     0.002 A 
ATOM     20  C   UNL d   1     -39.160  15.281  17.234  0.00  0.00     0.002 A 
BRANCH  12  21
ATOM     21  C   UNL d   1     -40.280  14.740  20.665  0.00  0.00     0.104 C 
BRANCH  21  22
ATOM     22  C   UNL d   1     -39.758  14.398  21.217  0.00  0.00     0.303 C 
ATOM     23  O   UNL d   1     -39.498  13.624  21.111  0.00  0.00    -0.259 OA
BRANCH  22  24
ATOM     24  O   UNL d   1     -39.503  14.837  21.868  0.00  0.00    -0.271 OA
BRANCH  24  25
ATOM     25  C   UNL d   1     -38.825  14.614  22.278  0.00  0.00     0.126 C 
BRANCH  25  26
ATOM     26  C   UNL d   1     -38.591  15.030  22.948  0.00  0.00     0.025 C 
ATOM     27  C   UNL d   1     -38.187  15.739  22.870  0.00  0.00     0.002 C 
ATOM     28  C   UNL d   1     -38.763  14.732  23.698  0.00  0.00     0.002 C 
ENDBRANCH  25  26
ENDBRANCH  24  25
ENDBRANCH  22  24
ENDBRANCH  21  22
BRANCH  21  29
ATOM     29  C   UNL d   1     -40.979  15.132  20.844  0.00  0.00     0.129 C 
ATOM     30  N   UNL d   1     -41.053  15.922  21.087  0.00  0.00    -0.146 N 
ENDBRANCH  21  29
ENDBRANCH  12  21
ENDBRANCH   8  11
ENDBRANCH   1   5
TORSDOF 8
ENDMDL
MODEL 2
REMARK VINA RESULT:      -1.7      2.565      4.915
REMARK  8 active torsions:
REMARK  status: ('A' for Active; 'I' for Inactive)
REMARK    1  A    between atoms: C_5  and  C_1 
REMARK    2  A    between atoms: N_6  and  C_2 
REMARK    3  A    between atoms: C_7  and  C_5 
REMARK    4  A    between atoms: C_8  and  C_5 
REMARK    5  A    between atoms: O_13  and  C_7 
REMARK    6  A    between atoms: C_12  and  C_16 
REMARK    7  A    between atoms: C_22  and  O_13 
REMARK    8  A    between atoms: C_25  and  C_22 
ROOT
ATOM      1  C   UNL d   1     -38.059  12.072  17.210  0.00  0.00     0.296 C 
ATOM      2  O   UNL d   1     -38.026  12.020  16.384  0.00  0.00    -0.259 OA
ATOM      3  O   UNL d   1     -38.002  11.387  17.666  0.00  0.00    -0.296 OA
ATOM      4  C   UNL d   1     -37.945  10.702  18.122  0.00  0.00     0.185 C 
ENDROOT
BRANCH   1   5
ATOM      5  C   UNL d   1     -38.150  12.807  17.572  0.00  0.00     0.065 A 
ATOM      6  C   UNL d   1     -38.177  13.689  17.733  0.00  0.00     0.018 A 
ATOM      7  C   UNL d   1     -38.477  13.583  18.718  0.00  0.00     0.057 A 
ATOM      8  N   UNL d   1     -38.609  14.032  19.192  0.00  0.00    -0.192 NA
ATOM      9  C   UNL d   1     -38.595  13.214  19.077  0.00  0.00     0.057 A 
ATOM     10  C   UNL d   1     -38.274  13.293  18.024  0.00  0.00     0.018 A 
BRANCH   8  11
ATOM     11  C   UNL d   1     -38.810  14.422  19.892  0.00  0.00     0.145 A 
ATOM     12  C   UNL d   1     -39.326  15.032  19.705  0.00  0.00     0.117 A 
ATOM     13  N   UNL d   1     -39.621  15.519  20.303  0.00  0.00    -0.241 NA
ATOM     14  C   UNL d   1     -39.402  15.396  21.081  0.00  0.00     0.099 A 
ATOM     15  C   UNL d   1     -38.881  14.780  21.276  0.00  0.00     0.100 A 
ATOM     16  C   UNL d   1     -39.693  15.877  21.675  0.00  0.00     0.021 A 
ATOM     17  C   UNL d   1     -38.658  14.654  22.063  0.00  0.00     0.021 A 
ATOM     18  N   UNL d   1     -38.585  14.293  20.678  0.00  0.00    -0.230 NA
ATOM     19  C   UNL d   1     -38.955  15.142  22.649  0.00  0.00     0.002 A 
ATOM     20  C   UNL d   1     -39.475  15.758  22.462  0.00  0.00     0.002 A 
BRANCH  12  21
ATOM     21  C   UNL d   1     -39.446  15.023  18.887  0.00  0.00     0.104 C 
BRANCH  21  22
ATOM     22  C   UNL d   1     -40.167  14.864  18.502  0.00  0.00     0.303 C 
ATOM     23  O   UNL d   1     -40.595  14.187  18.695  0.00  0.00    -0.259 OA
BRANCH  22  24
ATOM     24  O   UNL d   1     -40.449  15.385  17.927  0.00  0.00    -0.271 OA
BRANCH  24  25
ATOM     25  C   UNL d   1     -40.934  15.110  17.321  0.00  0.00     0.126 C 
BRANCH  25  26
ATOM     26  C   UNL d   1     -41.225  15.632  16.755  0.00  0.00     0.025 C 
ATOM     27  C   UNL d   1     -41.990  15.922  16.818  0.00  0.00     0.002 C 
ATOM     28  C   UNL d   1     -40.746  15.861  16.124  0.00  0.00     0.002 C 
ENDBRANCH  25  26
ENDBRANCH  24  25
ENDBRANCH  22  24
ENDBRANCH  21  22
BRANCH  21  29
ATOM     29  C   UNL d   1     -38.733  15.198  18.520  0.00  0.00     0.129 C 
ATOM     30  N   UNL d   1     -38.525  15.919  18.166  0.00  0.00    -0.146 N 
ENDBRANCH  21  29
ENDBRANCH  12  21
ENDBRANCH   8  11
ENDBRANCH   1   5
TORSDOF 8
ENDMDL
