MODEL 1
REMARK VINA RESULT:      -8.9      0.000      0.000
REMARK  5 active torsions:
REMARK  status: ('A' for Active; 'I' for Inactive)
REMARK    1  A    between atoms: C_7  and  C_1 
REMARK    2  A    between atoms: C_6  and  O_13 
REMARK    3  A    between atoms: C_12  and  C_6 
REMARK    4  A    between atoms: O_13  and  C_10 
REMARK    5  A    between atoms: C_28  and  C_14 
ROOT
ATOM      1  C   UNL d   1      50.395  34.387  52.409  0.00  0.00     0.064 A 
ATOM      2  C   UNL d   1      49.200  35.115  52.681  0.00  0.00     0.062 A 
ATOM      3  C   UNL d   1      49.948  34.859  52.915  0.00  0.00     0.199 A 
ATOM      4  C   UNL d   1      50.096  34.171  51.672  0.00  0.00     0.126 A 
ATOM      5  C   UNL d   1      48.901  34.899  51.944  0.00  0.00     0.105 A 
ATOM      6  O   UNL d   1      49.349  34.427  51.439  0.00  0.00    -0.305 OA
ATOM      7  C   UNL d   1      48.753  35.587  53.186  0.00  0.00     0.007 A 
ATOM      8  C   UNL d   1      47.703  35.629  52.217  0.00  0.00     0.105 A 
ATOM      9  C   UNL d   1      48.155  35.155  51.711  0.00  0.00     0.050 A 
ATOM     10  C   UNL d   1      48.002  35.845  52.954  0.00  0.00     0.023 A 
ATOM     11  O   UNL d   1      50.247  35.074  53.652  0.00  0.00    -0.286 OA
ENDROOT
BRANCH   1  12
ATOM     12  C   UNL d   1      51.142  34.131  52.643  0.00  0.00     0.007 A 
ATOM     13  C   UNL d   1      51.279  33.323  52.802  0.00  0.00     0.027 A 
ATOM     14  C   UNL d   1      52.018  33.066  53.033  0.00  0.00     0.123 A 
ATOM     15  O   UNL d   1      52.147  32.268  53.189  0.00  0.00    -0.301 OA
ATOM     16  C   UNL d   1      52.647  33.612  53.113  0.00  0.00     0.123 A 
ATOM     17  C   UNL d   1      52.897  32.008  53.424  0.00  0.00     0.149 A 
ATOM     18  C   UNL d   1      53.519  32.544  53.503  0.00  0.00     0.149 A 
ATOM     19  O   UNL d   1      53.391  33.353  53.346  0.00  0.00    -0.301 OA
ATOM     20  C   UNL d   1      52.510  34.420  52.953  0.00  0.00     0.027 A 
ATOM     21  C   UNL d   1      51.763  34.675  52.720  0.00  0.00     0.002 A 
ENDBRANCH   1  12
BRANCH  10  22
ATOM     22  C   UNL d   1      47.548  36.321  53.461  0.00  0.00     0.002 C 
ATOM     23  C   UNL d   1      47.905  36.709  54.092  0.00  0.00     0.000 C 
ENDBRANCH  10  22
BRANCH   8  24
ATOM     24  O   UNL d   1      46.949  35.890  51.985  0.00  0.00    -0.271 OA
BRANCH  24  25
ATOM     25  C   UNL d   1      46.527  35.474  51.410  0.00  0.00     0.323 C 
ATOM     26  O   UNL d   1      46.920  35.050  50.829  0.00  0.00    -0.257 OA
BRANCH  25  27
ATOM     27  C   UNL d   1      45.699  35.486  51.420  0.00  0.00     0.163 A 
ATOM     28  O   UNL d   1      45.208  34.930  51.775  0.00  0.00    -0.300 OA
ATOM     29  C   UNL d   1      44.423  35.152  51.653  0.00  0.00     0.123 A 
ATOM     30  C   UNL d   1      44.431  35.857  51.215  0.00  0.00     0.029 A 
ATOM     31  C   UNL d   1      45.224  36.060  51.073  0.00  0.00     0.032 A 
ENDBRANCH  25  27
ENDBRANCH  24  25
ENDBRANCH   8  24
TORSDOF 5
ENDMDL
MODEL 2
REMARK VINA RESULT:      -7.9      1.540      6.159
REMARK  5 active torsions:
REMARK  status: ('A' for Active; 'I' for Inactive)
REMARK    1  A    between atoms: C_7  and  C_1 
REMARK    2  A    between atoms: C_6  and  O_13 
REMARK    3  A    between atoms: C_12  and  C_6 
REMARK    4  A    between atoms: O_13  and  C_10 
REMARK    5  A    between atoms: C_28  and  C_14 
ROOT
ATOM      1  C   UNL d   1      50.089  34.114  52.807  0.00  0.00     0.064 A 
ATOM      2  C   UNL d   1      51.436  33.823  53.169  0.00  0.00     0.062 A 
ATOM      3  C   UNL d   1      50.839  34.373  53.026  0.00  0.00     0.199 A 
ATOM      4  C   UNL d   1      49.935  33.309  52.730  0.00  0.00     0.126 A 
ATOM      5  C   UNL d   1      51.282  33.017  53.092  0.00  0.00     0.105 A 
ATOM      6  O   UNL d   1      50.531  32.759  52.873  0.00  0.00    -0.305 OA
ATOM      7  C   UNL d   1      52.186  34.081  53.388  0.00  0.00     0.007 A 
ATOM      8  C   UNL d   1      52.633  32.724  53.454  0.00  0.00     0.105 A 
ATOM      9  C   UNL d   1      51.878  32.467  53.234  0.00  0.00     0.050 A 
ATOM     10  C   UNL d   1      52.787  33.530  53.531  0.00  0.00     0.023 A 
ATOM     11  O   UNL d   1      50.993  35.179  53.103  0.00  0.00    -0.286 OA
ENDROOT
BRANCH   1  12
ATOM     12  C   UNL d   1      49.492  34.664  52.665  0.00  0.00     0.007 A 
ATOM     13  C   UNL d   1      49.122  35.057  53.301  0.00  0.00     0.027 A 
ATOM     14  C   UNL d   1      48.531  35.602  53.164  0.00  0.00     0.123 A 
ATOM     15  O   UNL d   1      48.169  35.986  53.796  0.00  0.00    -0.301 OA
ATOM     16  C   UNL d   1      48.290  35.772  52.381  0.00  0.00     0.123 A 
ATOM     17  C   UNL d   1      47.569  36.539  53.655  0.00  0.00     0.149 A 
ATOM     18  C   UNL d   1      47.330  36.709  52.884  0.00  0.00     0.149 A 
ATOM     19  O   UNL d   1      47.694  36.321  52.242  0.00  0.00    -0.301 OA
ATOM     20  C   UNL d   1      48.660  35.379  51.744  0.00  0.00     0.027 A 
ATOM     21  C   UNL d   1      49.257  34.830  51.887  0.00  0.00     0.002 A 
ENDBRANCH   1  12
BRANCH  10  22
ATOM     22  C   UNL d   1      53.546  33.787  53.753  0.00  0.00     0.002 C 
ATOM     23  C   UNL d   1      53.635  34.343  54.352  0.00  0.00     0.000 C 
ENDBRANCH  10  22
BRANCH   8  24
ATOM     24  O   UNL d   1      53.238  32.173  53.599  0.00  0.00    -0.271 OA
BRANCH  24  25
ATOM     25  C   UNL d   1      53.261  31.464  53.177  0.00  0.00     0.323 C 
ATOM     26  O   UNL d   1      53.188  31.462  52.360  0.00  0.00    -0.257 OA
BRANCH  25  27
ATOM     27  C   UNL d   1      53.358  30.748  53.581  0.00  0.00     0.163 A 
ATOM     28  O   UNL d   1      53.690  30.651  54.327  0.00  0.00    -0.300 OA
ATOM     29  C   UNL d   1      53.679  29.848  54.520  0.00  0.00     0.123 A 
ATOM     30  C   UNL d   1      53.334  29.445  53.881  0.00  0.00     0.029 A 
ATOM     31  C   UNL d   1      53.136  30.007  53.302  0.00  0.00     0.032 A 
ENDBRANCH  25  27
ENDBRANCH  24  25
ENDBRANCH   8  24
TORSDOF 5
ENDMDL
MODEL 3
REMARK VINA RESULT:      -7.8      1.261      2.039
REMARK  5 active torsions:
REMARK  status: ('A' for Active; 'I' for Inactive)
REMARK    1  A    between atoms: C_7  and  C_1 
REMARK    2  A    between atoms: C_6  and  O_13 
REMARK    3  A    between atoms: C_12  and  C_6 
REMARK    4  A    between atoms: O_13  and  C_10 
REMARK    5  A    between atoms: C_28  and  C_14 
ROOT
ATOM      1  C   UNL d   1      51.422  34.086  53.220  0.00  0.00     0.064 A 
ATOM      2  C   UNL d   1      50.261  34.466  52.488  0.00  0.00     0.062 A 
ATOM      3  C   UNL d   1      50.993  34.089  52.518  0.00  0.00     0.199 A 
ATOM      4  C   UNL d   1      51.121  34.458  53.891  0.00  0.00     0.126 A 
ATOM      5  C   UNL d   1      49.960  34.838  53.158  0.00  0.00     0.105 A 
ATOM      6  O   UNL d   1      50.390  34.834  53.861  0.00  0.00    -0.305 OA
ATOM      7  C   UNL d   1      49.831  34.470  51.786  0.00  0.00     0.007 A 
ATOM      8  C   UNL d   1      48.795  35.220  52.424  0.00  0.00     0.105 A 
ATOM      9  C   UNL d   1      49.228  35.215  53.129  0.00  0.00     0.050 A 
ATOM     10  C   UNL d   1      49.096  34.848  51.753  0.00  0.00     0.023 A 
ATOM     11  O   UNL d   1      51.294  33.717  51.846  0.00  0.00    -0.286 OA
ENDROOT
BRANCH   1  12
ATOM     12  C   UNL d   1      52.154  33.709  53.250  0.00  0.00     0.007 A 
ATOM     13  C   UNL d   1      52.199  32.890  53.403  0.00  0.00     0.027 A 
ATOM     14  C   UNL d   1      52.922  32.513  53.433  0.00  0.00     0.123 A 
ATOM     15  O   UNL d   1      52.960  31.704  53.584  0.00  0.00    -0.301 OA
ATOM     16  C   UNL d   1      53.627  32.947  53.312  0.00  0.00     0.123 A 
ATOM     17  C   UNL d   1      53.694  31.324  53.615  0.00  0.00     0.149 A 
ATOM     18  C   UNL d   1      54.391  31.749  53.496  0.00  0.00     0.149 A 
ATOM     19  O   UNL d   1      54.356  32.568  53.343  0.00  0.00    -0.301 OA
ATOM     20  C   UNL d   1      53.582  33.766  53.160  0.00  0.00     0.027 A 
ATOM     21  C   UNL d   1      52.850  34.142  53.130  0.00  0.00     0.002 A 
ENDBRANCH   1  12
BRANCH  10  22
ATOM     22  C   UNL d   1      48.659  34.854  51.046  0.00  0.00     0.002 C 
ATOM     23  C   UNL d   1      48.471  34.146  50.672  0.00  0.00     0.000 C 
ENDBRANCH  10  22
BRANCH   8  24
ATOM     24  O   UNL d   1      48.056  35.599  52.390  0.00  0.00    -0.271 OA
BRANCH  24  25
ATOM     25  C   UNL d   1      47.831  36.122  52.987  0.00  0.00     0.323 C 
ATOM     26  O   UNL d   1      48.397  36.502  53.444  0.00  0.00    -0.257 OA
BRANCH  25  27
ATOM     27  C   UNL d   1      47.028  36.265  53.127  0.00  0.00     0.163 A 
ATOM     28  O   UNL d   1      46.591  36.000  53.772  0.00  0.00    -0.300 OA
ATOM     29  C   UNL d   1      45.814  36.267  53.694  0.00  0.00     0.123 A 
ATOM     30  C   UNL d   1      45.773  36.705  52.989  0.00  0.00     0.029 A 
ATOM     31  C   UNL d   1      46.528  36.700  52.642  0.00  0.00     0.032 A 
ENDBRANCH  25  27
ENDBRANCH  24  25
ENDBRANCH   8  24
TORSDOF 5
ENDMDL
MODEL 4
REMARK VINA RESULT:      -7.6      1.351      6.491
REMARK  5 active torsions:
REMARK  status: ('A' for Active; 'I' for Inactive)
REMARK    1  A    between atoms: C_7  and  C_1 
REMARK    2  A    between atoms: C_6  and  O_13 
REMARK    3  A    between atoms: C_12  and  C_6 
REMARK    4  A    between atoms: O_13  and  C_10 
REMARK    5  A    between atoms: C_28  and  C_14 
ROOT
ATOM      1  C   UNL d   1      50.472  34.477  52.703  0.00  0.00     0.064 A 
ATOM      2  C   UNL d   1      51.415  33.463  53.036  0.00  0.00     0.062 A 
ATOM      3  C   UNL d   1      50.688  33.683  52.717  0.00  0.00     0.199 A 
ATOM      4  C   UNL d   1      50.981  35.050  53.006  0.00  0.00     0.126 A 
ATOM      5  C   UNL d   1      51.924  34.035  53.339  0.00  0.00     0.105 A 
ATOM      6  O   UNL d   1      51.707  34.830  53.324  0.00  0.00    -0.305 OA
ATOM      7  C   UNL d   1      51.632  32.669  53.051  0.00  0.00     0.007 A 
ATOM      8  C   UNL d   1      52.870  33.018  53.674  0.00  0.00     0.105 A 
ATOM      9  C   UNL d   1      52.651  33.816  53.658  0.00  0.00     0.050 A 
ATOM     10  C   UNL d   1      52.361  32.445  53.370  0.00  0.00     0.023 A 
ATOM     11  O   UNL d   1      50.179  33.110  52.414  0.00  0.00    -0.286 OA
ENDROOT
BRANCH   1  12
ATOM     12  C   UNL d   1      49.745  34.698  52.384  0.00  0.00     0.007 A 
ATOM     13  C   UNL d   1      49.198  35.129  52.843  0.00  0.00     0.027 A 
ATOM     14  C   UNL d   1      48.477  35.349  52.531  0.00  0.00     0.123 A 
ATOM     15  O   UNL d   1      47.941  35.775  52.990  0.00  0.00    -0.301 OA
ATOM     16  C   UNL d   1      48.280  35.143  51.744  0.00  0.00     0.123 A 
ATOM     17  C   UNL d   1      47.211  35.997  52.671  0.00  0.00     0.149 A 
ATOM     18  C   UNL d   1      47.013  35.796  51.896  0.00  0.00     0.149 A 
ATOM     19  O   UNL d   1      47.554  35.365  51.429  0.00  0.00    -0.301 OA
ATOM     20  C   UNL d   1      48.827  34.712  51.285  0.00  0.00     0.027 A 
ATOM     21  C   UNL d   1      49.553  34.492  51.604  0.00  0.00     0.002 A 
ENDBRANCH   1  12
BRANCH  10  22
ATOM     22  C   UNL d   1      52.583  31.645  53.387  0.00  0.00     0.002 C 
ATOM     23  C   UNL d   1      52.508  31.181  52.711  0.00  0.00     0.000 C 
ENDBRANCH  10  22
BRANCH   8  24
ATOM     24  O   UNL d   1      53.603  32.792  53.994  0.00  0.00    -0.271 OA
BRANCH  24  25
ATOM     25  C   UNL d   1      53.871  33.135  54.695  0.00  0.00     0.323 C 
ATOM     26  O   UNL d   1      53.373  33.208  55.342  0.00  0.00    -0.257 OA
BRANCH  25  27
ATOM     27  C   UNL d   1      54.651  33.410  54.746  0.00  0.00     0.163 A 
ATOM     28  O   UNL d   1      55.239  33.312  54.179  0.00  0.00    -0.300 OA
ATOM     29  C   UNL d   1      55.931  33.670  54.452  0.00  0.00     0.123 A 
ATOM     30  C   UNL d   1      55.765  33.993  55.199  0.00  0.00     0.029 A 
ATOM     31  C   UNL d   1      54.970  33.829  55.376  0.00  0.00     0.032 A 
ENDBRANCH  25  27
ENDBRANCH  24  25
ENDBRANCH   8  24
TORSDOF 5
ENDMDL
MODEL 5
REMARK VINA RESULT:      -6.4      1.811      3.901
REMARK  5 active torsions:
REMARK  status: ('A' for Active; 'I' for Inactive)
REMARK    1  A    between atoms: C_7  and  C_1 
REMARK    2  A    between atoms: C_6  and  O_13 
REMARK    3  A    between atoms: C_12  and  C_6 
REMARK    4  A    between atoms: O_13  and  C_10 
REMARK    5  A    between atoms: C_28  and  C_14 
ROOT
ATOM      1  C   UNL d   1      52.164  31.559  53.385  0.00  0.00     0.064 A 
ATOM      2  C   UNL d   1      51.992  32.973  53.368  0.00  0.00     0.062 A 
ATOM      3  C   UNL d   1      52.476  32.316  53.475  0.00  0.00     0.199 A 
ATOM      4  C   UNL d   1      51.370  31.460  53.189  0.00  0.00     0.126 A 
ATOM      5  C   UNL d   1      51.197  32.874  53.171  0.00  0.00     0.105 A 
ATOM      6  O   UNL d   1      50.886  32.117  53.082  0.00  0.00    -0.305 OA
ATOM      7  C   UNL d   1      52.303  33.730  53.457  0.00  0.00     0.007 A 
ATOM      8  C   UNL d   1      51.024  34.292  53.154  0.00  0.00     0.105 A 
ATOM      9  C   UNL d   1      50.713  33.531  53.064  0.00  0.00     0.050 A 
ATOM     10  C   UNL d   1      51.818  34.392  53.350  0.00  0.00     0.023 A 
ATOM     11  O   UNL d   1      53.271  32.415  53.671  0.00  0.00    -0.286 OA
ENDROOT
BRANCH   1  12
ATOM     12  C   UNL d   1      52.649  30.901  53.492  0.00  0.00     0.007 A 
ATOM     13  C   UNL d   1      52.548  30.409  54.159  0.00  0.00     0.027 A 
ATOM     14  C   UNL d   1      53.026  29.757  54.268  0.00  0.00     0.123 A 
ATOM     15  O   UNL d   1      52.922  29.276  54.928  0.00  0.00    -0.301 OA
ATOM     16  C   UNL d   1      53.623  29.576  53.710  0.00  0.00     0.123 A 
ATOM     17  C   UNL d   1      53.408  28.615  55.037  0.00  0.00     0.149 A 
ATOM     18  C   UNL d   1      53.997  28.433  54.489  0.00  0.00     0.149 A 
ATOM     19  O   UNL d   1      54.104  28.919  53.820  0.00  0.00    -0.301 OA
ATOM     20  C   UNL d   1      53.723  30.068  53.044  0.00  0.00     0.027 A 
ATOM     21  C   UNL d   1      53.239  30.725  52.937  0.00  0.00     0.002 A 
ENDBRANCH   1  12
BRANCH  10  22
ATOM     22  C   UNL d   1      52.129  35.157  53.439  0.00  0.00     0.002 C 
ATOM     23  C   UNL d   1      52.805  35.278  53.893  0.00  0.00     0.000 C 
ENDBRANCH  10  22
BRANCH   8  24
ATOM     24  O   UNL d   1      50.539  34.958  53.047  0.00  0.00    -0.271 OA
BRANCH  24  25
ATOM     25  C   UNL d   1      49.830  34.890  52.631  0.00  0.00     0.323 C 
ATOM     26  O   UNL d   1      49.772  34.391  51.982  0.00  0.00    -0.257 OA
BRANCH  25  27
ATOM     27  C   UNL d   1      49.169  35.330  52.869  0.00  0.00     0.163 A 
ATOM     28  O   UNL d   1      49.072  35.709  53.592  0.00  0.00    -0.300 OA
ATOM     29  C   UNL d   1      48.336  36.081  53.599  0.00  0.00     0.123 A 
ATOM     30  C   UNL d   1      47.974  35.928  52.868  0.00  0.00     0.029 A 
ATOM     31  C   UNL d   1      48.495  35.462  52.419  0.00  0.00     0.032 A 
ENDBRANCH  25  27
ENDBRANCH  24  25
ENDBRANCH   8  24
TORSDOF 5
ENDMDL
