MODEL 1
REMARK VINA RESULT:      -5.4      0.000      0.000
REMARK  2 active torsions:
REMARK  status: ('A' for Active; 'I' for Inactive)
REMARK       I    between atoms: N_2  and  C_1 
REMARK    1  A    between atoms: C_5  and  C_1 
REMARK    2  A    between atoms: C_7  and  N_2 
ROOT
ATOM      1  C   UNL d   1      56.721  -0.681  31.931  0.00  0.00     0.125 A 
ATOM      2  C   UNL d   1      57.089  -0.676  31.193  0.00  0.00     0.059 A 
ATOM      3  C   UNL d   1      56.736  -0.012  32.414  0.00  0.00     0.123 A 
ATOM      4  C   UNL d   1      57.474   0.005  30.936  0.00  0.00     0.137 A 
ATOM      5  O   UNL d   1      56.333  -1.367  32.189  0.00  0.00    -0.301 OA
ATOM      6  O   UNL d   1      56.369  -0.014  33.155  0.00  0.00    -0.301 OA
ATOM      7  C   UNL d   1      57.124   0.670  32.154  0.00  0.00     0.029 A 
ATOM      8  C   UNL d   1      57.492   0.679  31.418  0.00  0.00     0.034 A 
ATOM      9  C   UNL d   1      55.965  -1.377  32.926  0.00  0.00     0.149 A 
ATOM     10  C   UNL d   1      55.983  -0.702  33.408  0.00  0.00     0.149 A 
ENDROOT
BRANCH   4  11
ATOM     11  N   UNL d   1      57.847   0.018  30.194  0.00  0.00    -0.365 NA
ATOM     12  C   UNL d   1      58.215   0.029  29.467  0.00  0.00     0.328 C 
ATOM     13  O   UNL d   1      57.860   0.406  28.835  0.00  0.00    -0.251 OA
BRANCH  12  14
ATOM     14  C   UNL d   1      58.938  -0.339  29.374  0.00  0.00     0.070 A 
ATOM     15  C   UNL d   1      59.635   0.065  29.542  0.00  0.00     0.006 A 
ATOM     16  C   UNL d   1      60.364  -0.310  29.447  0.00  0.00     0.000 A 
ATOM     17  C   UNL d   1      60.402  -1.093  29.182  0.00  0.00     0.000 A 
ATOM     18  C   UNL d   1      59.709  -1.500  29.014  0.00  0.00     0.000 A 
ATOM     19  C   UNL d   1      61.131  -1.469  29.087  0.00  0.00     0.000 C 
ATOM     20  C   UNL d   1      58.976  -1.122  29.110  0.00  0.00     0.006 A 
ENDBRANCH  12  14
ENDBRANCH   4  11
TORSDOF 2
ENDMDL
MODEL 2
REMARK VINA RESULT:      -4.6      1.510      4.204
REMARK  2 active torsions:
REMARK  status: ('A' for Active; 'I' for Inactive)
REMARK       I    between atoms: N_2  and  C_1 
REMARK    1  A    between atoms: C_5  and  C_1 
REMARK    2  A    between atoms: C_7  and  N_2 
ROOT
ATOM      1  C   UNL d   1      58.990  -2.332  29.218  0.00  0.00     0.125 A 
ATOM      2  C   UNL d   1      58.460  -1.769  29.508  0.00  0.00     0.059 A 
ATOM      3  C   UNL d   1      59.770  -2.125  29.043  0.00  0.00     0.123 A 
ATOM      4  C   UNL d   1      58.713  -0.995  29.623  0.00  0.00     0.137 A 
ATOM      5  O   UNL d   1      58.734  -3.112  29.102  0.00  0.00    -0.301 OA
ATOM      6  O   UNL d   1      60.303  -2.686  28.752  0.00  0.00    -0.301 OA
ATOM      7  C   UNL d   1      60.021  -1.346  29.160  0.00  0.00     0.029 A 
ATOM      8  C   UNL d   1      59.496  -0.783  29.449  0.00  0.00     0.034 A 
ATOM      9  C   UNL d   1      59.261  -3.676  28.813  0.00  0.00     0.149 A 
ATOM     10  C   UNL d   1      60.043  -3.464  28.638  0.00  0.00     0.149 A 
ENDROOT
BRANCH   4  11
ATOM     11  N   UNL d   1      58.186  -0.423  29.915  0.00  0.00    -0.365 NA
ATOM     12  C   UNL d   1      57.668   0.136  30.204  0.00  0.00     0.328 C 
ATOM     13  O   UNL d   1      57.332   0.682  29.698  0.00  0.00    -0.251 OA
BRANCH  12  14
ATOM     14  C   UNL d   1      57.489   0.147  31.001  0.00  0.00     0.070 A 
ATOM     15  C   UNL d   1      56.914  -0.357  31.305  0.00  0.00     0.006 A 
ATOM     16  C   UNL d   1      56.736  -0.341  32.111  0.00  0.00     0.000 A 
ATOM     17  C   UNL d   1      57.131   0.177  32.619  0.00  0.00     0.000 A 
ATOM     18  C   UNL d   1      57.705   0.682  32.319  0.00  0.00     0.000 A 
ATOM     19  C   UNL d   1      56.952   0.193  33.425  0.00  0.00     0.000 C 
ATOM     20  C   UNL d   1      57.884   0.667  31.509  0.00  0.00     0.006 A 
ENDBRANCH  12  14
ENDBRANCH   4  11
TORSDOF 2
ENDMDL
MODEL 3
REMARK VINA RESULT:      -2.7      1.296      1.841
REMARK  2 active torsions:
REMARK  status: ('A' for Active; 'I' for Inactive)
REMARK       I    between atoms: N_2  and  C_1 
REMARK    1  A    between atoms: C_5  and  C_1 
REMARK    2  A    between atoms: C_7  and  N_2 
ROOT
ATOM      1  C   UNL d   1      55.859   0.141  32.991  0.00  0.00     0.125 A 
ATOM      2  C   UNL d   1      56.236   0.423  32.314  0.00  0.00     0.059 A 
ATOM      3  C   UNL d   1      55.951  -0.643  33.229  0.00  0.00     0.123 A 
ATOM      4  C   UNL d   1      56.710  -0.084  31.872  0.00  0.00     0.137 A 
ATOM      5  O   UNL d   1      55.381   0.653  33.435  0.00  0.00    -0.301 OA
ATOM      6  O   UNL d   1      55.574  -0.930  33.907  0.00  0.00    -0.301 OA
ATOM      7  C   UNL d   1      56.428  -1.151  32.783  0.00  0.00     0.029 A 
ATOM      8  C   UNL d   1      56.807  -0.873  32.107  0.00  0.00     0.034 A 
ATOM      9  C   UNL d   1      55.002   0.375  34.112  0.00  0.00     0.149 A 
ATOM     10  C   UNL d   1      55.099  -0.414  34.347  0.00  0.00     0.149 A 
ENDROOT
BRANCH   4  11
ATOM     11  N   UNL d   1      57.094   0.193  31.189  0.00  0.00    -0.365 NA
ATOM     12  C   UNL d   1      57.473   0.464  30.521  0.00  0.00     0.328 C 
ATOM     13  O   UNL d   1      57.038   0.682  29.864  0.00  0.00    -0.251 OA
BRANCH  12  14
ATOM     14  C   UNL d   1      58.288   0.518  30.512  0.00  0.00     0.070 A 
ATOM     15  C   UNL d   1      58.706   0.628  31.211  0.00  0.00     0.006 A 
ATOM     16  C   UNL d   1      59.529   0.682  31.197  0.00  0.00     0.000 A 
ATOM     17  C   UNL d   1      59.942   0.624  30.483  0.00  0.00     0.000 A 
ATOM     18  C   UNL d   1      59.528   0.514  29.782  0.00  0.00     0.000 A 
ATOM     19  C   UNL d   1      60.766   0.678  30.468  0.00  0.00     0.000 C 
ATOM     20  C   UNL d   1      58.700   0.460  29.796  0.00  0.00     0.006 A 
ENDBRANCH  12  14
ENDBRANCH   4  11
TORSDOF 2
ENDMDL
MODEL 4
REMARK VINA RESULT:      -2.6      1.587      4.737
REMARK  2 active torsions:
REMARK  status: ('A' for Active; 'I' for Inactive)
REMARK       I    between atoms: N_2  and  C_1 
REMARK    1  A    between atoms: C_5  and  C_1 
REMARK    2  A    between atoms: C_7  and  N_2 
ROOT
ATOM      1  C   UNL d   1      58.157   0.143  30.089  0.00  0.00     0.125 A 
ATOM      2  C   UNL d   1      57.994   0.422  30.848  0.00  0.00     0.059 A 
ATOM      3  C   UNL d   1      58.047  -0.652  29.899  0.00  0.00     0.123 A 
ATOM      4  C   UNL d   1      57.719  -0.100  31.421  0.00  0.00     0.137 A 
ATOM      5  O   UNL d   1      58.435   0.670  29.512  0.00  0.00    -0.301 OA
ATOM      6  O   UNL d   1      58.209  -0.935  29.139  0.00  0.00    -0.301 OA
ATOM      7  C   UNL d   1      57.770  -1.174  30.477  0.00  0.00     0.029 A 
ATOM      8  C   UNL d   1      57.606  -0.900  31.235  0.00  0.00     0.034 A 
ATOM      9  C   UNL d   1      58.599   0.396  28.752  0.00  0.00     0.149 A 
ATOM     10  C   UNL d   1      58.486  -0.404  28.566  0.00  0.00     0.149 A 
ENDROOT
BRANCH   4  11
ATOM     11  N   UNL d   1      57.552   0.173  32.188  0.00  0.00    -0.365 NA
ATOM     12  C   UNL d   1      57.386   0.440  32.939  0.00  0.00     0.328 C 
ATOM     13  O   UNL d   1      57.993   0.668  33.436  0.00  0.00    -0.251 OA
BRANCH  12  14
ATOM     14  C   UNL d   1      56.610   0.480  33.192  0.00  0.00     0.070 A 
ATOM     15  C   UNL d   1      56.006   0.643  32.659  0.00  0.00     0.006 A 
ATOM     16  C   UNL d   1      55.224   0.682  32.919  0.00  0.00     0.000 A 
ATOM     17  C   UNL d   1      55.038   0.557  33.715  0.00  0.00     0.000 A 
ATOM     18  C   UNL d   1      55.639   0.393  34.251  0.00  0.00     0.000 A 
ATOM     19  C   UNL d   1      54.256   0.596  33.976  0.00  0.00     0.000 C 
ATOM     20  C   UNL d   1      56.426   0.354  33.989  0.00  0.00     0.006 A 
ENDBRANCH  12  14
ENDBRANCH   4  11
TORSDOF 2
ENDMDL
