MODEL 1
REMARK VINA RESULT:      14.7      0.000      0.000
REMARK  9 active torsions:
REMARK  status: ('A' for Active; 'I' for Inactive)
REMARK    1  A    between atoms: N_6  and  C_1 
REMARK    2  A    between atoms: N_2  and  C_10 
REMARK    3  A    between atoms: C_3  and  N_6 
REMARK    4  A    between atoms: N_4  and  C_3 
REMARK       I    between atoms: C_7  and  N_4 
REMARK    5  A    between atoms: C_12  and  C_7 
REMARK    6  A    between atoms: C_11  and  C_8 
REMARK    7  A    between atoms: C_15  and  C_11 
REMARK    8  A    between atoms: O_21  and  C_15 
REMARK    9  A    between atoms: C_25  and  O_21 
ROOT
ATOM      1  C   UNL d   1      46.267 -17.526  44.294  0.00  0.00     0.277 C 
ATOM      2  S   UNL d   1      46.431 -18.004  44.954  0.00  0.00    -0.023 SA
ENDROOT
BRANCH   1   3
ATOM      3  N   UNL d   1      45.989 -16.759  44.407  0.00  0.00    -0.347 NA
BRANCH   3   4
ATOM      4  C   UNL d   1      45.716 -15.989  44.527  0.00  0.00     0.248 A 
ATOM      5  N   UNL d   1      46.139 -15.283  44.379  0.00  0.00    -0.210 NA
ATOM      6  C   UNL d   1      45.649 -14.648  44.580  0.00  0.00     0.096 A 
ATOM      7  C   UNL d   1      44.932 -14.955  44.849  0.00  0.00     0.059 A 
ATOM      8  S   UNL d   1      44.971 -15.777  44.818  0.00  0.00    -0.033 SA
BRANCH   6   9
ATOM      9  C   UNL d   1      45.847 -13.848  44.520  0.00  0.00     0.088 C 
BRANCH   9  10
ATOM     10  C   UNL d   1      45.313 -13.312  44.196  0.00  0.00     0.302 C 
ATOM     11  O   UNL d   1      44.789 -12.908  44.691  0.00  0.00    -0.259 OA
BRANCH  10  12
ATOM     12  O   UNL d   1      45.301 -13.180  43.381  0.00  0.00    -0.271 OA
BRANCH  12  13
ATOM     13  C   UNL d   1      45.245 -12.412  43.088  0.00  0.00     0.126 C 
ATOM     14  C   UNL d   1      44.940 -12.279  42.333  0.00  0.00     0.029 C 
ENDBRANCH  12  13
ENDBRANCH  10  12
ENDBRANCH   9  10
ENDBRANCH   6   9
ENDBRANCH   3   4
ENDBRANCH   1   3
BRANCH   1  15
ATOM     15  N   UNL d   1      46.386 -17.825  43.534  0.00  0.00    -0.168 NA
ATOM     16  C   UNL d   1      46.291 -18.632  43.382  0.00  0.00     0.282 C 
ATOM     17  O   UNL d   1      46.076 -19.145  43.994  0.00  0.00    -0.265 OA
BRANCH  16  18
ATOM     18  C   UNL d   1      46.409 -18.931  42.622  0.00  0.00     0.060 A 
ATOM     19  C   UNL d   1      46.435 -18.419  41.971  0.00  0.00     0.028 A 
ATOM     20  C   UNL d   1      46.553 -18.718  41.215  0.00  0.00     0.127 A 
ATOM     21  C   UNL d   1      46.646 -19.527  41.097  0.00  0.00     0.024 A 
ATOM     22  C   UNL d   1      46.622 -20.039  41.745  0.00  0.00     0.002 A 
ATOM     23  C   UNL d   1      46.502 -19.742  42.513  0.00  0.00     0.005 A 
BRANCH  20  24
ATOM     24  N   UNL d   1      46.576 -18.195  40.574  0.00  0.00    -0.114 N 
ATOM     25  O   UNL d   1      46.528 -18.474  39.801  0.00  0.00    -0.532 OA
ATOM     26  O   UNL d   1      46.647 -17.386  40.715  0.00  0.00    -0.532 OA
ENDBRANCH  20  24
ENDBRANCH  16  18
ENDBRANCH   1  15
TORSDOF 9
ENDMDL
