MODEL 1
REMARK VINA RESULT:      68.7      0.000      0.000
REMARK  2 active torsions:
REMARK  status: ('A' for Active; 'I' for Inactive)
REMARK    1  A    between atoms: C_5  and  C_1 
REMARK    2  A    between atoms: C_10  and  N_4 
ROOT
ATOM      1  N   UNL d   1     -50.193  27.117  33.883  0.00  0.00    -0.273 N 
ATOM      2  C   UNL d   1     -51.213  26.295  33.587  0.00  0.00     0.057 A 
ATOM      3  C   UNL d   1     -50.776  27.558  33.488  0.00  0.00     0.265 A 
ATOM      4  C   UNL d   1     -50.465  26.346  33.942  0.00  0.00     0.086 A 
ATOM      5  C   UNL d   1     -51.400  27.054  33.307  0.00  0.00     0.066 A 
ATOM      6  O   UNL d   1     -50.726  28.366  33.311  0.00  0.00    -0.267 OA
ENDROOT
BRANCH   2   7
ATOM      7  C   UNL d   1     -51.642  25.601  33.550  0.00  0.00     0.149 A 
ATOM      8  N   UNL d   1     -51.397  24.848  33.626  0.00  0.00    -0.227 NA
ATOM      9  C   UNL d   1     -52.050  24.345  33.542  0.00  0.00     0.099 A 
ATOM     10  C   UNL d   1     -52.115  23.532  33.570  0.00  0.00     0.021 A 
ATOM     11  C   UNL d   1     -52.703  24.814  33.412  0.00  0.00     0.083 A 
ATOM     12  C   UNL d   1     -52.864  23.189  33.463  0.00  0.00     0.002 A 
ATOM     13  C   UNL d   1     -53.518  23.658  33.333  0.00  0.00     0.002 A 
ATOM     14  C   UNL d   1     -53.442  24.485  33.306  0.00  0.00     0.019 A 
ATOM     15  N   UNL d   1     -52.447  25.602  33.417  0.00  0.00    -0.288 N 
ATOM     16  C   UNL d   1     -52.925  26.279  33.306  0.00  0.00     0.101 C 
ENDBRANCH   2   7
BRANCH   1  17
ATOM     17  C   UNL d   1     -49.497  27.435  34.146  0.00  0.00     0.067 A 
ATOM     18  C   UNL d   1     -49.504  28.119  34.591  0.00  0.00     0.018 A 
ATOM     19  C   UNL d   1     -48.798  28.457  34.868  0.00  0.00     0.001 A 
ATOM     20  C   UNL d   1     -48.823  29.136  35.308  0.00  0.00     0.000 C 
ATOM     21  C   UNL d   1     -48.071  28.087  34.685  0.00  0.00     0.000 A 
ATOM     22  C   UNL d   1     -48.064  27.403  34.241  0.00  0.00     0.002 A 
ATOM     23  C   UNL d   1     -47.342  28.423  34.963  0.00  0.00     0.000 C 
ATOM     24  C   UNL d   1     -48.777  27.073  33.969  0.00  0.00     0.018 A 
ENDBRANCH   1  17
TORSDOF 2
ENDMDL
MODEL 2
REMARK VINA RESULT:      69.6      0.775      1.346
REMARK  2 active torsions:
REMARK  status: ('A' for Active; 'I' for Inactive)
REMARK    1  A    between atoms: C_5  and  C_1 
REMARK    2  A    between atoms: C_10  and  N_4 
ROOT
ATOM      1  N   UNL d   1     -49.751  27.701  34.038  0.00  0.00    -0.273 N 
ATOM      2  C   UNL d   1     -50.635  26.774  33.635  0.00  0.00     0.057 A 
ATOM      3  C   UNL d   1     -50.317  28.074  33.556  0.00  0.00     0.265 A 
ATOM      4  C   UNL d   1     -49.950  26.907  34.083  0.00  0.00     0.086 A 
ATOM      5  C   UNL d   1     -50.857  27.505  33.310  0.00  0.00     0.066 A 
ATOM      6  O   UNL d   1     -50.325  28.879  33.364  0.00  0.00    -0.267 OA
ENDROOT
BRANCH   2   7
ATOM      7  C   UNL d   1     -50.984  26.039  33.561  0.00  0.00     0.149 A 
ATOM      8  N   UNL d   1     -51.754  25.843  33.523  0.00  0.00    -0.227 NA
ATOM      9  C   UNL d   1     -51.817  25.021  33.450  0.00  0.00     0.099 A 
ATOM     10  C   UNL d   1     -52.466  24.530  33.390  0.00  0.00     0.021 A 
ATOM     11  C   UNL d   1     -51.060  24.718  33.444  0.00  0.00     0.083 A 
ATOM     12  C   UNL d   1     -52.342  23.711  33.322  0.00  0.00     0.002 A 
ATOM     13  C   UNL d   1     -51.585  23.408  33.316  0.00  0.00     0.002 A 
ATOM     14  C   UNL d   1     -50.929  23.915  33.378  0.00  0.00     0.019 A 
ATOM     15  N   UNL d   1     -50.538  25.357  33.514  0.00  0.00    -0.288 N 
ATOM     16  C   UNL d   1     -49.703  25.315  33.533  0.00  0.00     0.101 C 
ENDBRANCH   2   7
BRANCH   1  17
ATOM     17  C   UNL d   1     -49.132  28.093  34.381  0.00  0.00     0.067 A 
ATOM     18  C   UNL d   1     -49.097  28.908  34.347  0.00  0.00     0.018 A 
ATOM     19  C   UNL d   1     -48.468  29.324  34.694  0.00  0.00     0.001 A 
ATOM     20  C   UNL d   1     -48.448  30.132  34.652  0.00  0.00     0.000 C 
ATOM     21  C   UNL d   1     -47.863  28.897  35.083  0.00  0.00     0.000 A 
ATOM     22  C   UNL d   1     -47.898  28.082  35.117  0.00  0.00     0.002 A 
ATOM     23  C   UNL d   1     -47.214  29.311  35.442  0.00  0.00     0.000 C 
ATOM     24  C   UNL d   1     -48.533  27.676  34.766  0.00  0.00     0.018 A 
ENDBRANCH   1  17
TORSDOF 2
ENDMDL
