MODEL 1
REMARK VINA RESULT:      -1.2      0.000      0.000
REMARK  4 active torsions:
REMARK  status: ('A' for Active; 'I' for Inactive)
REMARK    1  A    between atoms: C_6  and  C_1 
REMARK    2  A    between atoms: N_4  and  C_2 
REMARK       I    between atoms: C_3  and  N_4 
REMARK       I    between atoms: N_9  and  C_3 
REMARK    3  A    between atoms: C_15  and  N_9 
REMARK    4  A    between atoms: C_23  and  C_15 
ROOT
ATOM      1  C   UNL d   1      57.993   0.231  29.796  0.00  0.00     0.040 A 
ATOM      2  C   UNL d   1      59.052  -0.372  29.721  0.00  0.00     0.109 A 
ATOM      3  C   UNL d   1      58.186  -0.211  30.257  0.00  0.00     0.035 A 
ATOM      4  C   UNL d   1      57.393   0.681  29.685  0.00  0.00    -0.023 A 
ATOM      5  C   UNL d   1      58.603   0.443  28.953  0.00  0.00     0.013 A 
ATOM      6  C   UNL d   1      58.117   0.523  29.269  0.00  0.00    -0.011 A 
ATOM      7  C   UNL d   1      59.265   0.316  28.548  0.00  0.00     0.025 A 
ATOM      8  C   UNL d   1      58.353  -0.001  29.809  0.00  0.00    -0.005 A 
ATOM      9  C   UNL d   1      59.508  -0.214  29.090  0.00  0.00     0.031 A 
ATOM     10  C   UNL d   1      58.573   0.681  28.639  0.00  0.00    -0.027 A 
ENDROOT
BRANCH   2  11
ATOM     11  N   UNL d   1      59.753  -0.809  29.724  0.00  0.00    -0.217 NA
ATOM     12  C   UNL d   1      59.751  -1.596  29.486  0.00  0.00     0.360 C 
ATOM     13  N   UNL d   1      60.446  -2.037  29.487  0.00  0.00    -0.214 NA
ATOM     14  O   UNL d   1      59.039  -1.951  29.243  0.00  0.00    -0.243 OA
BRANCH  13  15
ATOM     15  C   UNL d   1      60.444  -2.834  29.247  0.00  0.00     0.147 C 
ATOM     16  C   UNL d   1      60.915  -2.533  28.633  0.00  0.00     0.033 C 
ATOM     17  C   UNL d   1      59.975  -3.126  29.862  0.00  0.00     0.033 C 
BRANCH  15  18
ATOM     18  C   UNL d   1      60.448  -3.624  29.002  0.00  0.00     0.229 C 
ATOM     19  O   UNL d   1      60.947  -4.167  29.377  0.00  0.00    -0.286 OA
ENDBRANCH  15  18
ENDBRANCH  13  15
ENDBRANCH   2  11
BRANCH   1  20
ATOM     20  C   UNL d   1      57.707  -0.080  30.495  0.00  0.00    -0.019 A 
ATOM     21  C   UNL d   1      57.376  -0.842  30.511  0.00  0.00    -0.004 A 
ATOM     22  C   UNL d   1      57.086  -1.158  31.215  0.00  0.00    -0.000 A 
ATOM     23  C   UNL d   1      57.125  -0.711  31.916  0.00  0.00    -0.000 A 
ATOM     24  C   UNL d   1      57.455   0.045  31.895  0.00  0.00    -0.000 A 
ATOM     25  C   UNL d   1      56.836  -1.025  32.624  0.00  0.00    -0.000 C 
ATOM     26  C   UNL d   1      57.745   0.361  31.190  0.00  0.00    -0.004 A 
ENDBRANCH   1  20
TORSDOF 4
ENDMDL
MODEL 2
REMARK VINA RESULT:      -0.1      1.126      1.485
REMARK  4 active torsions:
REMARK  status: ('A' for Active; 'I' for Inactive)
REMARK    1  A    between atoms: C_6  and  C_1 
REMARK    2  A    between atoms: N_4  and  C_2 
REMARK       I    between atoms: C_3  and  N_4 
REMARK       I    between atoms: N_9  and  C_3 
REMARK    3  A    between atoms: C_15  and  N_9 
REMARK    4  A    between atoms: C_23  and  C_15 
ROOT
ATOM      1  C   UNL d   1      57.930   0.118  30.923  0.00  0.00     0.040 A 
ATOM      2  C   UNL d   1      57.960  -0.641  29.967  0.00  0.00     0.109 A 
ATOM      3  C   UNL d   1      57.554  -0.433  30.892  0.00  0.00     0.035 A 
ATOM      4  C   UNL d   1      58.036   0.682  31.419  0.00  0.00    -0.023 A 
ATOM      5  C   UNL d   1      58.590   0.375  30.132  0.00  0.00     0.013 A 
ATOM      6  C   UNL d   1      58.350   0.479  30.656  0.00  0.00    -0.011 A 
ATOM      7  C   UNL d   1      58.896   0.211  29.426  0.00  0.00     0.025 A 
ATOM      8  C   UNL d   1      57.910  -0.173  30.610  0.00  0.00    -0.005 A 
ATOM      9  C   UNL d   1      58.454  -0.449  29.376  0.00  0.00     0.031 A 
ATOM     10  C   UNL d   1      58.843   0.671  30.064  0.00  0.00    -0.027 A 
ENDROOT
BRANCH   2  11
ATOM     11  N   UNL d   1      57.938  -1.189  29.351  0.00  0.00    -0.217 NA
ATOM     12  C   UNL d   1      58.412  -1.861  29.377  0.00  0.00     0.360 C 
ATOM     13  N   UNL d   1      58.395  -2.412  28.765  0.00  0.00    -0.214 NA
ATOM     14  O   UNL d   1      58.915  -1.985  30.028  0.00  0.00    -0.243 OA
BRANCH  13  15
ATOM     15  C   UNL d   1      58.874  -3.091  28.791  0.00  0.00     0.147 C 
ATOM     16  C   UNL d   1      58.181  -3.433  29.093  0.00  0.00     0.033 C 
ATOM     17  C   UNL d   1      59.562  -2.743  28.490  0.00  0.00     0.033 C 
BRANCH  15  18
ATOM     18  C   UNL d   1      59.345  -3.771  28.820  0.00  0.00     0.229 C 
ATOM     19  O   UNL d   1      59.062  -4.479  28.497  0.00  0.00    -0.286 OA
ENDBRANCH  15  18
ENDBRANCH  13  15
ENDBRANCH   2  11
BRANCH   1  20
ATOM     20  C   UNL d   1      57.377  -0.266  31.386  0.00  0.00    -0.019 A 
ATOM     21  C   UNL d   1      56.582  -0.021  31.380  0.00  0.00    -0.004 A 
ATOM     22  C   UNL d   1      56.022  -0.407  31.846  0.00  0.00    -0.000 A 
ATOM     23  C   UNL d   1      56.253  -1.046  32.327  0.00  0.00    -0.000 A 
ATOM     24  C   UNL d   1      57.043  -1.285  32.330  0.00  0.00    -0.000 A 
ATOM     25  C   UNL d   1      55.694  -1.435  32.795  0.00  0.00    -0.000 C 
ATOM     26  C   UNL d   1      57.603  -0.898  31.863  0.00  0.00    -0.004 A 
ENDBRANCH   1  20
TORSDOF 4
ENDMDL
MODEL 3
REMARK VINA RESULT:       0.6      1.484      3.790
REMARK  4 active torsions:
REMARK  status: ('A' for Active; 'I' for Inactive)
REMARK    1  A    between atoms: C_6  and  C_1 
REMARK    2  A    between atoms: N_4  and  C_2 
REMARK       I    between atoms: C_3  and  N_4 
REMARK       I    between atoms: N_9  and  C_3 
REMARK    3  A    between atoms: C_15  and  N_9 
REMARK    4  A    between atoms: C_23  and  C_15 
ROOT
ATOM      1  C   UNL d   1      60.032  -2.189  28.708  0.00  0.00     0.040 A 
ATOM      2  C   UNL d   1      59.223  -1.329  29.021  0.00  0.00     0.109 A 
ATOM      3  C   UNL d   1      59.388  -2.326  28.814  0.00  0.00     0.035 A 
ATOM      4  C   UNL d   1      60.652  -2.580  28.514  0.00  0.00    -0.023 A 
ATOM      5  C   UNL d   1      60.403  -1.198  28.804  0.00  0.00     0.013 A 
ATOM      6  C   UNL d   1      60.480  -1.767  28.690  0.00  0.00    -0.011 A 
ATOM      7  C   UNL d   1      60.271  -0.439  28.963  0.00  0.00     0.025 A 
ATOM      8  C   UNL d   1      59.717  -1.920  28.818  0.00  0.00    -0.005 A 
ATOM      9  C   UNL d   1      59.500  -0.589  29.093  0.00  0.00     0.031 A 
ATOM     10  C   UNL d   1      60.757  -1.026  28.762  0.00  0.00    -0.027 A 
ENDROOT
BRANCH   2  11
ATOM     11  N   UNL d   1      58.632  -0.794  29.233  0.00  0.00    -0.217 NA
ATOM     12  C   UNL d   1      58.364  -0.761  30.010  0.00  0.00     0.360 C 
ATOM     13  N   UNL d   1      57.775  -0.229  30.230  0.00  0.00    -0.214 NA
ATOM     14  O   UNL d   1      58.691  -1.270  30.581  0.00  0.00    -0.243 OA
BRANCH  13  15
ATOM     15  C   UNL d   1      57.503  -0.195  31.015  0.00  0.00     0.147 C 
ATOM     16  C   UNL d   1      57.873   0.548  30.993  0.00  0.00     0.033 C 
ATOM     17  C   UNL d   1      57.137  -0.937  31.029  0.00  0.00     0.033 C 
BRANCH  15  18
ATOM     18  C   UNL d   1      57.236  -0.154  31.797  0.00  0.00     0.229 C 
ATOM     19  O   UNL d   1      57.537   0.428  32.303  0.00  0.00    -0.286 OA
ENDBRANCH  15  18
ENDBRANCH  13  15
ENDBRANCH   2  11
BRANCH   1  20
ATOM     20  C   UNL d   1      59.542  -2.841  28.694  0.00  0.00    -0.019 A 
ATOM     21  C   UNL d   1      58.745  -2.763  28.470  0.00  0.00    -0.004 A 
ATOM     22  C   UNL d   1      58.248  -3.420  28.455  0.00  0.00    -0.000 A 
ATOM     23  C   UNL d   1      58.545  -4.169  28.666  0.00  0.00    -0.000 A 
ATOM     24  C   UNL d   1      59.337  -4.241  28.888  0.00  0.00    -0.000 A 
ATOM     25  C   UNL d   1      58.050  -4.830  28.652  0.00  0.00    -0.000 C 
ATOM     26  C   UNL d   1      59.834  -3.583  28.902  0.00  0.00    -0.004 A 
ENDBRANCH   1  20
TORSDOF 4
ENDMDL
