MODEL 1
REMARK VINA RESULT:      53.4      0.000      0.000
REMARK  4 active torsions:
REMARK  status: ('A' for Active; 'I' for Inactive)
REMARK    1  A    between atoms: C_7  and  C_2 
REMARK    2  A    between atoms: C_9  and  C_4 
REMARK    3  A    between atoms: C_15  and  C_7 
REMARK    4  A    between atoms: N_8  and  C_9 
ROOT
ATOM      1  C   UNL d   1      45.744 -14.961  43.743  0.00  0.00     0.108 A 
ATOM      2  C   UNL d   1      45.438 -16.265  43.729  0.00  0.00     0.139 A 
ATOM      3  O   UNL d   1      45.334 -15.548  43.321  0.00  0.00    -0.304 OA
ATOM      4  C   UNL d   1      45.841 -14.155  43.611  0.00  0.00     0.079 A 
ATOM      5  C   UNL d   1      46.095 -15.316  44.402  0.00  0.00     0.064 A 
ATOM      6  C   UNL d   1      45.905 -16.118  44.392  0.00  0.00     0.220 A 
ATOM      7  C   UNL d   1      46.541 -14.861  44.926  0.00  0.00     0.009 A 
ATOM      8  C   UNL d   1      46.285 -13.708  44.134  0.00  0.00     0.199 A 
ATOM      9  O   UNL d   1      46.143 -16.681  44.952  0.00  0.00    -0.284 OA
ATOM     10  C   UNL d   1      46.637 -14.053  44.792  0.00  0.00     0.042 A 
ATOM     11  O   UNL d   1      46.381 -12.900  43.999  0.00  0.00    -0.286 OA
ENDROOT
BRANCH   2  12
ATOM     12  C   UNL d   1      45.123 -16.996  43.503  0.00  0.00     0.028 C 
BRANCH  12  13
ATOM     13  C   UNL d   1      45.503 -17.454  42.928  0.00  0.00     0.002 A 
ATOM     14  C   UNL d   1      45.185 -17.500  42.169  0.00  0.00     0.000 A 
ATOM     15  C   UNL d   1      45.557 -17.954  41.592  0.00  0.00     0.000 A 
ATOM     16  C   UNL d   1      46.255 -18.365  41.777  0.00  0.00     0.000 A 
ATOM     17  C   UNL d   1      46.573 -18.318  42.536  0.00  0.00     0.000 A 
ATOM     18  C   UNL d   1      46.631 -18.820  41.201  0.00  0.00     0.000 C 
ATOM     19  C   UNL d   1      46.194 -17.861  43.111  0.00  0.00     0.000 A 
ENDBRANCH  12  13
ENDBRANCH   2  12
BRANCH   4  20
ATOM     20  C   UNL d   1      45.494 -13.804  42.959  0.00  0.00     0.086 C 
BRANCH  20  21
ATOM     21  N   UNL d   1      44.786 -13.365  42.964  0.00  0.00    -0.300 N 
ATOM     22  C   UNL d   1      44.105 -13.720  43.251  0.00  0.00     0.100 A 
ATOM     23  C   UNL d   1      43.401 -13.294  43.260  0.00  0.00     0.100 A 
ATOM     24  N   UNL d   1      43.396 -12.526  42.981  0.00  0.00    -0.299 N 
ATOM     25  C   UNL d   1      44.084 -12.186  42.698  0.00  0.00     0.100 A 
ATOM     26  C   UNL d   1      42.700 -12.101  42.988  0.00  0.00     0.100 C 
ATOM     27  C   UNL d   1      44.776 -12.612  42.692  0.00  0.00     0.100 A 
ENDBRANCH  20  21
ENDBRANCH   4  20
TORSDOF 4
ENDMDL
MODEL 2
REMARK VINA RESULT:      54.6      1.942      3.540
REMARK  4 active torsions:
REMARK  status: ('A' for Active; 'I' for Inactive)
REMARK    1  A    between atoms: C_7  and  C_2 
REMARK    2  A    between atoms: C_9  and  C_4 
REMARK    3  A    between atoms: C_15  and  C_7 
REMARK    4  A    between atoms: N_8  and  C_9 
ROOT
ATOM      1  C   UNL d   1      46.473 -18.173  42.960  0.00  0.00     0.108 A 
ATOM      2  C   UNL d   1      46.569 -18.850  41.808  0.00  0.00     0.139 A 
ATOM      3  O   UNL d   1      46.562 -18.087  42.139  0.00  0.00    -0.304 OA
ATOM      4  C   UNL d   1      46.429 -17.623  43.571  0.00  0.00     0.079 A 
ATOM      5  C   UNL d   1      46.425 -18.981  43.131  0.00  0.00     0.064 A 
ATOM      6  C   UNL d   1      46.484 -19.395  42.421  0.00  0.00     0.220 A 
ATOM      7  C   UNL d   1      46.334 -19.233  43.911  0.00  0.00     0.009 A 
ATOM      8  C   UNL d   1      46.338 -17.878  44.343  0.00  0.00     0.199 A 
ATOM      9  O   UNL d   1      46.463 -20.220  42.336  0.00  0.00    -0.284 OA
ATOM     10  C   UNL d   1      46.290 -18.679  44.520  0.00  0.00     0.042 A 
ATOM     11  O   UNL d   1      46.295 -17.323  44.952  0.00  0.00    -0.286 OA
ENDROOT
BRANCH   2  12
ATOM     12  C   UNL d   1      46.647 -19.025  41.004  0.00  0.00     0.028 C 
BRANCH  12  13
ATOM     13  C   UNL d   1      46.247 -18.573  40.438  0.00  0.00     0.002 A 
ATOM     14  C   UNL d   1      45.530 -18.842  40.133  0.00  0.00     0.000 A 
ATOM     15  C   UNL d   1      45.128 -18.397  39.570  0.00  0.00     0.000 A 
ATOM     16  C   UNL d   1      45.446 -17.675  39.309  0.00  0.00     0.000 A 
ATOM     17  C   UNL d   1      46.163 -17.406  39.615  0.00  0.00     0.000 A 
ATOM     18  C   UNL d   1      45.045 -17.227  38.745  0.00  0.00     0.000 C 
ATOM     19  C   UNL d   1      46.563 -17.858  40.180  0.00  0.00     0.000 A 
ENDBRANCH  12  13
ENDBRANCH   2  12
BRANCH   4  20
ATOM     20  C   UNL d   1      46.476 -16.824  43.402  0.00  0.00     0.086 C 
BRANCH  20  21
ATOM     21  N   UNL d   1      46.031 -16.223  43.769  0.00  0.00    -0.300 N 
ATOM     22  C   UNL d   1      46.399 -15.509  43.938  0.00  0.00     0.100 A 
ATOM     23  C   UNL d   1      45.967 -14.910  44.301  0.00  0.00     0.100 A 
ATOM     24  N   UNL d   1      45.182 -15.039  44.485  0.00  0.00    -0.299 N 
ATOM     25  C   UNL d   1      44.830 -15.756  44.310  0.00  0.00     0.100 A 
ATOM     26  C   UNL d   1      44.751 -14.447  44.845  0.00  0.00     0.100 C 
ATOM     27  C   UNL d   1      45.262 -16.344  43.952  0.00  0.00     0.100 A 
ENDBRANCH  20  21
ENDBRANCH   4  20
TORSDOF 4
ENDMDL
