MODEL 1
REMARK VINA RESULT:      -5.3      0.000      0.000
REMARK  6 active torsions:
REMARK  status: ('A' for Active; 'I' for Inactive)
REMARK       I    between atoms: C_3  and  N_1 
REMARK    1  A    between atoms: C_5  and  N_1 
REMARK    2  A    between atoms: C_2  and  C_3 
REMARK    3  A    between atoms: N_9  and  C_5 
REMARK    4  A    between atoms: C_13  and  N_9 
REMARK    5  A    between atoms: C_11  and  C_13 
REMARK    6  A    between atoms: C_15  and  C_11 
ROOT
ATOM      1  C   UNL d   1      58.191   0.021  29.950  0.00  0.00     0.224 C 
ATOM      2  S   UNL d   1      58.099   0.663  29.433  0.00  0.00    -0.037 SA
ENDROOT
BRANCH   1   3
ATOM      3  N   UNL d   1      58.345  -0.731  29.648  0.00  0.00    -0.177 NA
ATOM      4  C   UNL d   1      59.094  -0.900  29.328  0.00  0.00     0.304 C 
ATOM      5  O   UNL d   1      59.675  -0.327  29.314  0.00  0.00    -0.263 OA
BRANCH   4   6
ATOM      6  C   UNL d   1      59.247  -1.652  29.026  0.00  0.00     0.158 A 
ATOM      7  O   UNL d   1      58.702  -2.266  28.948  0.00  0.00    -0.296 OA
ATOM      8  C   UNL d   1      59.079  -2.913  28.626  0.00  0.00     0.134 A 
ATOM      9 BR   UNL d   1      58.742  -3.641  28.456  0.00  0.00    -0.022 Br
ATOM     10  C   UNL d   1      59.866  -2.705  28.500  0.00  0.00     0.034 A 
ATOM     11  C   UNL d   1      59.971  -1.918  28.749  0.00  0.00     0.032 A 
ENDBRANCH   4   6
ENDBRANCH   1   3
BRANCH   1  12
ATOM     12  N   UNL d   1      58.128   0.142  30.762  0.00  0.00    -0.212 NA
BRANCH  12  13
ATOM     13  C   UNL d   1      57.403   0.058  31.126  0.00  0.00     0.143 C 
BRANCH  13  14
ATOM     14  C   UNL d   1      57.328   0.233  31.927  0.00  0.00     0.215 C 
ATOM     15  O   UNL d   1      57.900   0.671  32.321  0.00  0.00    -0.285 OA
BRANCH  14  16
ATOM     16  C   UNL d   1      56.668  -0.033  32.352  0.00  0.00     0.041 A 
ATOM     17  C   UNL d   1      56.133   0.518  32.658  0.00  0.00     0.003 A 
ATOM     18  C   UNL d   1      55.473   0.262  33.082  0.00  0.00     0.000 A 
ATOM     19  C   UNL d   1      55.347  -0.551  33.201  0.00  0.00     0.000 A 
ATOM     20  C   UNL d   1      55.883  -1.102  32.895  0.00  0.00     0.000 A 
ATOM     21  C   UNL d   1      56.544  -0.840  32.470  0.00  0.00     0.003 A 
ENDBRANCH  14  16
ENDBRANCH  13  14
ENDBRANCH  12  13
ENDBRANCH   1  12
TORSDOF 6
ENDMDL
MODEL 2
REMARK VINA RESULT:      -4.8      1.812      4.864
REMARK  6 active torsions:
REMARK  status: ('A' for Active; 'I' for Inactive)
REMARK       I    between atoms: C_3  and  N_1 
REMARK    1  A    between atoms: C_5  and  N_1 
REMARK    2  A    between atoms: C_2  and  C_3 
REMARK    3  A    between atoms: N_9  and  C_5 
REMARK    4  A    between atoms: C_13  and  N_9 
REMARK    5  A    between atoms: C_11  and  C_13 
REMARK    6  A    between atoms: C_15  and  C_11 
ROOT
ATOM      1  C   UNL d   1      58.162  -0.028  30.599  0.00  0.00     0.224 C 
ATOM      2  S   UNL d   1      58.590   0.681  30.635  0.00  0.00    -0.037 SA
ENDROOT
BRANCH   1   3
ATOM      3  N   UNL d   1      57.723  -0.275  31.252  0.00  0.00    -0.177 NA
ATOM      4  C   UNL d   1      56.991   0.085  31.416  0.00  0.00     0.304 C 
ATOM      5  O   UNL d   1      56.708   0.680  30.935  0.00  0.00    -0.263 OA
BRANCH   4   6
ATOM      6  C   UNL d   1      56.553  -0.162  32.069  0.00  0.00     0.158 A 
ATOM      7  O   UNL d   1      56.245   0.322  32.661  0.00  0.00    -0.296 OA
ATOM      8  C   UNL d   1      55.849  -0.143  33.201  0.00  0.00     0.134 A 
ATOM      9 BR   UNL d   1      55.461   0.115  33.877  0.00  0.00    -0.022 Br
ATOM     10  C   UNL d   1      55.909  -0.925  32.949  0.00  0.00     0.034 A 
ATOM     11  C   UNL d   1      56.348  -0.937  32.242  0.00  0.00     0.032 A 
ENDBRANCH   4   6
ENDBRANCH   1   3
BRANCH   1  12
ATOM     12  N   UNL d   1      58.179  -0.478  29.910  0.00  0.00    -0.212 NA
BRANCH  12  13
ATOM     13  C   UNL d   1      58.866  -0.865  29.700  0.00  0.00     0.143 C 
BRANCH  13  14
ATOM     14  C   UNL d   1      58.865  -1.371  29.051  0.00  0.00     0.215 C 
ATOM     15  O   UNL d   1      58.299  -1.302  28.460  0.00  0.00    -0.285 OA
BRANCH  14  16
ATOM     16  C   UNL d   1      59.440  -1.965  28.984  0.00  0.00     0.041 A 
ATOM     17  C   UNL d   1      59.226  -2.754  29.107  0.00  0.00     0.003 A 
ATOM     18  C   UNL d   1      59.792  -3.351  29.042  0.00  0.00     0.000 A 
ATOM     19  C   UNL d   1      60.577  -3.157  28.853  0.00  0.00     0.000 A 
ATOM     20  C   UNL d   1      60.791  -2.368  28.730  0.00  0.00     0.000 A 
ATOM     21  C   UNL d   1      60.219  -1.772  28.796  0.00  0.00     0.003 A 
ENDBRANCH  14  16
ENDBRANCH  13  14
ENDBRANCH  12  13
ENDBRANCH   1  12
TORSDOF 6
ENDMDL
MODEL 3
REMARK VINA RESULT:      -4.6      1.010      1.202
REMARK  6 active torsions:
REMARK  status: ('A' for Active; 'I' for Inactive)
REMARK       I    between atoms: C_3  and  N_1 
REMARK    1  A    between atoms: C_5  and  N_1 
REMARK    2  A    between atoms: C_2  and  C_3 
REMARK    3  A    between atoms: N_9  and  C_5 
REMARK    4  A    between atoms: C_13  and  N_9 
REMARK    5  A    between atoms: C_11  and  C_13 
REMARK    6  A    between atoms: C_15  and  C_11 
ROOT
ATOM      1  C   UNL d   1      57.824  -0.207  30.605  0.00  0.00     0.224 C 
ATOM      2  S   UNL d   1      57.987   0.601  30.520  0.00  0.00    -0.037 SA
ENDROOT
BRANCH   1   3
ATOM      3  N   UNL d   1      58.321  -0.765  30.255  0.00  0.00    -0.177 NA
ATOM      4  C   UNL d   1      58.636  -0.619  29.500  0.00  0.00     0.304 C 
ATOM      5  O   UNL d   1      58.456   0.073  29.106  0.00  0.00    -0.263 OA
BRANCH   4   6
ATOM      6  C   UNL d   1      59.133  -1.176  29.151  0.00  0.00     0.158 A 
ATOM      7  O   UNL d   1      59.059  -1.996  29.206  0.00  0.00    -0.296 OA
ATOM      8  C   UNL d   1      59.662  -2.343  28.780  0.00  0.00     0.134 A 
ATOM      9 BR   UNL d   1      59.796  -3.147  28.688  0.00  0.00    -0.022 Br
ATOM     10  C   UNL d   1      60.118  -1.739  28.456  0.00  0.00     0.034 A 
ATOM     11  C   UNL d   1      59.788  -1.010  28.687  0.00  0.00     0.032 A 
ENDBRANCH   4   6
ENDBRANCH   1   3
BRANCH   1  12
ATOM     12  N   UNL d   1      57.166  -0.444  31.039  0.00  0.00    -0.212 NA
BRANCH  12  13
ATOM     13  C   UNL d   1      57.140  -0.300  31.842  0.00  0.00     0.143 C 
BRANCH  13  14
ATOM     14  C   UNL d   1      56.583  -0.690  32.306  0.00  0.00     0.215 C 
ATOM     15  O   UNL d   1      56.363  -1.464  32.146  0.00  0.00    -0.285 OA
BRANCH  14  16
ATOM     16  C   UNL d   1      56.232  -0.301  32.949  0.00  0.00     0.041 A 
ATOM     17  C   UNL d   1      55.413  -0.352  33.057  0.00  0.00     0.003 A 
ATOM     18  C   UNL d   1      55.056   0.031  33.694  0.00  0.00     0.000 A 
ATOM     19  C   UNL d   1      55.519   0.468  34.227  0.00  0.00     0.000 A 
ATOM     20  C   UNL d   1      56.338   0.519  34.119  0.00  0.00     0.000 A 
ATOM     21  C   UNL d   1      56.692   0.132  33.478  0.00  0.00     0.003 A 
ENDBRANCH  14  16
ENDBRANCH  13  14
ENDBRANCH  12  13
ENDBRANCH   1  12
TORSDOF 6
ENDMDL
