MODEL 1
REMARK VINA RESULT:      -9.3      0.000      0.000
REMARK  5 active torsions:
REMARK  status: ('A' for Active; 'I' for Inactive)
REMARK    1  A    between atoms: N_2  and  S_1 
REMARK    2  A    between atoms: C_4  and  S_1 
REMARK    3  A    between atoms: C_3  and  N_2 
REMARK       I    between atoms: C_6  and  N_2 
REMARK    4  A    between atoms: O_13  and  C_7 
REMARK    5  A    between atoms: C_14  and  O_13 
ROOT
ATOM      1  C   UNL d   1     -48.434  13.447  22.419  0.00  0.00     0.078 A 
ATOM      2  C   UNL d   1     -48.227  12.760  22.852  0.00  0.00     0.019 A 
ATOM      3  C   UNL d   1     -46.867  13.154  22.835  0.00  0.00     0.103 A 
ATOM      4  C   UNL d   1     -47.439  12.636  23.048  0.00  0.00     0.024 A 
ATOM      5  C   UNL d   1     -47.830  13.957  22.217  0.00  0.00     0.020 A 
ATOM      6  C   UNL d   1     -47.036  13.841  22.409  0.00  0.00     0.026 A 
ATOM      7  C   UNL d   1     -48.796  12.217  23.079  0.00  0.00     0.002 A 
ATOM      8  C   UNL d   1     -47.216  11.972  23.469  0.00  0.00     0.002 A 
ATOM      9  C   UNL d   1     -48.582  11.551  23.500  0.00  0.00     0.000 A 
ATOM     10  C   UNL d   1     -47.785  11.428  23.697  0.00  0.00     0.000 A 
ENDROOT
BRANCH   1  11
ATOM     11  N   UNL d   1     -49.219  13.576  22.221  0.00  0.00    -0.198 N 
ATOM     12  C   UNL d   1     -49.579  13.142  21.622  0.00  0.00     0.274 C 
ATOM     13  O   UNL d   1     -49.153  12.578  21.221  0.00  0.00    -0.266 OA
ATOM     14  C   UNL d   1     -50.334  13.097  21.258  0.00  0.00     0.067 C 
BRANCH  11  15
ATOM     15  S   UNL d   1     -49.653  14.169  22.648  0.00  0.00     0.279 S 
ATOM     16  O   UNL d   1     -49.243  14.742  22.194  0.00  0.00    -0.199 OA
ATOM     17  O   UNL d   1     -50.025  13.562  23.064  0.00  0.00    -0.199 OA
BRANCH  15  18
ATOM     18  C   UNL d   1     -50.062  14.745  23.050  0.00  0.00     0.133 A 
ATOM     19  S   UNL d   1     -49.771  15.478  23.306  0.00  0.00    -0.074 SA
ATOM     20  C   UNL d   1     -50.341  15.922  23.695  0.00  0.00     0.036 A 
ATOM     21  C   UNL d   1     -51.040  15.459  23.695  0.00  0.00     0.008 A 
ATOM     22  C   UNL d   1     -50.895  14.742  23.310  0.00  0.00     0.020 A 
ENDBRANCH  15  18
ENDBRANCH  11  15
ENDBRANCH   1  11
BRANCH   3  23
ATOM     23  O   UNL d   1     -46.038  13.004  23.053  0.00  0.00    -0.273 OA
BRANCH  23  24
ATOM     24  C   UNL d   1     -45.394  13.322  22.601  0.00  0.00     0.300 C 
ATOM     25  O   UNL d   1     -45.235  14.138  22.593  0.00  0.00    -0.259 OA
ATOM     26  C   UNL d   1     -44.837  12.749  22.092  0.00  0.00     0.074 C 
ENDBRANCH  23  24
ENDBRANCH   3  23
TORSDOF 5
ENDMDL
MODEL 2
REMARK VINA RESULT:      -6.4      1.678      2.998
REMARK  5 active torsions:
REMARK  status: ('A' for Active; 'I' for Inactive)
REMARK    1  A    between atoms: N_2  and  S_1 
REMARK    2  A    between atoms: C_4  and  S_1 
REMARK    3  A    between atoms: C_3  and  N_2 
REMARK       I    between atoms: C_6  and  N_2 
REMARK    4  A    between atoms: O_13  and  C_7 
REMARK    5  A    between atoms: C_14  and  O_13 
ROOT
ATOM      1  C   UNL d   1     -46.930  12.820  22.990  0.00  0.00     0.078 A 
ATOM      2  C   UNL d   1     -46.186  12.933  22.621  0.00  0.00     0.019 A 
ATOM      3  C   UNL d   1     -45.672  11.803  23.302  0.00  0.00     0.103 A 
ATOM      4  C   UNL d   1     -45.574  12.413  22.793  0.00  0.00     0.024 A 
ATOM      5  C   UNL d   1     -47.000  12.191  23.503  0.00  0.00     0.020 A 
ATOM      6  C   UNL d   1     -46.391  11.663  23.682  0.00  0.00     0.026 A 
ATOM      7  C   UNL d   1     -46.064  13.550  22.097  0.00  0.00     0.002 A 
ATOM      8  C   UNL d   1     -44.841  12.506  22.444  0.00  0.00     0.002 A 
ATOM      9  C   UNL d   1     -45.334  13.650  21.744  0.00  0.00     0.000 A 
ATOM     10  C   UNL d   1     -44.718  13.123  21.919  0.00  0.00     0.000 A 
ENDROOT
BRANCH   1  11
ATOM     11  N   UNL d   1     -47.544  13.337  22.822  0.00  0.00    -0.198 N 
ATOM     12  C   UNL d   1     -47.493  14.132  23.026  0.00  0.00     0.274 C 
ATOM     13  O   UNL d   1     -46.827  14.412  23.399  0.00  0.00    -0.266 OA
ATOM     14  C   UNL d   1     -47.971  14.820  22.961  0.00  0.00     0.067 C 
BRANCH  11  15
ATOM     15  S   UNL d   1     -48.235  13.033  22.432  0.00  0.00     0.279 S 
ATOM     16  O   UNL d   1     -48.505  12.785  23.187  0.00  0.00    -0.199 OA
ATOM     17  O   UNL d   1     -47.920  13.298  21.719  0.00  0.00    -0.199 OA
BRANCH  15  18
ATOM     18  C   UNL d   1     -48.900  12.737  22.071  0.00  0.00     0.133 A 
ATOM     19  S   UNL d   1     -49.597  12.478  22.440  0.00  0.00    -0.074 SA
ATOM     20  C   UNL d   1     -50.156  12.214  21.901  0.00  0.00     0.036 A 
ATOM     21  C   UNL d   1     -49.812  12.303  21.142  0.00  0.00     0.008 A 
ATOM     22  C   UNL d   1     -49.051  12.618  21.220  0.00  0.00     0.020 A 
ENDBRANCH  15  18
ENDBRANCH  11  15
ENDBRANCH   1  11
BRANCH   3  23
ATOM     23  O   UNL d   1     -45.011  11.263  23.470  0.00  0.00    -0.273 OA
BRANCH  23  24
ATOM     24  C   UNL d   1     -45.136  10.436  23.613  0.00  0.00     0.300 C 
ATOM     25  O   UNL d   1     -45.902  10.124  23.698  0.00  0.00    -0.259 OA
ATOM     26  C   UNL d   1     -44.398   9.845  23.678  0.00  0.00     0.074 C 
ENDBRANCH  23  24
ENDBRANCH   3  23
TORSDOF 5
ENDMDL
