MODEL 1
REMARK VINA RESULT:      -7.0      0.000      0.000
REMARK  2 active torsions:
REMARK  status: ('A' for Active; 'I' for Inactive)
REMARK    1  A    between atoms: C_6  and  N_2 
REMARK    2  A    between atoms: C_4  and  C_6 
ROOT
ATOM      1  C   UNL d   1      52.796  31.753  53.013  0.00  0.00     0.206 A 
ATOM      2  N   UNL d   1      53.275  32.301  53.393  0.00  0.00    -0.277 N 
ATOM      3  N   UNL d   1      52.158  32.164  52.679  0.00  0.00    -0.215 NA
ATOM      4  C   UNL d   1      52.253  32.968  52.859  0.00  0.00     0.120 A 
ATOM      5  C   UNL d   1      52.944  33.053  53.301  0.00  0.00     0.103 A 
ATOM      6  S   UNL d   1      52.924  30.939  52.969  0.00  0.00    -0.038 SA
ENDROOT
BRANCH   2   7
ATOM      7  C   UNL d   1      53.975  32.132  53.802  0.00  0.00     0.107 C 
BRANCH   7   8
ATOM      8  C   UNL d   1      54.252  32.652  54.380  0.00  0.00     0.118 A 
ATOM      9  O   UNL d   1      53.991  32.694  55.166  0.00  0.00    -0.304 OA
ATOM     10  C   UNL d   1      54.415  33.288  55.542  0.00  0.00     0.123 A 
ATOM     11  C   UNL d   1      54.938  33.617  54.995  0.00  0.00     0.029 A 
ATOM     12  C   UNL d   1      54.835  33.223  54.279  0.00  0.00     0.028 A 
ENDBRANCH   7   8
ENDBRANCH   2   7
TORSDOF 2
ENDMDL
MODEL 2
REMARK VINA RESULT:      -6.4      1.645      2.807
REMARK  2 active torsions:
REMARK  status: ('A' for Active; 'I' for Inactive)
REMARK    1  A    between atoms: C_6  and  N_2 
REMARK    2  A    between atoms: C_4  and  C_6 
ROOT
ATOM      1  C   UNL d   1      53.667  32.548  54.146  0.00  0.00     0.206 A 
ATOM      2  N   UNL d   1      53.080  32.853  53.659  0.00  0.00    -0.277 N 
ATOM      3  N   UNL d   1      53.831  31.776  53.891  0.00  0.00    -0.215 NA
ATOM      4  C   UNL d   1      53.339  31.613  53.244  0.00  0.00     0.120 A 
ATOM      5  C   UNL d   1      52.874  32.279  53.100  0.00  0.00     0.103 A 
ATOM      6  S   UNL d   1      54.030  32.937  54.777  0.00  0.00    -0.038 SA
ENDROOT
BRANCH   2   7
ATOM      7  C   UNL d   1      52.748  33.609  53.716  0.00  0.00     0.107 C 
BRANCH   7   8
ATOM      8  C   UNL d   1      52.020  33.767  53.359  0.00  0.00     0.118 A 
ATOM      9  O   UNL d   1      51.281  33.484  53.609  0.00  0.00    -0.304 OA
ATOM     10  C   UNL d   1      50.712  33.779  53.096  0.00  0.00     0.123 A 
ATOM     11  C   UNL d   1      51.091  34.243  52.529  0.00  0.00     0.029 A 
ATOM     12  C   UNL d   1      51.898  34.234  52.694  0.00  0.00     0.028 A 
ENDBRANCH   7   8
ENDBRANCH   2   7
TORSDOF 2
ENDMDL
MODEL 3
REMARK VINA RESULT:      -6.3      1.774      2.689
REMARK  2 active torsions:
REMARK  status: ('A' for Active; 'I' for Inactive)
REMARK    1  A    between atoms: C_6  and  N_2 
REMARK    2  A    between atoms: C_4  and  C_6 
ROOT
ATOM      1  C   UNL d   1      54.169  33.739  54.736  0.00  0.00     0.206 A 
ATOM      2  N   UNL d   1      53.797  33.337  54.123  0.00  0.00    -0.277 N 
ATOM      3  N   UNL d   1      53.656  34.337  54.993  0.00  0.00    -0.215 NA
ATOM      4  C   UNL d   1      52.968  34.296  54.532  0.00  0.00     0.120 A 
ATOM      5  C   UNL d   1      53.055  33.677  53.994  0.00  0.00     0.103 A 
ATOM      6  S   UNL d   1      54.919  33.579  55.042  0.00  0.00    -0.038 SA
ENDROOT
BRANCH   2   7
ATOM      7  C   UNL d   1      54.111  32.696  53.703  0.00  0.00     0.107 C 
BRANCH   7   8
ATOM      8  C   UNL d   1      53.612  32.100  53.425  0.00  0.00     0.118 A 
ATOM      9  O   UNL d   1      53.081  32.164  52.791  0.00  0.00    -0.304 OA
ATOM     10  C   UNL d   1      52.700  31.442  52.707  0.00  0.00     0.123 A 
ATOM     11  C   UNL d   1      52.989  30.929  53.285  0.00  0.00     0.029 A 
ATOM     12  C   UNL d   1      53.552  31.338  53.726  0.00  0.00     0.028 A 
ENDBRANCH   7   8
ENDBRANCH   2   7
TORSDOF 2
ENDMDL
