MODEL 1
REMARK VINA RESULT:      -9.3      0.000      0.000
REMARK  4 active torsions:
REMARK  status: ('A' for Active; 'I' for Inactive)
REMARK    1  A    between atoms: C_2  and  C_1 
REMARK    2  A    between atoms: C_15  and  C_8 
REMARK    3  A    between atoms: C_9  and  C_15 
REMARK    4  A    between atoms: C_18  and  C_10 
ROOT
ATOM      1  C   UNL d   1      50.041  34.399  52.409  0.00  0.00     0.094 A 
ATOM      2  N   UNL d   1      50.078  33.699  52.844  0.00  0.00    -0.238 NA
ATOM      3  C   UNL d   1      50.833  33.379  52.705  0.00  0.00     0.113 A 
ATOM      4  S   UNL d   1      51.259  33.883  52.184  0.00  0.00    -0.066 SA
ATOM      5  C   UNL d   1      50.755  34.510  52.011  0.00  0.00     0.056 A 
ENDROOT
BRANCH   3   6
ATOM      6  C   UNL d   1      51.120  32.687  53.020  0.00  0.00     0.051 C 
BRANCH   6   7
ATOM      7  C   UNL d   1      51.903  32.620  53.236  0.00  0.00     0.113 A 
ATOM      8  N   UNL d   1      52.384  33.090  53.727  0.00  0.00    -0.238 NA
ATOM      9  C   UNL d   1      53.148  32.748  53.745  0.00  0.00     0.088 A 
ATOM     10  C   UNL d   1      53.113  32.079  53.265  0.00  0.00     0.056 A 
ATOM     11  S   UNL d   1      52.371  31.993  52.956  0.00  0.00    -0.066 SA
BRANCH   9  12
ATOM     12  C   UNL d   1      53.787  33.039  54.163  0.00  0.00     0.018 A 
ATOM     13  C   UNL d   1      54.440  33.322  53.788  0.00  0.00     0.002 A 
ATOM     14  C   UNL d   1      55.080  33.613  54.212  0.00  0.00     0.000 A 
ATOM     15  C   UNL d   1      55.048  33.613  55.029  0.00  0.00     0.000 A 
ATOM     16  C   UNL d   1      54.392  33.329  55.411  0.00  0.00     0.000 A 
ATOM     17  C   UNL d   1      55.705  33.912  55.458  0.00  0.00     0.000 C 
ATOM     18  C   UNL d   1      53.762  33.042  54.983  0.00  0.00     0.002 A 
ENDBRANCH   9  12
ENDBRANCH   6   7
ENDBRANCH   3   6
BRANCH   1  19
ATOM     19  C   UNL d   1      49.342  34.855  52.435  0.00  0.00     0.082 A 
ATOM     20  C   UNL d   1      48.800  34.892  51.749  0.00  0.00     0.302 A 
ATOM     21  O   UNL d   1      48.113  35.349  51.794  0.00  0.00    -0.273 OA
ATOM     22  O   UNL d   1      48.954  34.465  51.016  0.00  0.00    -0.259 OA
ATOM     23  C   UNL d   1      47.933  35.777  52.493  0.00  0.00     0.103 A 
ATOM     24  C   UNL d   1      48.443  35.744  53.140  0.00  0.00     0.023 A 
ATOM     25  C   UNL d   1      47.237  36.223  52.500  0.00  0.00     0.025 A 
ATOM     26  C   UNL d   1      49.146  35.286  53.115  0.00  0.00     0.009 A 
ATOM     27  C   UNL d   1      48.259  36.173  53.834  0.00  0.00     0.002 A 
ATOM     28  C   UNL d   1      47.572  36.630  53.879  0.00  0.00     0.000 A 
ATOM     29  C   UNL d   1      47.057  36.650  53.194  0.00  0.00     0.002 A 
ENDBRANCH   1  19
TORSDOF 4
ENDMDL
MODEL 2
REMARK VINA RESULT:      -9.2      2.484      6.002
REMARK  4 active torsions:
REMARK  status: ('A' for Active; 'I' for Inactive)
REMARK    1  A    between atoms: C_2  and  C_1 
REMARK    2  A    between atoms: C_15  and  C_8 
REMARK    3  A    between atoms: C_9  and  C_15 
REMARK    4  A    between atoms: C_18  and  C_10 
ROOT
ATOM      1  C   UNL d   1      53.833  31.851  53.757  0.00  0.00     0.094 A 
ATOM      2  N   UNL d   1      53.356  32.409  54.135  0.00  0.00    -0.238 NA
ATOM      3  C   UNL d   1      53.743  33.140  54.050  0.00  0.00     0.113 A 
ATOM      4  S   UNL d   1      54.457  33.030  53.619  0.00  0.00    -0.066 SA
ATOM      5  C   UNL d   1      54.497  32.227  53.446  0.00  0.00     0.056 A 
ENDROOT
BRANCH   3   6
ATOM      6  C   UNL d   1      53.478  33.853  54.335  0.00  0.00     0.051 C 
BRANCH   6   7
ATOM      7  C   UNL d   1      52.849  34.235  53.986  0.00  0.00     0.113 A 
ATOM      8  N   UNL d   1      52.211  33.950  53.532  0.00  0.00    -0.238 NA
ATOM      9  C   UNL d   1      51.732  34.604  53.320  0.00  0.00     0.088 A 
ATOM     10  C   UNL d   1      52.090  35.269  53.649  0.00  0.00     0.056 A 
ATOM     11  S   UNL d   1      52.760  35.059  54.050  0.00  0.00    -0.066 SA
BRANCH   9  12
ATOM     12  C   UNL d   1      51.049  34.565  52.873  0.00  0.00     0.018 A 
ATOM     13  C   UNL d   1      50.332  34.753  53.186  0.00  0.00     0.002 A 
ATOM     14  C   UNL d   1      49.648  34.712  52.733  0.00  0.00     0.000 A 
ATOM     15  C   UNL d   1      49.701  34.477  51.953  0.00  0.00     0.000 A 
ATOM     16  C   UNL d   1      50.422  34.286  51.633  0.00  0.00     0.000 A 
ATOM     17  C   UNL d   1      49.000  34.437  51.495  0.00  0.00     0.000 C 
ATOM     18  C   UNL d   1      51.095  34.329  52.088  0.00  0.00     0.002 A 
ENDBRANCH   9  12
ENDBRANCH   6   7
ENDBRANCH   3   6
BRANCH   1  19
ATOM     19  C   UNL d   1      53.590  31.051  53.747  0.00  0.00     0.082 A 
ATOM     20  C   UNL d   1      53.195  30.708  53.047  0.00  0.00     0.302 A 
ATOM     21  O   UNL d   1      52.962  29.915  53.056  0.00  0.00    -0.273 OA
ATOM     22  O   UNL d   1      53.034  31.167  52.336  0.00  0.00    -0.259 OA
ATOM     23  C   UNL d   1      53.103  29.439  53.733  0.00  0.00     0.103 A 
ATOM     24  C   UNL d   1      53.475  29.762  54.394  0.00  0.00     0.023 A 
ATOM     25  C   UNL d   1      52.856  28.650  53.705  0.00  0.00     0.025 A 
ATOM     26  C   UNL d   1      53.719  30.565  54.405  0.00  0.00     0.009 A 
ATOM     27  C   UNL d   1      53.613  29.283  55.066  0.00  0.00     0.002 A 
ATOM     28  C   UNL d   1      53.380  28.490  55.075  0.00  0.00     0.000 A 
ATOM     29  C   UNL d   1      52.995  28.176  54.377  0.00  0.00     0.002 A 
ENDBRANCH   1  19
TORSDOF 4
ENDMDL
MODEL 3
REMARK VINA RESULT:      -9.0      2.130      6.046
REMARK  4 active torsions:
REMARK  status: ('A' for Active; 'I' for Inactive)
REMARK    1  A    between atoms: C_2  and  C_1 
REMARK    2  A    between atoms: C_15  and  C_8 
REMARK    3  A    between atoms: C_9  and  C_15 
REMARK    4  A    between atoms: C_18  and  C_10 
ROOT
ATOM      1  C   UNL d   1      52.494  33.118  53.223  0.00  0.00     0.094 A 
ATOM      2  N   UNL d   1      52.092  33.263  52.516  0.00  0.00    -0.238 NA
ATOM      3  C   UNL d   1      51.805  34.042  52.569  0.00  0.00     0.113 A 
ATOM      4  S   UNL d   1      52.030  34.374  53.308  0.00  0.00    -0.066 SA
ATOM      5  C   UNL d   1      52.455  33.789  53.701  0.00  0.00     0.056 A 
ENDROOT
BRANCH   3   6
ATOM      6  C   UNL d   1      51.373  34.427  51.999  0.00  0.00     0.051 C 
BRANCH   6   7
ATOM      7  C   UNL d   1      50.573  34.550  52.092  0.00  0.00     0.113 A 
ATOM      8  N   UNL d   1      50.147  35.116  52.531  0.00  0.00    -0.238 NA
ATOM      9  C   UNL d   1      49.331  34.972  52.417  0.00  0.00     0.088 A 
ATOM     10  C   UNL d   1      49.279  34.323  51.911  0.00  0.00     0.056 A 
ATOM     11  S   UNL d   1      50.018  34.063  51.711  0.00  0.00    -0.066 SA
BRANCH   9  12
ATOM     12  C   UNL d   1      48.723  35.403  52.751  0.00  0.00     0.018 A 
ATOM     13  C   UNL d   1      48.731  35.608  53.529  0.00  0.00     0.002 A 
ATOM     14  C   UNL d   1      48.117  36.042  53.860  0.00  0.00     0.000 A 
ATOM     15  C   UNL d   1      47.490  36.267  53.388  0.00  0.00     0.000 A 
ATOM     16  C   UNL d   1      47.477  36.062  52.602  0.00  0.00     0.000 A 
ATOM     17  C   UNL d   1      46.865  36.709  53.731  0.00  0.00     0.000 C 
ATOM     18  C   UNL d   1      48.088  35.633  52.283  0.00  0.00     0.002 A 
ENDBRANCH   9  12
ENDBRANCH   6   7
ENDBRANCH   3   6
BRANCH   1  19
ATOM     19  C   UNL d   1      52.850  32.372  53.340  0.00  0.00     0.082 A 
ATOM     20  C   UNL d   1      53.694  32.304  53.562  0.00  0.00     0.302 A 
ATOM     21  O   UNL d   1      54.029  31.557  53.674  0.00  0.00    -0.273 OA
ATOM     22  O   UNL d   1      54.199  32.993  53.672  0.00  0.00    -0.259 OA
ATOM     23  C   UNL d   1      53.565  30.864  53.575  0.00  0.00     0.103 A 
ATOM     24  C   UNL d   1      52.770  30.927  53.365  0.00  0.00     0.023 A 
ATOM     25  C   UNL d   1      53.935  30.135  53.695  0.00  0.00     0.025 A 
ATOM     26  C   UNL d   1      52.410  31.677  53.247  0.00  0.00     0.009 A 
ATOM     27  C   UNL d   1      52.311  30.234  53.268  0.00  0.00     0.002 A 
ATOM     28  C   UNL d   1      52.647  29.486  53.379  0.00  0.00     0.000 A 
ATOM     29  C   UNL d   1      53.475  29.446  53.597  0.00  0.00     0.002 A 
ENDBRANCH   1  19
TORSDOF 4
ENDMDL
MODEL 4
REMARK VINA RESULT:      -9.0      1.299      1.893
REMARK  4 active torsions:
REMARK  status: ('A' for Active; 'I' for Inactive)
REMARK    1  A    between atoms: C_2  and  C_1 
REMARK    2  A    between atoms: C_15  and  C_8 
REMARK    3  A    between atoms: C_9  and  C_15 
REMARK    4  A    between atoms: C_18  and  C_10 
ROOT
ATOM      1  C   UNL d   1      49.643  34.722  52.361  0.00  0.00     0.094 A 
ATOM      2  N   UNL d   1      50.351  35.007  52.674  0.00  0.00    -0.238 NA
ATOM      3  C   UNL d   1      50.945  34.484  52.417  0.00  0.00     0.113 A 
ATOM      4  S   UNL d   1      50.600  33.879  51.947  0.00  0.00    -0.066 SA
ATOM      5  C   UNL d   1      49.794  34.041  51.922  0.00  0.00     0.056 A 
ENDROOT
BRANCH   3   6
ATOM      6  C   UNL d   1      51.736  34.544  52.591  0.00  0.00     0.051 C 
BRANCH   6   7
ATOM      7  C   UNL d   1      52.126  33.940  52.975  0.00  0.00     0.113 A 
ATOM      8  N   UNL d   1      52.228  33.136  52.784  0.00  0.00    -0.238 NA
ATOM      9  C   UNL d   1      52.683  32.781  53.389  0.00  0.00     0.088 A 
ATOM     10  C   UNL d   1      52.848  33.377  53.934  0.00  0.00     0.056 A 
ATOM     11  S   UNL d   1      52.519  34.075  53.695  0.00  0.00    -0.066 SA
BRANCH   9  12
ATOM     12  C   UNL d   1      52.908  31.996  53.414  0.00  0.00     0.018 A 
ATOM     13  C   UNL d   1      53.576  31.762  53.796  0.00  0.00     0.002 A 
ATOM     14  C   UNL d   1      53.798  30.972  53.819  0.00  0.00     0.000 A 
ATOM     15  C   UNL d   1      53.329  30.417  53.446  0.00  0.00     0.000 A 
ATOM     16  C   UNL d   1      52.654  30.647  53.059  0.00  0.00     0.000 A 
ATOM     17  C   UNL d   1      53.560  29.611  53.471  0.00  0.00     0.000 C 
ATOM     18  C   UNL d   1      52.442  31.432  53.042  0.00  0.00     0.002 A 
ENDBRANCH   9  12
ENDBRANCH   6   7
ENDBRANCH   3   6
BRANCH   1  19
ATOM     19  C   UNL d   1      48.934  35.134  52.522  0.00  0.00     0.082 A 
ATOM     20  C   UNL d   1      48.315  35.225  51.911  0.00  0.00     0.302 A 
ATOM     21  O   UNL d   1      47.621  35.635  52.090  0.00  0.00    -0.273 OA
ATOM     22  O   UNL d   1      48.398  34.899  51.118  0.00  0.00    -0.259 OA
ATOM     23  C   UNL d   1      47.507  35.965  52.854  0.00  0.00     0.103 A 
ATOM     24  C   UNL d   1      48.090  35.880  53.431  0.00  0.00     0.023 A 
ATOM     25  C   UNL d   1      46.800  36.369  52.996  0.00  0.00     0.025 A 
ATOM     26  C   UNL d   1      48.802  35.467  53.269  0.00  0.00     0.009 A 
ATOM     27  C   UNL d   1      47.973  36.211  54.190  0.00  0.00     0.002 A 
ATOM     28  C   UNL d   1      47.278  36.622  54.369  0.00  0.00     0.000 A 
ATOM     29  C   UNL d   1      46.685  36.698  53.754  0.00  0.00     0.002 A 
ENDBRANCH   1  19
TORSDOF 4
ENDMDL
MODEL 5
REMARK VINA RESULT:      -8.9      1.731      2.907
REMARK  4 active torsions:
REMARK  status: ('A' for Active; 'I' for Inactive)
REMARK    1  A    between atoms: C_2  and  C_1 
REMARK    2  A    between atoms: C_15  and  C_8 
REMARK    3  A    between atoms: C_9  and  C_15 
REMARK    4  A    between atoms: C_18  and  C_10 
ROOT
ATOM      1  C   UNL d   1      51.967  34.652  53.316  0.00  0.00     0.094 A 
ATOM      2  N   UNL d   1      52.209  33.980  53.731  0.00  0.00    -0.238 NA
ATOM      3  C   UNL d   1      52.921  34.186  54.109  0.00  0.00     0.113 A 
ATOM      4  S   UNL d   1      53.115  34.984  53.927  0.00  0.00    -0.066 SA
ATOM      5  C   UNL d   1      52.514  35.258  53.435  0.00  0.00     0.056 A 
ENDROOT
BRANCH   3   6
ATOM      6  C   UNL d   1      53.364  33.698  54.583  0.00  0.00     0.051 C 
BRANCH   6   7
ATOM      7  C   UNL d   1      53.572  32.950  54.334  0.00  0.00     0.113 A 
ATOM      8  N   UNL d   1      53.121  32.258  54.224  0.00  0.00    -0.238 NA
ATOM      9  C   UNL d   1      53.635  31.653  53.958  0.00  0.00     0.088 A 
ATOM     10  C   UNL d   1      54.385  31.992  53.912  0.00  0.00     0.056 A 
ATOM     11  S   UNL d   1      54.358  32.768  54.136  0.00  0.00    -0.066 SA
BRANCH   9  12
ATOM     12  C   UNL d   1      53.414  30.886  53.784  0.00  0.00     0.018 A 
ATOM     13  C   UNL d   1      53.514  30.290  54.314  0.00  0.00     0.002 A 
ATOM     14  C   UNL d   1      53.290  29.521  54.135  0.00  0.00     0.000 A 
ATOM     15  C   UNL d   1      52.961  29.363  53.404  0.00  0.00     0.000 A 
ATOM     16  C   UNL d   1      52.858  29.961  52.866  0.00  0.00     0.000 A 
ATOM     17  C   UNL d   1      52.734  28.575  53.226  0.00  0.00     0.000 C 
ATOM     18  C   UNL d   1      53.082  30.720  53.052  0.00  0.00     0.002 A 
ENDBRANCH   9  12
ENDBRANCH   6   7
ENDBRANCH   3   6
BRANCH   1  19
ATOM     19  C   UNL d   1      51.260  34.621  52.873  0.00  0.00     0.082 A 
ATOM     20  C   UNL d   1      51.249  34.292  52.062  0.00  0.00     0.302 A 
ATOM     21  O   UNL d   1      50.539  34.269  51.640  0.00  0.00    -0.273 OA
ATOM     22  O   UNL d   1      51.957  33.985  51.679  0.00  0.00    -0.259 OA
ATOM     23  C   UNL d   1      49.830  34.560  51.984  0.00  0.00     0.103 A 
ATOM     24  C   UNL d   1      49.840  34.870  52.748  0.00  0.00     0.023 A 
ATOM     25  C   UNL d   1      49.140  34.520  51.530  0.00  0.00     0.025 A 
ATOM     26  C   UNL d   1      50.550  34.902  53.194  0.00  0.00     0.009 A 
ATOM     27  C   UNL d   1      49.131  35.158  53.086  0.00  0.00     0.002 A 
ATOM     28  C   UNL d   1      48.421  35.135  52.663  0.00  0.00     0.000 A 
ATOM     29  C   UNL d   1      48.435  34.809  51.871  0.00  0.00     0.002 A 
ENDBRANCH   1  19
TORSDOF 4
ENDMDL
MODEL 6
REMARK VINA RESULT:      -8.8      1.658      5.829
REMARK  4 active torsions:
REMARK  status: ('A' for Active; 'I' for Inactive)
REMARK    1  A    between atoms: C_2  and  C_1 
REMARK    2  A    between atoms: C_15  and  C_8 
REMARK    3  A    between atoms: C_9  and  C_15 
REMARK    4  A    between atoms: C_18  and  C_10 
ROOT
ATOM      1  C   UNL d   1      51.551  33.393  53.044  0.00  0.00     0.094 A 
ATOM      2  N   UNL d   1      51.401  34.062  52.583  0.00  0.00    -0.238 NA
ATOM      3  C   UNL d   1      50.601  34.015  52.361  0.00  0.00     0.113 A 
ATOM      4  S   UNL d   1      50.260  33.319  52.686  0.00  0.00    -0.066 SA
ATOM      5  C   UNL d   1      50.861  32.946  53.106  0.00  0.00     0.056 A 
ENDROOT
BRANCH   3   6
ATOM      6  C   UNL d   1      50.204  34.556  51.902  0.00  0.00     0.051 C 
BRANCH   6   7
ATOM      7  C   UNL d   1      49.481  34.851  52.134  0.00  0.00     0.113 A 
ATOM      8  N   UNL d   1      49.217  35.161  52.861  0.00  0.00    -0.238 NA
ATOM      9  C   UNL d   1      48.414  35.380  52.773  0.00  0.00     0.088 A 
ATOM     10  C   UNL d   1      48.209  35.198  51.996  0.00  0.00     0.056 A 
ATOM     11  S   UNL d   1      48.841  34.880  51.605  0.00  0.00    -0.066 SA
BRANCH   9  12
ATOM     12  C   UNL d   1      47.946  35.708  53.357  0.00  0.00     0.018 A 
ATOM     13  C   UNL d   1      47.143  35.690  53.311  0.00  0.00     0.002 A 
ATOM     14  C   UNL d   1      46.677  36.021  53.900  0.00  0.00     0.000 A 
ATOM     15  C   UNL d   1      47.039  36.373  54.543  0.00  0.00     0.000 A 
ATOM     16  C   UNL d   1      47.849  36.393  54.594  0.00  0.00     0.000 A 
ATOM     17  C   UNL d   1      46.558  36.709  55.142  0.00  0.00     0.000 C 
ATOM     18  C   UNL d   1      48.303  36.063  54.006  0.00  0.00     0.002 A 
ENDBRANCH   9  12
ENDBRANCH   6   7
ENDBRANCH   3   6
BRANCH   1  19
ATOM     19  C   UNL d   1      52.318  33.280  53.354  0.00  0.00     0.082 A 
ATOM     20  C   UNL d   1      52.823  32.621  53.080  0.00  0.00     0.302 A 
ATOM     21  O   UNL d   1      53.579  32.525  53.399  0.00  0.00    -0.273 OA
ATOM     22  O   UNL d   1      52.563  32.058  52.481  0.00  0.00    -0.259 OA
ATOM     23  C   UNL d   1      53.864  33.055  53.984  0.00  0.00     0.103 A 
ATOM     24  C   UNL d   1      53.389  33.677  54.243  0.00  0.00     0.023 A 
ATOM     25  C   UNL d   1      54.626  32.927  54.279  0.00  0.00     0.025 A 
ATOM     26  C   UNL d   1      52.618  33.792  53.932  0.00  0.00     0.009 A 
ATOM     27  C   UNL d   1      53.677  34.203  54.826  0.00  0.00     0.002 A 
ATOM     28  C   UNL d   1      54.434  34.106  55.146  0.00  0.00     0.000 A 
ATOM     29  C   UNL d   1      54.910  33.453  54.861  0.00  0.00     0.002 A 
ENDBRANCH   1  19
TORSDOF 4
ENDMDL
MODEL 7
REMARK VINA RESULT:      -7.9      1.144      1.799
REMARK  4 active torsions:
REMARK  status: ('A' for Active; 'I' for Inactive)
REMARK    1  A    between atoms: C_2  and  C_1 
REMARK    2  A    between atoms: C_15  and  C_8 
REMARK    3  A    between atoms: C_9  and  C_15 
REMARK    4  A    between atoms: C_18  and  C_10 
ROOT
ATOM      1  C   UNL d   1      49.045  35.250  52.886  0.00  0.00     0.094 A 
ATOM      2  N   UNL d   1      49.489  34.902  52.283  0.00  0.00    -0.238 NA
ATOM      3  C   UNL d   1      50.178  34.608  52.644  0.00  0.00     0.113 A 
ATOM      4  S   UNL d   1      50.156  34.775  53.468  0.00  0.00    -0.066 SA
ATOM      5  C   UNL d   1      49.448  35.172  53.601  0.00  0.00     0.056 A 
ENDROOT
BRANCH   3   6
ATOM      6  C   UNL d   1      50.782  34.218  52.266  0.00  0.00     0.051 C 
BRANCH   6   7
ATOM      7  C   UNL d   1      51.364  33.837  52.690  0.00  0.00     0.113 A 
ATOM      8  N   UNL d   1      52.032  34.124  53.097  0.00  0.00    -0.238 NA
ATOM      9  C   UNL d   1      52.433  33.470  53.431  0.00  0.00     0.088 A 
ATOM     10  C   UNL d   1      52.000  32.801  53.220  0.00  0.00     0.056 A 
ATOM     11  S   UNL d   1      51.358  33.010  52.776  0.00  0.00    -0.066 SA
BRANCH   9  12
ATOM     12  C   UNL d   1      53.117  33.511  53.876  0.00  0.00     0.018 A 
ATOM     13  C   UNL d   1      53.185  34.020  54.496  0.00  0.00     0.002 A 
ATOM     14  C   UNL d   1      53.874  34.057  54.940  0.00  0.00     0.000 A 
ATOM     15  C   UNL d   1      54.499  33.569  54.746  0.00  0.00     0.000 A 
ATOM     16  C   UNL d   1      54.436  33.054  54.122  0.00  0.00     0.000 A 
ATOM     17  C   UNL d   1      55.202  33.611  55.203  0.00  0.00     0.000 C 
ATOM     18  C   UNL d   1      53.749  33.023  53.687  0.00  0.00     0.002 A 
ENDBRANCH   9  12
ENDBRANCH   6   7
ENDBRANCH   3   6
BRANCH   1  19
ATOM     19  C   UNL d   1      48.311  35.601  52.697  0.00  0.00     0.082 A 
ATOM     20  C   UNL d   1      48.013  36.294  53.140  0.00  0.00     0.302 A 
ATOM     21  O   UNL d   1      47.285  36.627  52.937  0.00  0.00    -0.273 OA
ATOM     22  O   UNL d   1      48.454  36.651  53.788  0.00  0.00    -0.259 OA
ATOM     23  C   UNL d   1      46.829  36.304  52.311  0.00  0.00     0.103 A 
ATOM     24  C   UNL d   1      47.109  35.650  51.893  0.00  0.00     0.023 A 
ATOM     25  C   UNL d   1      46.105  36.664  52.138  0.00  0.00     0.025 A 
ATOM     26  C   UNL d   1      47.846  35.297  52.082  0.00  0.00     0.009 A 
ATOM     27  C   UNL d   1      46.651  35.331  51.269  0.00  0.00     0.002 A 
ATOM     28  C   UNL d   1      45.922  35.665  51.067  0.00  0.00     0.000 A 
ATOM     29  C   UNL d   1      45.652  36.344  51.515  0.00  0.00     0.002 A 
ENDBRANCH   1  19
TORSDOF 4
ENDMDL
MODEL 8
REMARK VINA RESULT:      -6.8     10.927     12.079
REMARK  4 active torsions:
REMARK  status: ('A' for Active; 'I' for Inactive)
REMARK    1  A    between atoms: C_2  and  C_1 
REMARK    2  A    between atoms: C_15  and  C_8 
REMARK    3  A    between atoms: C_9  and  C_15 
REMARK    4  A    between atoms: C_18  and  C_10 
ROOT
ATOM      1  C   UNL d   1      44.984  26.375  57.241  0.00  0.00     0.094 A 
ATOM      2  N   UNL d   1      44.392  26.888  57.503  0.00  0.00    -0.238 NA
ATOM      3  C   UNL d   1      44.702  27.656  57.429  0.00  0.00     0.113 A 
ATOM      4  S   UNL d   1      45.484  27.615  57.122  0.00  0.00    -0.066 SA
ATOM      5  C   UNL d   1      45.643  26.815  57.011  0.00  0.00     0.056 A 
ENDROOT
BRANCH   3   6
ATOM      6  C   UNL d   1      44.315  28.344  57.622  0.00  0.00     0.051 C 
BRANCH   6   7
ATOM      7  C   UNL d   1      44.372  28.660  58.371  0.00  0.00     0.113 A 
ATOM      8  N   UNL d   1      44.368  28.304  59.124  0.00  0.00    -0.238 NA
ATOM      9  C   UNL d   1      44.446  28.910  59.697  0.00  0.00     0.088 A 
ATOM     10  C   UNL d   1      44.496  29.618  59.278  0.00  0.00     0.056 A 
ATOM     11  S   UNL d   1      44.453  29.479  58.483  0.00  0.00    -0.066 SA
BRANCH   9  12
ATOM     12  C   UNL d   1      44.466  28.797  60.506  0.00  0.00     0.018 A 
ATOM     13  C   UNL d   1      44.539  29.415  61.014  0.00  0.00     0.002 A 
ATOM     14  C   UNL d   1      44.559  29.297  61.827  0.00  0.00     0.000 A 
ATOM     15  C   UNL d   1      44.502  28.536  62.119  0.00  0.00     0.000 A 
ATOM     16  C   UNL d   1      44.428  27.908  61.609  0.00  0.00     0.000 A 
ATOM     17  C   UNL d   1      44.523  28.420  62.949  0.00  0.00     0.000 C 
ATOM     18  C   UNL d   1      44.410  28.035  60.806  0.00  0.00     0.002 A 
ENDBRANCH   9  12
ENDBRANCH   6   7
ENDBRANCH   3   6
BRANCH   1  19
ATOM     19  C   UNL d   1      44.840  25.553  57.247  0.00  0.00     0.082 A 
ATOM     20  C   UNL d   1      44.734  25.107  56.502  0.00  0.00     0.302 A 
ATOM     21  O   UNL d   1      44.591  24.294  56.528  0.00  0.00    -0.273 OA
ATOM     22  O   UNL d   1      44.772  25.485  55.728  0.00  0.00    -0.259 OA
ATOM     23  C   UNL d   1      44.548  23.894  57.265  0.00  0.00     0.103 A 
ATOM     24  C   UNL d   1      44.647  24.313  57.968  0.00  0.00     0.023 A 
ATOM     25  C   UNL d   1      44.404  23.080  57.252  0.00  0.00     0.025 A 
ATOM     26  C   UNL d   1      44.793  25.140  57.963  0.00  0.00     0.009 A 
ATOM     27  C   UNL d   1      44.603  23.910  58.700  0.00  0.00     0.002 A 
ATOM     28  C   UNL d   1      44.460  23.096  58.726  0.00  0.00     0.000 A 
ATOM     29  C   UNL d   1      44.360  22.681  57.983  0.00  0.00     0.002 A 
ENDBRANCH   1  19
TORSDOF 4
ENDMDL
