MODEL 1
REMARK VINA RESULT:      -2.8      0.000      0.000
REMARK  7 active torsions:
REMARK  status: ('A' for Active; 'I' for Inactive)
REMARK    1  A    between atoms: S_3  and  N_12 
REMARK    2  A    between atoms: C_16  and  S_3 
REMARK    3  A    between atoms: C_17  and  C_7 
REMARK    4  A    between atoms: O_19  and  C_8 
REMARK    5  A    between atoms: O_20  and  C_11 
REMARK    6  A    between atoms: N_12  and  C_18 
REMARK    7  A    between atoms: C_18  and  C_17 
ROOT
ATOM      1  N   UNL d   1      32.591  21.463 -20.798  0.00  0.00    -0.206 NA
ATOM      2  C   UNL d   1      32.912  21.982 -22.088  0.00  0.00     0.042 A 
ATOM      3  C   UNL d   1      32.660  22.102 -21.312  0.00  0.00     0.109 A 
ATOM      4  C   UNL d   1      33.096  21.223 -22.354  0.00  0.00     0.008 A 
ATOM      5  C   UNL d   1      32.774  20.696 -21.058  0.00  0.00     0.279 A 
ATOM      6  C   UNL d   1      33.026  20.576 -21.834  0.00  0.00     0.060 A 
ATOM      7  C   UNL d   1      32.982  22.622 -22.603  0.00  0.00     0.096 A 
ATOM      8  C   UNL d   1      32.478  22.861 -21.050  0.00  0.00     0.112 A 
ATOM      9  O   UNL d   1      32.704  20.056 -20.544  0.00  0.00    -0.265 OA
ATOM     10  C   UNL d   1      32.799  23.380 -22.340  0.00  0.00     0.026 A 
ATOM     11  C   UNL d   1      32.547  23.500 -21.564  0.00  0.00     0.028 A 
ENDROOT
BRANCH   6  12
ATOM     12  C   UNL d   1      33.209  19.813 -22.096  0.00  0.00     0.026 C 
BRANCH  12  13
ATOM     13  C   UNL d   1      32.888  19.533 -22.800  0.00  0.00     0.112 C 
BRANCH  13  14
ATOM     14  N   UNL d   1      33.063  18.768 -23.054  0.00  0.00    -0.157 NA
BRANCH  14  15
ATOM     15  S   UNL d   1      32.700  18.475 -23.737  0.00  0.00     0.286 S 
ATOM     16  O   UNL d   1      32.462  18.313 -24.511  0.00  0.00    -0.198 OA
ATOM     17  O   UNL d   1      33.241  19.036 -24.009  0.00  0.00    -0.198 OA
BRANCH  15  18
ATOM     18  C   UNL d   1      32.164  17.917 -23.446  0.00  0.00     0.117 C 
ATOM     19  C   UNL d   1      32.152  17.153 -23.754  0.00  0.00     0.014 C 
ENDBRANCH  15  18
ENDBRANCH  14  15
ENDBRANCH  13  14
ENDBRANCH  12  13
ENDBRANCH   6  12
BRANCH   7  20
ATOM     20  O   UNL d   1      33.231  22.503 -23.372  0.00  0.00    -0.328 OA
ATOM     21  C   UNL d   1      33.135  23.103 -23.933  0.00  0.00     0.181 C 
ENDBRANCH   7  20
BRANCH   8  22
ATOM     22  O   UNL d   1      32.226  22.981 -20.274  0.00  0.00    -0.327 OA
ATOM     23  C   UNL d   1      32.462  23.664 -19.863  0.00  0.00     0.181 C 
ENDBRANCH   8  22
TORSDOF 7
ENDMDL
MODEL 2
REMARK VINA RESULT:      -1.8      1.414      2.574
REMARK  7 active torsions:
REMARK  status: ('A' for Active; 'I' for Inactive)
REMARK    1  A    between atoms: S_3  and  N_12 
REMARK    2  A    between atoms: C_16  and  S_3 
REMARK    3  A    between atoms: C_17  and  C_7 
REMARK    4  A    between atoms: O_19  and  C_8 
REMARK    5  A    between atoms: O_20  and  C_11 
REMARK    6  A    between atoms: N_12  and  C_18 
REMARK    7  A    between atoms: C_18  and  C_17 
ROOT
ATOM      1  N   UNL d   1      33.224  21.038 -23.681  0.00  0.00    -0.206 NA
ATOM      2  C   UNL d   1      33.231  20.343 -22.435  0.00  0.00     0.042 A 
ATOM      3  C   UNL d   1      33.226  21.051 -22.858  0.00  0.00     0.109 A 
ATOM      4  C   UNL d   1      33.233  19.619 -22.831  0.00  0.00     0.008 A 
ATOM      5  C   UNL d   1      33.226  20.315 -24.088  0.00  0.00     0.279 A 
ATOM      6  C   UNL d   1      33.231  19.607 -23.664  0.00  0.00     0.060 A 
ATOM      7  C   UNL d   1      33.233  20.355 -21.611  0.00  0.00     0.096 A 
ATOM      8  C   UNL d   1      33.224  21.770 -22.458  0.00  0.00     0.112 A 
ATOM      9  O   UNL d   1      33.224  20.302 -24.911  0.00  0.00    -0.265 OA
ATOM     10  C   UNL d   1      33.230  21.075 -21.212  0.00  0.00     0.026 A 
ATOM     11  C   UNL d   1      33.226  21.782 -21.636  0.00  0.00     0.028 A 
ENDROOT
BRANCH   6  12
ATOM     12  C   UNL d   1      33.233  18.884 -24.067  0.00  0.00     0.026 C 
BRANCH  12  13
ATOM     13  C   UNL d   1      32.771  18.260 -23.794  0.00  0.00     0.112 C 
BRANCH  13  14
ATOM     14  N   UNL d   1      32.531  17.670 -24.316  0.00  0.00    -0.157 NA
BRANCH  14  15
ATOM     15  S   UNL d   1      31.985  17.102 -24.062  0.00  0.00     0.286 S 
ATOM     16  O   UNL d   1      31.602  16.458 -23.716  0.00  0.00    -0.198 OA
ATOM     17  O   UNL d   1      32.702  16.871 -23.726  0.00  0.00    -0.198 OA
BRANCH  15  18
ATOM     18  C   UNL d   1      31.275  17.349 -24.409  0.00  0.00     0.117 C 
ATOM     19  C   UNL d   1      30.584  16.918 -24.290  0.00  0.00     0.014 C 
ENDBRANCH  15  18
ENDBRANCH  14  15
ENDBRANCH  13  14
ENDBRANCH  12  13
ENDBRANCH   6  12
BRANCH   7  20
ATOM     20  O   UNL d   1      33.237  19.654 -21.191  0.00  0.00    -0.328 OA
ATOM     21  C   UNL d   1      33.228  19.668 -20.364  0.00  0.00     0.181 C 
ENDBRANCH   7  20
BRANCH   8  22
ATOM     22  O   UNL d   1      33.219  22.478 -22.882  0.00  0.00    -0.327 OA
ATOM     23  C   UNL d   1      33.108  23.198 -22.482  0.00  0.00     0.181 C 
ENDBRANCH   8  22
TORSDOF 7
ENDMDL
MODEL 3
REMARK VINA RESULT:      -1.5      1.542      4.458
REMARK  7 active torsions:
REMARK  status: ('A' for Active; 'I' for Inactive)
REMARK    1  A    between atoms: S_3  and  N_12 
REMARK    2  A    between atoms: C_16  and  S_3 
REMARK    3  A    between atoms: C_17  and  C_7 
REMARK    4  A    between atoms: O_19  and  C_8 
REMARK    5  A    between atoms: O_20  and  C_11 
REMARK    6  A    between atoms: N_12  and  C_18 
REMARK    7  A    between atoms: C_18  and  C_17 
ROOT
ATOM      1  N   UNL d   1      33.101  18.277 -22.099  0.00  0.00    -0.206 NA
ATOM      2  C   UNL d   1      33.167  19.092 -23.269  0.00  0.00     0.042 A 
ATOM      3  C   UNL d   1      33.117  18.347 -22.919  0.00  0.00     0.109 A 
ATOM      4  C   UNL d   1      33.202  19.771 -22.801  0.00  0.00     0.008 A 
ATOM      5  C   UNL d   1      33.135  18.955 -21.621  0.00  0.00     0.279 A 
ATOM      6  C   UNL d   1      33.185  19.700 -21.971  0.00  0.00     0.060 A 
ATOM      7  C   UNL d   1      33.184  19.163 -24.089  0.00  0.00     0.096 A 
ATOM      8  C   UNL d   1      33.083  17.672 -23.390  0.00  0.00     0.112 A 
ATOM      9  O   UNL d   1      33.118  18.885 -20.801  0.00  0.00    -0.265 OA
ATOM     10  C   UNL d   1      33.150  18.488 -24.559  0.00  0.00     0.026 A 
ATOM     11  C   UNL d   1      33.100  17.742 -24.209  0.00  0.00     0.028 A 
ENDROOT
BRANCH   6  12
ATOM     12  C   UNL d   1      33.219  20.377 -21.497  0.00  0.00     0.026 C 
BRANCH  12  13
ATOM     13  C   UNL d   1      32.642  20.960 -21.571  0.00  0.00     0.112 C 
BRANCH  13  14
ATOM     14  N   UNL d   1      32.714  21.663 -21.148  0.00  0.00    -0.157 NA
BRANCH  14  15
ATOM     15  S   UNL d   1      32.092  22.209 -21.160  0.00  0.00     0.286 S 
ATOM     16  O   UNL d   1      31.389  22.624 -21.041  0.00  0.00    -0.198 OA
ATOM     17  O   UNL d   1      31.847  21.621 -20.636  0.00  0.00    -0.198 OA
BRANCH  15  18
ATOM     18  C   UNL d   1      32.356  22.788 -21.689  0.00  0.00     0.117 C 
ATOM     19  C   UNL d   1      32.094  23.566 -21.616  0.00  0.00     0.014 C 
ENDBRANCH  15  18
ENDBRANCH  14  15
ENDBRANCH  13  14
ENDBRANCH  12  13
ENDBRANCH   6  12
BRANCH   7  20
ATOM     20  O   UNL d   1      33.234  19.901 -24.436  0.00  0.00    -0.328 OA
ATOM     21  C   UNL d   1      32.762  20.082 -25.091  0.00  0.00     0.181 C 
ENDBRANCH   7  20
BRANCH   8  22
ATOM     22  O   UNL d   1      33.033  16.927 -23.040  0.00  0.00    -0.327 OA
ATOM     23  C   UNL d   1      32.966  16.250 -23.517  0.00  0.00     0.181 C 
ENDBRANCH   8  22
TORSDOF 7
ENDMDL
MODEL 4
REMARK VINA RESULT:      -0.4      3.351      5.587
REMARK  7 active torsions:
REMARK  status: ('A' for Active; 'I' for Inactive)
REMARK    1  A    between atoms: S_3  and  N_12 
REMARK    2  A    between atoms: C_16  and  S_3 
REMARK    3  A    between atoms: C_17  and  C_7 
REMARK    4  A    between atoms: O_19  and  C_8 
REMARK    5  A    between atoms: O_20  and  C_11 
REMARK    6  A    between atoms: N_12  and  C_18 
REMARK    7  A    between atoms: C_18  and  C_17 
ROOT
ATOM      1  N   UNL d   1      31.293  18.114 -24.482  0.00  0.00    -0.206 NA
ATOM      2  C   UNL d   1      31.969  17.019 -23.864  0.00  0.00     0.042 A 
ATOM      3  C   UNL d   1      31.942  17.817 -24.073  0.00  0.00     0.109 A 
ATOM      4  C   UNL d   1      31.347  16.515 -24.063  0.00  0.00     0.008 A 
ATOM      5  C   UNL d   1      30.663  17.613 -24.687  0.00  0.00     0.279 A 
ATOM      6  C   UNL d   1      30.690  16.815 -24.478  0.00  0.00     0.060 A 
ATOM      7  C   UNL d   1      32.619  16.721 -23.454  0.00  0.00     0.096 A 
ATOM      8  C   UNL d   1      32.565  18.316 -23.872  0.00  0.00     0.112 A 
ATOM      9  O   UNL d   1      30.013  17.910 -25.096  0.00  0.00    -0.265 OA
ATOM     10  C   UNL d   1      33.241  17.221 -23.254  0.00  0.00     0.026 A 
ATOM     11  C   UNL d   1      33.214  18.019 -23.463  0.00  0.00     0.028 A 
ENDROOT
BRANCH   6  12
ATOM     12  C   UNL d   1      30.063  16.314 -24.680  0.00  0.00     0.026 C 
BRANCH  12  13
ATOM     13  C   UNL d   1      29.559  16.030 -24.095  0.00  0.00     0.112 C 
BRANCH  13  14
ATOM     14  N   UNL d   1      28.896  15.588 -24.304  0.00  0.00    -0.157 NA
BRANCH  14  15
ATOM     15  S   UNL d   1      28.221  15.618 -23.827  0.00  0.00     0.286 S 
ATOM     16  O   UNL d   1      27.454  15.612 -23.524  0.00  0.00    -0.198 OA
ATOM     17  O   UNL d   1      27.936  15.469 -24.586  0.00  0.00    -0.198 OA
BRANCH  15  18
ATOM     18  C   UNL d   1      28.527  15.768 -23.072  0.00  0.00     0.117 C 
ATOM     19  C   UNL d   1      28.146  15.472 -22.404  0.00  0.00     0.014 C 
ENDBRANCH  15  18
ENDBRANCH  14  15
ENDBRANCH  13  14
ENDBRANCH  12  13
ENDBRANCH   6  12
BRANCH   7  20
ATOM     20  O   UNL d   1      32.645  15.931 -23.247  0.00  0.00    -0.328 OA
ATOM     21  C   UNL d   1      33.185  15.673 -22.677  0.00  0.00     0.181 C 
ENDBRANCH   7  20
BRANCH   8  22
ATOM     22  O   UNL d   1      32.538  19.114 -24.082  0.00  0.00    -0.327 OA
ATOM     23  C   UNL d   1      32.935  19.676 -23.616  0.00  0.00     0.181 C 
ENDBRANCH   8  22
TORSDOF 7
ENDMDL
