MODEL 1
REMARK VINA RESULT:      -9.0      0.000      0.000
REMARK  9 active torsions:
REMARK  status: ('A' for Active; 'I' for Inactive)
REMARK    1  A    between atoms: C_8  and  N_1 
REMARK    2  A    between atoms: C_6  and  C_2 
REMARK    3  A    between atoms: O_12  and  C_11 
REMARK    4  A    between atoms: C_18  and  O_12 
REMARK    5  A    between atoms: C_14  and  C_18 
REMARK    6  A    between atoms: C_16  and  C_14 
REMARK    7  A    between atoms: N_15  and  C_16 
REMARK    8  A    between atoms: C_23  and  N_15 
REMARK    9  A    between atoms: C_24  and  N_15 
ROOT
ATOM      1  N   UNL d   1      53.475  32.954  53.912  0.00  0.00    -0.306 N 
ATOM      2  C   UNL d   1      52.714  32.040  53.178  0.00  0.00     0.057 A 
ATOM      3  C   UNL d   1      53.428  32.115  53.683  0.00  0.00     0.067 A 
ATOM      4  C   UNL d   1      52.807  33.368  53.552  0.00  0.00     0.064 A 
ATOM      5  C   UNL d   1      52.358  32.828  53.118  0.00  0.00     0.023 A 
ATOM      6  C   UNL d   1      52.584  34.142  53.580  0.00  0.00     0.020 A 
ATOM      7  C   UNL d   1      51.697  33.076  52.724  0.00  0.00     0.026 A 
ATOM      8  C   UNL d   1      51.475  33.855  52.755  0.00  0.00     0.100 A 
ATOM      9  C   UNL d   1      53.943  31.516  53.895  0.00  0.00     0.019 C 
ATOM     10  C   UNL d   1      51.925  34.395  53.188  0.00  0.00     0.026 A 
ENDROOT
BRANCH   8  11
ATOM     11  O   UNL d   1      50.776  34.147  52.345  0.00  0.00    -0.302 OA
BRANCH  11  12
ATOM     12  C   UNL d   1      50.201  34.563  52.728  0.00  0.00     0.166 C 
BRANCH  12  13
ATOM     13  C   UNL d   1      49.427  34.704  52.373  0.00  0.00     0.238 C 
ATOM     14  O   UNL d   1      49.331  34.540  51.517  0.00  0.00    -0.283 OA
BRANCH  13  15
ATOM     15  C   UNL d   1      48.802  34.979  52.805  0.00  0.00     0.125 C 
BRANCH  15  16
ATOM     16  N   UNL d   1      48.268  35.579  52.499  0.00  0.00    -0.300 N 
BRANCH  16  17
ATOM     17  C   UNL d   1      47.853  35.688  51.763  0.00  0.00     0.080 C 
ATOM     18  C   UNL d   1      47.174  36.104  51.943  0.00  0.00     0.021 C 
ENDBRANCH  16  17
BRANCH  16  19
ATOM     19  C   UNL d   1      48.051  36.228  52.939  0.00  0.00     0.080 C 
ATOM     20  C   UNL d   1      48.056  36.218  53.798  0.00  0.00     0.021 C 
ENDBRANCH  16  19
ENDBRANCH  15  16
ENDBRANCH  13  15
ENDBRANCH  12  13
ENDBRANCH  11  12
ENDBRANCH   8  11
BRANCH   2  21
ATOM     21  C   UNL d   1      52.485  31.329  52.855  0.00  0.00     0.197 C 
ATOM     22  O   UNL d   1      52.727  30.993  52.067  0.00  0.00    -0.286 OA
ATOM     23  C   UNL d   1      51.979  30.928  53.356  0.00  0.00     0.045 C 
ENDBRANCH   2  21
BRANCH   1  24
ATOM     24  C   UNL d   1      54.072  33.235  54.386  0.00  0.00     0.064 A 
ATOM     25  C   UNL d   1      54.063  33.317  55.232  0.00  0.00     0.018 A 
ATOM     26  C   UNL d   1      54.731  33.620  55.664  0.00  0.00     0.002 A 
ATOM     27  C   UNL d   1      55.409  33.844  55.253  0.00  0.00     0.000 A 
ATOM     28  C   UNL d   1      55.471  33.784  54.422  0.00  0.00     0.002 A 
ATOM     29  C   UNL d   1      54.805  33.481  53.986  0.00  0.00     0.018 A 
ENDBRANCH   1  24
TORSDOF 9
ENDMDL
MODEL 2
REMARK VINA RESULT:      -7.8      1.142      2.265
REMARK  9 active torsions:
REMARK  status: ('A' for Active; 'I' for Inactive)
REMARK    1  A    between atoms: C_8  and  N_1 
REMARK    2  A    between atoms: C_6  and  C_2 
REMARK    3  A    between atoms: O_12  and  C_11 
REMARK    4  A    between atoms: C_18  and  O_12 
REMARK    5  A    between atoms: C_14  and  C_18 
REMARK    6  A    between atoms: C_16  and  C_14 
REMARK    7  A    between atoms: N_15  and  C_16 
REMARK    8  A    between atoms: C_23  and  N_15 
REMARK    9  A    between atoms: C_24  and  N_15 
ROOT
ATOM      1  N   UNL d   1      52.931  32.720  53.755  0.00  0.00    -0.306 N 
ATOM      2  C   UNL d   1      52.983  34.070  54.117  0.00  0.00     0.057 A 
ATOM      3  C   UNL d   1      53.402  33.303  54.199  0.00  0.00     0.067 A 
ATOM      4  C   UNL d   1      52.249  33.130  53.417  0.00  0.00     0.064 A 
ATOM      5  C   UNL d   1      52.280  33.927  53.630  0.00  0.00     0.023 A 
ATOM      6  C   UNL d   1      51.641  32.862  52.961  0.00  0.00     0.020 A 
ATOM      7  C   UNL d   1      51.702  34.435  53.383  0.00  0.00     0.026 A 
ATOM      8  C   UNL d   1      51.091  34.162  52.925  0.00  0.00     0.100 A 
ATOM      9  C   UNL d   1      54.095  33.166  54.611  0.00  0.00     0.019 C 
ATOM     10  C   UNL d   1      51.061  33.365  52.711  0.00  0.00     0.026 A 
ENDROOT
BRANCH   8  11
ATOM     11  O   UNL d   1      50.462  34.680  52.647  0.00  0.00    -0.302 OA
BRANCH  11  12
ATOM     12  C   UNL d   1      49.705  34.613  52.917  0.00  0.00     0.166 C 
BRANCH  12  13
ATOM     13  C   UNL d   1      49.069  35.117  52.622  0.00  0.00     0.238 C 
ATOM     14  O   UNL d   1      48.787  34.986  51.802  0.00  0.00    -0.283 OA
BRANCH  13  15
ATOM     15  C   UNL d   1      48.735  35.695  53.079  0.00  0.00     0.125 C 
BRANCH  15  16
ATOM     16  N   UNL d   1      47.921  35.947  52.967  0.00  0.00    -0.300 N 
BRANCH  16  17
ATOM     17  C   UNL d   1      47.410  36.026  52.290  0.00  0.00     0.080 C 
ATOM     18  C   UNL d   1      46.735  36.401  52.556  0.00  0.00     0.021 C 
ENDBRANCH  16  17
BRANCH  16  19
ATOM     19  C   UNL d   1      47.453  36.181  53.589  0.00  0.00     0.080 C 
ATOM     20  C   UNL d   1      47.761  36.655  54.237  0.00  0.00     0.021 C 
ENDBRANCH  16  19
ENDBRANCH  15  16
ENDBRANCH  13  15
ENDBRANCH  12  13
ENDBRANCH  11  12
ENDBRANCH   8  11
BRANCH   2  21
ATOM     21  C   UNL d   1      53.260  34.755  54.461  0.00  0.00     0.197 C 
ATOM     22  O   UNL d   1      53.132  35.025  55.299  0.00  0.00    -0.286 OA
ATOM     23  C   UNL d   1      53.693  35.197  53.928  0.00  0.00     0.045 C 
ENDBRANCH   2  21
BRANCH   1  24
ATOM     24  C   UNL d   1      53.151  31.941  53.707  0.00  0.00     0.064 A 
ATOM     25  C   UNL d   1      53.025  31.332  54.288  0.00  0.00     0.018 A 
ATOM     26  C   UNL d   1      53.285  30.532  54.168  0.00  0.00     0.002 A 
ATOM     27  C   UNL d   1      53.673  30.334  53.468  0.00  0.00     0.000 A 
ATOM     28  C   UNL d   1      53.823  30.892  52.864  0.00  0.00     0.002 A 
ATOM     29  C   UNL d   1      53.563  31.696  52.981  0.00  0.00     0.018 A 
ENDBRANCH   1  24
TORSDOF 9
ENDMDL
