MODEL 1
REMARK VINA RESULT:      -4.8      0.000      0.000
REMARK  2 active torsions:
REMARK  status: ('A' for Active; 'I' for Inactive)
REMARK    1  A    between atoms: C_4  and  C_1 
REMARK    2  A    between atoms: N_6  and  C_5 
ROOT
ATOM      1  C   UNL d   1      57.290   0.017  31.239  0.00  0.00     0.024 A 
ATOM      2  C   UNL d   1      56.244  -0.373  32.457  0.00  0.00     0.064 A 
ATOM      3  C   UNL d   1      57.132  -0.777  31.416  0.00  0.00     0.004 A 
ATOM      4  C   UNL d   1      56.923   0.615  31.673  0.00  0.00     0.004 A 
ATOM      5  C   UNL d   1      56.611  -0.971  32.022  0.00  0.00     0.018 A 
ATOM      6  C   UNL d   1      56.398   0.419  32.285  0.00  0.00     0.018 A 
ENDROOT
BRANCH   1   7
ATOM      7  C   UNL d   1      57.809   0.214  30.635  0.00  0.00     0.111 A 
ATOM      8  N   UNL d   1      57.713   0.085  29.833  0.00  0.00    -0.237 NA
ATOM      9  C   UNL d   1      58.386   0.381  29.458  0.00  0.00     0.106 A 
ATOM     10  C   UNL d   1      58.877   0.681  30.013  0.00  0.00     0.058 A 
ATOM     11  S   UNL d   1      58.526   0.581  30.740  0.00  0.00    -0.066 SA
ENDBRANCH   1   7
BRANCH   2  12
ATOM     12  N   UNL d   1      55.726  -0.594  33.060  0.00  0.00    -0.301 N 
ATOM     13  C   UNL d   1      55.605  -1.392  33.208  0.00  0.00     0.100 C 
ATOM     14  C   UNL d   1      55.340  -0.024  33.502  0.00  0.00     0.100 C 
ENDBRANCH   2  12
TORSDOF 2
ENDMDL
MODEL 2
REMARK VINA RESULT:      -4.6      1.389      3.541
REMARK  2 active torsions:
REMARK  status: ('A' for Active; 'I' for Inactive)
REMARK    1  A    between atoms: C_4  and  C_1 
REMARK    2  A    between atoms: N_6  and  C_5 
ROOT
ATOM      1  C   UNL d   1      56.122   0.090  32.800  0.00  0.00     0.024 A 
ATOM      2  C   UNL d   1      57.062  -0.300  31.499  0.00  0.00     0.064 A 
ATOM      3  C   UNL d   1      56.523   0.682  32.383  0.00  0.00     0.004 A 
ATOM      4  C   UNL d   1      56.192  -0.697  32.564  0.00  0.00     0.004 A 
ATOM      5  C   UNL d   1      56.992   0.488  31.735  0.00  0.00     0.018 A 
ATOM      6  C   UNL d   1      56.664  -0.893  31.910  0.00  0.00     0.018 A 
ENDROOT
BRANCH   1   7
ATOM      7  C   UNL d   1      55.654   0.280  33.447  0.00  0.00     0.111 A 
ATOM      8  N   UNL d   1      54.837   0.291  33.485  0.00  0.00    -0.237 NA
ATOM      9  C   UNL d   1      54.634   0.517  34.253  0.00  0.00     0.106 A 
ATOM     10  C   UNL d   1      55.305   0.640  34.669  0.00  0.00     0.058 A 
ATOM     11  S   UNL d   1      55.937   0.495  34.177  0.00  0.00    -0.066 SA
ENDBRANCH   1   7
BRANCH   2  12
ATOM     12  N   UNL d   1      57.538  -0.468  30.845  0.00  0.00    -0.301 N 
ATOM     13  C   UNL d   1      57.769  -1.243  30.712  0.00  0.00     0.100 C 
ATOM     14  C   UNL d   1      57.773   0.131  30.340  0.00  0.00     0.100 C 
ENDBRANCH   2  12
TORSDOF 2
ENDMDL
