MODEL 1
REMARK VINA RESULT:      -7.7      0.000      0.000
REMARK  5 active torsions:
REMARK  status: ('A' for Active; 'I' for Inactive)
REMARK    1  A    between atoms: S_4  and  N_1 
REMARK    2  A    between atoms: C_2  and  C_5 
REMARK    3  A    between atoms: C_12  and  C_7 
REMARK    4  A    between atoms: O_26  and  C_24 
REMARK    5  A    between atoms: C_27  and  O_26 
ROOT
ATOM      1  C   UNL d   1     -47.611  13.087  22.873  0.00  0.00     0.076 A 
ATOM      2  C   UNL d   1     -46.901  13.485  22.767  0.00  0.00     0.281 A 
ATOM      3  C   UNL d   1     -47.611  12.301  23.126  0.00  0.00     0.008 A 
ATOM      4  N   UNL d   1     -46.185  13.100  22.912  0.00  0.00    -0.208 NA
ATOM      5  C   UNL d   1     -46.182  12.308  23.167  0.00  0.00     0.087 A 
ATOM      6  C   UNL d   1     -46.892  11.911  23.274  0.00  0.00     0.018 A 
ATOM      7  C   UNL d   1     -45.466  11.923  23.312  0.00  0.00     0.044 A 
ATOM      8  O   UNL d   1     -46.482  14.169  22.559  0.00  0.00    -0.265 OA
ATOM      9  C   UNL d   1     -46.892  11.124  23.526  0.00  0.00     0.004 A 
ATOM     10  C   UNL d   1     -45.495  11.184  23.549  0.00  0.00     0.102 A 
ATOM     11  C   UNL d   1     -46.205  10.786  23.656  0.00  0.00     0.025 A 
ENDROOT
BRANCH   1  12
ATOM     12  C   UNL d   1     -48.327  13.474  22.728  0.00  0.00     0.101 A 
ATOM     13  N   UNL d   1     -48.790  13.392  22.068  0.00  0.00    -0.155 N 
ATOM     14  N   UNL d   1     -49.448  13.873  22.149  0.00  0.00    -0.153 NA
ATOM     15  C   UNL d   1     -49.383  14.254  22.869  0.00  0.00     0.126 A 
ATOM     16  C   UNL d   1     -48.690  14.013  23.237  0.00  0.00     0.043 A 
BRANCH  13  17
ATOM     17  S   UNL d   1     -48.626  12.907  21.429  0.00  0.00     0.266 S 
ATOM     18  O   UNL d   1     -48.311  13.565  21.006  0.00  0.00    -0.203 OA
ATOM     19  O   UNL d   1     -48.928  12.247  21.820  0.00  0.00    -0.203 OA
ATOM     20  C   UNL d   1     -48.449  12.421  20.757  0.00  0.00     0.165 C 
ENDBRANCH  13  17
BRANCH  15  21
ATOM     21  C   UNL d   1     -49.917  14.787  23.177  0.00  0.00     0.119 A 
ATOM     22  O   UNL d   1     -50.721  14.646  23.332  0.00  0.00    -0.304 OA
ATOM     23  C   UNL d   1     -51.044  15.331  23.636  0.00  0.00     0.123 A 
ATOM     24  C   UNL d   1     -50.443  15.922  23.679  0.00  0.00     0.029 A 
ATOM     25  C   UNL d   1     -49.754  15.560  23.388  0.00  0.00     0.028 A 
ENDBRANCH  15  21
ENDBRANCH   1  12
BRANCH  10  26
ATOM     26  O   UNL d   1     -44.800  10.785  23.698  0.00  0.00    -0.305 OA
BRANCH  26  27
ATOM     27  C   UNL d   1     -44.107  11.115  22.839  0.00  0.00     0.123 C 
ATOM     28  C   UNL d   1     -43.279  10.999  22.883  0.00  0.00     0.029 C 
ENDBRANCH  26  27
ENDBRANCH  10  26
TORSDOF 5
ENDMDL
MODEL 2
REMARK VINA RESULT:      -5.8      8.922     10.632
REMARK  5 active torsions:
REMARK  status: ('A' for Active; 'I' for Inactive)
REMARK    1  A    between atoms: S_4  and  N_1 
REMARK    2  A    between atoms: C_2  and  C_5 
REMARK    3  A    between atoms: C_12  and  C_7 
REMARK    4  A    between atoms: O_26  and  C_24 
REMARK    5  A    between atoms: C_27  and  O_26 
ROOT
ATOM      1  C   UNL d   1     -38.725  14.503  18.675  0.00  0.00     0.076 A 
ATOM      2  C   UNL d   1     -38.651  13.789  19.073  0.00  0.00     0.281 A 
ATOM      3  C   UNL d   1     -38.626  15.214  19.082  0.00  0.00     0.008 A 
ATOM      4  N   UNL d   1     -38.478  13.780  19.881  0.00  0.00    -0.208 NA
ATOM      5  C   UNL d   1     -38.379  14.496  20.293  0.00  0.00     0.087 A 
ATOM      6  C   UNL d   1     -38.453  15.210  19.895  0.00  0.00     0.018 A 
ATOM      7  C   UNL d   1     -38.207  14.487  21.101  0.00  0.00     0.044 A 
ATOM      8  O   UNL d   1     -38.663  12.960  19.074  0.00  0.00    -0.265 OA
ATOM      9  C   UNL d   1     -38.355  15.922  20.302  0.00  0.00     0.004 A 
ATOM     10  C   UNL d   1     -38.120  15.171  21.458  0.00  0.00     0.102 A 
ATOM     11  C   UNL d   1     -38.193  15.886  21.060  0.00  0.00     0.025 A 
ENDROOT
BRANCH   1  12
ATOM     12  C   UNL d   1     -38.897  14.510  17.867  0.00  0.00     0.101 A 
ATOM     13  N   UNL d   1     -39.618  14.665  17.533  0.00  0.00    -0.155 N 
ATOM     14  N   UNL d   1     -39.546  14.614  16.718  0.00  0.00    -0.153 NA
ATOM     15  C   UNL d   1     -38.767  14.425  16.555  0.00  0.00     0.126 A 
ATOM     16  C   UNL d   1     -38.355  14.358  17.262  0.00  0.00     0.043 A 
BRANCH  13  17
ATOM     17  S   UNL d   1     -40.305  14.843  17.942  0.00  0.00     0.266 S 
ATOM     18  O   UNL d   1     -40.488  14.022  18.000  0.00  0.00    -0.203 OA
ATOM     19  O   UNL d   1     -40.150  15.651  17.900  0.00  0.00    -0.203 OA
ATOM     20  C   UNL d   1     -41.020  15.007  18.368  0.00  0.00     0.165 C 
ENDBRANCH  13  17
BRANCH  15  21
ATOM     21  C   UNL d   1     -38.447  14.319  15.814  0.00  0.00     0.119 A 
ATOM     22  O   UNL d   1     -38.239  13.594  15.465  0.00  0.00    -0.304 OA
ATOM     23  C   UNL d   1     -37.940  13.747  14.722  0.00  0.00     0.123 A 
ATOM     24  C   UNL d   1     -37.953  14.579  14.587  0.00  0.00     0.029 A 
ATOM     25  C   UNL d   1     -38.272  14.913  15.279  0.00  0.00     0.028 A 
ENDBRANCH  15  21
ENDBRANCH   1  12
BRANCH  10  26
ATOM     26  O   UNL d   1     -37.949  15.185  22.255  0.00  0.00    -0.305 OA
BRANCH  26  27
ATOM     27  C   UNL d   1     -38.897  15.637  22.729  0.00  0.00     0.123 C 
ATOM     28  C   UNL d   1     -38.936  15.796  23.550  0.00  0.00     0.029 C 
ENDBRANCH  26  27
ENDBRANCH  10  26
TORSDOF 5
ENDMDL
MODEL 3
REMARK VINA RESULT:      -5.7      8.526     10.600
REMARK  5 active torsions:
REMARK  status: ('A' for Active; 'I' for Inactive)
REMARK    1  A    between atoms: S_4  and  N_1 
REMARK    2  A    between atoms: C_2  and  C_5 
REMARK    3  A    between atoms: C_12  and  C_7 
REMARK    4  A    between atoms: O_26  and  C_24 
REMARK    5  A    between atoms: C_27  and  O_26 
ROOT
ATOM      1  C   UNL d   1     -38.940  14.189  18.175  0.00  0.00     0.076 A 
ATOM      2  C   UNL d   1     -38.948  13.463  17.791  0.00  0.00     0.281 A 
ATOM      3  C   UNL d   1     -38.733  14.873  17.762  0.00  0.00     0.008 A 
ATOM      4  N   UNL d   1     -38.748  13.417  16.990  0.00  0.00    -0.208 NA
ATOM      5  C   UNL d   1     -38.538  14.105  16.573  0.00  0.00     0.087 A 
ATOM      6  C   UNL d   1     -38.531  14.830  16.957  0.00  0.00     0.018 A 
ATOM      7  C   UNL d   1     -38.338  14.058  15.772  0.00  0.00     0.044 A 
ATOM      8  O   UNL d   1     -39.071  12.644  17.800  0.00  0.00    -0.265 OA
ATOM      9  C   UNL d   1     -38.323  15.514  16.544  0.00  0.00     0.004 A 
ATOM     10  C   UNL d   1     -38.147  14.717  15.409  0.00  0.00     0.102 A 
ATOM     11  C   UNL d   1     -38.140  15.443  15.793  0.00  0.00     0.025 A 
ENDROOT
BRANCH   1  12
ATOM     12  C   UNL d   1     -39.140  14.234  18.976  0.00  0.00     0.101 A 
ATOM     13  N   UNL d   1     -39.834  14.520  19.280  0.00  0.00    -0.155 N 
ATOM     14  N   UNL d   1     -39.804  14.464  20.097  0.00  0.00    -0.153 NA
ATOM     15  C   UNL d   1     -39.080  14.139  20.292  0.00  0.00     0.126 A 
ATOM     16  C   UNL d   1     -38.660  13.992  19.602  0.00  0.00     0.043 A 
BRANCH  13  17
ATOM     17  S   UNL d   1     -40.461  14.816  18.842  0.00  0.00     0.266 S 
ATOM     18  O   UNL d   1     -40.786  14.041  18.777  0.00  0.00    -0.203 OA
ATOM     19  O   UNL d   1     -40.164  15.584  18.891  0.00  0.00    -0.203 OA
ATOM     20  C   UNL d   1     -41.116  15.103  18.388  0.00  0.00     0.165 C 
ENDBRANCH  13  17
BRANCH  15  21
ATOM     21  C   UNL d   1     -38.814  13.983  21.046  0.00  0.00     0.119 A 
ATOM     22  O   UNL d   1     -39.189  13.506  21.612  0.00  0.00    -0.304 OA
ATOM     23  C   UNL d   1     -38.730  13.505  22.287  0.00  0.00     0.123 A 
ATOM     24  C   UNL d   1     -38.050  13.987  22.156  0.00  0.00     0.029 A 
ATOM     25  C   UNL d   1     -38.125  14.272  21.379  0.00  0.00     0.028 A 
ENDBRANCH  15  21
ENDBRANCH   1  12
BRANCH  10  26
ATOM     26  O   UNL d   1     -37.947  14.693  14.620  0.00  0.00    -0.305 OA
BRANCH  26  27
ATOM     27  C   UNL d   1     -38.218  13.620  14.302  0.00  0.00     0.123 C 
ATOM     28  C   UNL d   1     -37.942  13.301  13.578  0.00  0.00     0.029 C 
ENDBRANCH  26  27
ENDBRANCH  10  26
TORSDOF 5
ENDMDL
MODEL 4
REMARK VINA RESULT:      -5.1      7.262      9.660
REMARK  5 active torsions:
REMARK  status: ('A' for Active; 'I' for Inactive)
REMARK    1  A    between atoms: S_4  and  N_1 
REMARK    2  A    between atoms: C_2  and  C_5 
REMARK    3  A    between atoms: C_12  and  C_7 
REMARK    4  A    between atoms: O_26  and  C_24 
REMARK    5  A    between atoms: C_27  and  O_26 
ROOT
ATOM      1  C   UNL d   1     -39.547  14.637  19.713  0.00  0.00     0.076 A 
ATOM      2  C   UNL d   1     -39.160  14.024  19.326  0.00  0.00     0.281 A 
ATOM      3  C   UNL d   1     -39.854  15.270  19.281  0.00  0.00     0.008 A 
ATOM      4  N   UNL d   1     -39.078  14.040  18.504  0.00  0.00    -0.208 NA
ATOM      5  C   UNL d   1     -39.387  14.677  18.067  0.00  0.00     0.087 A 
ATOM      6  C   UNL d   1     -39.773  15.289  18.454  0.00  0.00     0.018 A 
ATOM      7  C   UNL d   1     -39.305  14.693  17.245  0.00  0.00     0.044 A 
ATOM      8  O   UNL d   1     -38.757  13.300  19.345  0.00  0.00    -0.265 OA
ATOM      9  C   UNL d   1     -40.080  15.922  18.022  0.00  0.00     0.004 A 
ATOM     10  C   UNL d   1     -39.604  15.300  16.864  0.00  0.00     0.102 A 
ATOM     11  C   UNL d   1     -39.990  15.912  17.251  0.00  0.00     0.025 A 
ENDROOT
BRANCH   1  12
ATOM     12  C   UNL d   1     -39.628  14.619  20.535  0.00  0.00     0.101 A 
ATOM     13  N   UNL d   1     -40.306  14.452  20.946  0.00  0.00    -0.155 N 
ATOM     14  N   UNL d   1     -40.144  14.495  21.748  0.00  0.00    -0.153 NA
ATOM     15  C   UNL d   1     -39.353  14.693  21.825  0.00  0.00     0.126 A 
ATOM     16  C   UNL d   1     -39.024  14.772  21.077  0.00  0.00     0.043 A 
BRANCH  13  17
ATOM     17  S   UNL d   1     -41.032  14.270  20.613  0.00  0.00     0.266 S 
ATOM     18  O   UNL d   1     -40.824  13.453  20.597  0.00  0.00    -0.203 OA
ATOM     19  O   UNL d   1     -41.260  15.063  20.617  0.00  0.00    -0.203 OA
ATOM     20  C   UNL d   1     -41.778  14.063  20.268  0.00  0.00     0.165 C 
ENDBRANCH  13  17
BRANCH  15  21
ATOM     21  C   UNL d   1     -38.954  14.795  22.528  0.00  0.00     0.119 A 
ATOM     22  O   UNL d   1     -38.766  14.201  23.078  0.00  0.00    -0.304 OA
ATOM     23  C   UNL d   1     -38.365  14.550  23.698  0.00  0.00     0.123 A 
ATOM     24  C   UNL d   1     -38.293  15.377  23.547  0.00  0.00     0.029 A 
ATOM     25  C   UNL d   1     -38.666  15.504  22.816  0.00  0.00     0.028 A 
ENDBRANCH  15  21
ENDBRANCH   1  12
BRANCH  10  26
ATOM     26  O   UNL d   1     -39.534  15.335  16.053  0.00  0.00    -0.305 OA
BRANCH  26  27
ATOM     27  C   UNL d   1     -38.450  15.689  15.888  0.00  0.00     0.123 C 
ATOM     28  C   UNL d   1     -38.182  15.919  15.128  0.00  0.00     0.029 C 
ENDBRANCH  26  27
ENDBRANCH  10  26
TORSDOF 5
ENDMDL
MODEL 5
REMARK VINA RESULT:      -4.9      1.899      2.856
REMARK  5 active torsions:
REMARK  status: ('A' for Active; 'I' for Inactive)
REMARK    1  A    between atoms: S_4  and  N_1 
REMARK    2  A    between atoms: C_2  and  C_5 
REMARK    3  A    between atoms: C_12  and  C_7 
REMARK    4  A    between atoms: O_26  and  C_24 
REMARK    5  A    between atoms: C_27  and  O_26 
ROOT
ATOM      1  C   UNL d   1     -46.181  12.664  22.556  0.00  0.00     0.076 A 
ATOM      2  C   UNL d   1     -45.793  12.135  23.049  0.00  0.00     0.281 A 
ATOM      3  C   UNL d   1     -45.771  13.031  21.940  0.00  0.00     0.008 A 
ATOM      4  N   UNL d   1     -44.992  11.969  22.930  0.00  0.00    -0.208 NA
ATOM      5  C   UNL d   1     -44.578  12.337  22.311  0.00  0.00     0.087 A 
ATOM      6  C   UNL d   1     -44.966  12.866  21.817  0.00  0.00     0.018 A 
ATOM      7  C   UNL d   1     -43.778  12.171  22.192  0.00  0.00     0.044 A 
ATOM      8  O   UNL d   1     -45.798  11.613  23.693  0.00  0.00    -0.265 OA
ATOM      9  C   UNL d   1     -44.556  13.233  21.201  0.00  0.00     0.004 A 
ATOM     10  C   UNL d   1     -43.417  12.530  21.605  0.00  0.00     0.102 A 
ATOM     11  C   UNL d   1     -43.805  13.059  21.112  0.00  0.00     0.025 A 
ENDROOT
BRANCH   1  12
ATOM     12  C   UNL d   1     -46.982  12.830  22.675  0.00  0.00     0.101 A 
ATOM     13  N   UNL d   1     -47.301  13.554  22.847  0.00  0.00    -0.155 N 
ATOM     14  N   UNL d   1     -48.113  13.472  22.922  0.00  0.00    -0.153 NA
ATOM     15  C   UNL d   1     -48.289  12.684  22.793  0.00  0.00     0.126 A 
ATOM     16  C   UNL d   1     -47.593  12.276  22.639  0.00  0.00     0.043 A 
BRANCH  13  17
ATOM     17  S   UNL d   1     -46.880  14.252  22.932  0.00  0.00     0.266 S 
ATOM     18  O   UNL d   1     -47.121  14.496  22.162  0.00  0.00    -0.203 OA
ATOM     19  O   UNL d   1     -46.629  14.038  23.688  0.00  0.00    -0.203 OA
ATOM     20  C   UNL d   1     -46.450  14.979  23.002  0.00  0.00     0.165 C 
ENDBRANCH  13  17
BRANCH  15  21
ATOM     21  C   UNL d   1     -49.033  12.353  22.813  0.00  0.00     0.119 A 
ATOM     22  O   UNL d   1     -49.518  12.190  22.158  0.00  0.00    -0.304 OA
ATOM     23  C   UNL d   1     -50.212  11.860  22.433  0.00  0.00     0.123 A 
ATOM     24  C   UNL d   1     -50.177  11.809  23.274  0.00  0.00     0.029 A 
ATOM     25  C   UNL d   1     -49.436  12.120  23.486  0.00  0.00     0.028 A 
ENDBRANCH  15  21
ENDBRANCH   1  12
BRANCH  10  26
ATOM     26  O   UNL d   1     -42.628  12.381  21.471  0.00  0.00    -0.305 OA
BRANCH  26  27
ATOM     27  C   UNL d   1     -42.193  13.416  21.214  0.00  0.00     0.123 C 
ATOM     28  C   UNL d   1     -41.371  13.566  21.271  0.00  0.00     0.029 C 
ENDBRANCH  26  27
ENDBRANCH  10  26
TORSDOF 5
ENDMDL
