MODEL 1
REMARK VINA RESULT:      -1.6      0.000      0.000
REMARK  3 active torsions:
REMARK  status: ('A' for Active; 'I' for Inactive)
REMARK    1  A    between atoms: C_13  and  N_3 
REMARK    2  A    between atoms: C_10  and  C_6 
REMARK    3  A    between atoms: C_11  and  C_8 
ROOT
ATOM      1  C   UNL d   1      58.139  -0.541  30.605  0.00  0.00     0.167 A 
ATOM      2  C   UNL d   1      58.859  -0.377  30.226  0.00  0.00     0.056 A 
ATOM      3  N   UNL d   1      58.002   0.047  31.175  0.00  0.00    -0.212 N 
ATOM      4  N   UNL d   1      58.645   0.584  31.151  0.00  0.00    -0.164 NA
ATOM      5  N   UNL d   1      57.702  -1.204  30.382  0.00  0.00    -0.206 NA
ATOM      6  C   UNL d   1      59.134  -0.874  29.631  0.00  0.00     0.015 A 
ATOM      7  C   UNL d   1      59.174   0.321  30.564  0.00  0.00     0.104 A 
ATOM      8  C   UNL d   1      58.702  -1.533  29.408  0.00  0.00     0.059 A 
ATOM      9  C   UNL d   1      57.986  -1.696  29.784  0.00  0.00     0.187 A 
ATOM     10  N   UNL d   1      57.550  -2.356  29.563  0.00  0.00    -0.127 N 
ATOM     11  C   UNL d   1      59.879   0.682  30.353  0.00  0.00     0.023 C 
ENDROOT
BRANCH   3  12
ATOM     12  C   UNL d   1      57.347   0.094  31.677  0.00  0.00     0.085 A 
ATOM     13  C   UNL d   1      56.744   0.630  31.519  0.00  0.00     0.019 A 
ATOM     14  C   UNL d   1      56.097   0.675  32.017  0.00  0.00     0.002 A 
ATOM     15  C   UNL d   1      56.043   0.186  32.680  0.00  0.00     0.000 A 
ATOM     16  C   UNL d   1      56.651  -0.356  32.843  0.00  0.00     0.002 A 
ATOM     17  C   UNL d   1      55.388   0.233  33.182  0.00  0.00     0.000 C 
ATOM     18  C   UNL d   1      57.301  -0.399  32.339  0.00  0.00     0.019 A 
ENDBRANCH   3  12
BRANCH   6  19
ATOM     19  C   UNL d   1      59.851  -0.704  29.259  0.00  0.00     0.030 A 
ATOM     20  S   UNL d   1      60.563  -1.105  29.361  0.00  0.00    -0.086 SA
ATOM     21  C   UNL d   1      61.133  -0.748  28.882  0.00  0.00     0.035 A 
ATOM     22  C   UNL d   1      60.770  -0.124  28.484  0.00  0.00     0.007 A 
ATOM     23  C   UNL d   1      59.984  -0.090  28.710  0.00  0.00     0.007 A 
ENDBRANCH   6  19
BRANCH   8  24
ATOM     24  C   UNL d   1      58.978  -2.030  28.812  0.00  0.00     0.125 C 
ATOM     25  N   UNL d   1      58.692  -2.800  28.756  0.00  0.00    -0.146 N 
ENDBRANCH   8  24
TORSDOF 3
ENDMDL
