MODEL 1
REMARK VINA RESULT:      49.7      0.000      0.000
REMARK  5 active torsions:
REMARK  status: ('A' for Active; 'I' for Inactive)
REMARK    1  A    between atoms: C_4  and  C_1 
REMARK    2  A    between atoms: C_3  and  N_8 
REMARK       I    between atoms: N_8  and  C_4 
REMARK    3  A    between atoms: C_13  and  C_6 
REMARK    4  A    between atoms: C_14  and  C_10 
REMARK    5  A    between atoms: C_20  and  C_14 
ROOT
ATOM      1  C   UNL d   1      14.684  13.843  -1.181  0.00  0.00     0.083 A 
ATOM      2  C   UNL d   1      14.791  14.646  -1.371  0.00  0.00     0.032 A 
ATOM      3  C   UNL d   1      15.161  15.008  -0.736  0.00  0.00     0.100 A 
ATOM      4  C   UNL d   1      14.996  13.727  -0.419  0.00  0.00     0.105 A 
ATOM      5  O   UNL d   1      15.290  14.451  -0.150  0.00  0.00    -0.307 OA
ATOM      6  C   UNL d   1      15.005  13.007  -0.014  0.00  0.00     0.027 C 
ENDROOT
BRANCH   1   7
ATOM      7  C   UNL d   1      14.333  13.266  -1.658  0.00  0.00     0.283 C 
ATOM      8  N   UNL d   1      13.998  13.473  -2.373  0.00  0.00    -0.181 NA
ATOM      9  O   UNL d   1      14.328  12.482  -1.401  0.00  0.00    -0.265 OA
BRANCH   8  10
ATOM     10  C   UNL d   1      13.649  12.896  -2.846  0.00  0.00     0.216 A 
ATOM     11  N   UNL d   1      13.544  12.941  -3.653  0.00  0.00    -0.200 NA
ATOM     12  C   UNL d   1      13.178  12.253  -3.901  0.00  0.00     0.175 A 
ATOM     13  N   UNL d   1      13.057  11.780  -3.236  0.00  0.00    -0.187 NA
ATOM     14  S   UNL d   1      13.350  12.182  -2.587  0.00  0.00     0.054 SA
BRANCH  12  15
ATOM     15  C   UNL d   1      12.968  12.064  -4.666  0.00  0.00     0.082 C 
BRANCH  15  16
ATOM     16  C   UNL d   1      13.381  12.394  -5.298  0.00  0.00     0.199 C 
ATOM     17  O   UNL d   1      13.975  11.968  -5.673  0.00  0.00    -0.286 OA
ATOM     18  C   UNL d   1      13.199  13.153  -5.554  0.00  0.00     0.045 C 
ENDBRANCH  15  16
ENDBRANCH  12  15
ENDBRANCH   8  10
ENDBRANCH   1   7
BRANCH   3  19
ATOM     19  C   UNL d   1      15.370  15.798  -0.693  0.00  0.00     0.024 A 
ATOM     20  C   UNL d   1      15.092  16.329  -1.265  0.00  0.00     0.014 A 
ATOM     21  C   UNL d   1      15.306  17.128  -1.216  0.00  0.00     0.068 A 
ATOM     22 CL   UNL d   1      15.029  17.653  -1.786  0.00  0.00    -0.082 Cl
ATOM     23  C   UNL d   1      15.792  17.398  -0.605  0.00  0.00     0.068 A 
ATOM     24  C   UNL d   1      16.069  16.873  -0.035  0.00  0.00     0.012 A 
ATOM     25 CL   UNL d   1      15.999  18.201  -0.567  0.00  0.00    -0.082 Cl
ATOM     26  C   UNL d   1      15.861  16.072  -0.074  0.00  0.00     0.003 A 
ENDBRANCH   3  19
TORSDOF 5
ENDMDL
