MODEL 1
REMARK VINA RESULT:      -6.6      0.000      0.000
REMARK  5 active torsions:
REMARK  status: ('A' for Active; 'I' for Inactive)
REMARK    1  A    between atoms: C_2  and  S_1 
REMARK    2  A    between atoms: N_11  and  S_1 
REMARK    3  A    between atoms: N_3  and  C_17 
REMARK    4  A    between atoms: C_16  and  N_11 
REMARK    5  A    between atoms: C_17  and  C_16 
ROOT
ATOM      1  S   UNL d   1     -40.506  14.439  18.476  0.00  0.00     0.285 S 
ATOM      2  O   UNL d   1     -40.938  13.968  17.954  0.00  0.00    -0.198 OA
ATOM      3  O   UNL d   1     -40.907  14.103  19.118  0.00  0.00    -0.198 OA
ENDROOT
BRANCH   1   4
ATOM      4  C   UNL d   1     -40.093  14.789  17.845  0.00  0.00     0.105 A 
ATOM      5  C   UNL d   1     -39.461  14.389  17.497  0.00  0.00     0.012 A 
ATOM      6  C   UNL d   1     -39.051  14.729  16.875  0.00  0.00     0.001 A 
ATOM      7  C   UNL d   1     -39.237  13.639  17.773  0.00  0.00     0.001 C 
ATOM      8  C   UNL d   1     -39.269  15.480  16.592  0.00  0.00     0.000 A 
ATOM      9  C   UNL d   1     -39.907  15.876  16.950  0.00  0.00     0.001 A 
ATOM     10  C   UNL d   1     -38.866  15.834  15.968  0.00  0.00     0.000 C 
ATOM     11  C   UNL d   1     -40.314  15.524  17.576  0.00  0.00     0.012 A 
ATOM     12  C   UNL d   1     -40.945  15.921  17.926  0.00  0.00     0.001 C 
ENDBRANCH   1   4
BRANCH   1  13
ATOM     13  N   UNL d   1     -40.198  14.802  19.148  0.00  0.00    -0.155 NA
BRANCH  13  14
ATOM     14  C   UNL d   1     -40.235  14.422  19.880  0.00  0.00     0.131 C 
BRANCH  14  15
ATOM     15  C   UNL d   1     -40.111  14.853  20.572  0.00  0.00     0.102 C 
BRANCH  15  16
ATOM     16  N   UNL d   1     -39.739  14.497  21.217  0.00  0.00    -0.303 N 
ATOM     17  C   UNL d   1     -39.645  13.683  21.336  0.00  0.00     0.080 A 
ATOM     18  C   UNL d   1     -39.245  13.571  22.046  0.00  0.00     0.021 A 
ATOM     19  C   UNL d   1     -39.087  14.311  22.374  0.00  0.00     0.018 A 
ATOM     20  C   UNL d   1     -39.392  14.886  21.864  0.00  0.00     0.064 A 
ATOM     21  C   UNL d   1     -38.709  14.548  23.066  0.00  0.00     0.002 A 
ATOM     22  C   UNL d   1     -39.321  15.686  22.040  0.00  0.00     0.018 A 
ATOM     23  C   UNL d   1     -38.943  15.922  22.732  0.00  0.00     0.002 A 
ATOM     24  C   UNL d   1     -38.630  15.354  23.257  0.00  0.00     0.000 A 
ENDBRANCH  15  16
ENDBRANCH  14  15
ENDBRANCH  13  14
ENDBRANCH   1  13
TORSDOF 5
ENDMDL
MODEL 2
REMARK VINA RESULT:      -6.5      8.632      9.606
REMARK  5 active torsions:
REMARK  status: ('A' for Active; 'I' for Inactive)
REMARK    1  A    between atoms: C_2  and  S_1 
REMARK    2  A    between atoms: N_11  and  S_1 
REMARK    3  A    between atoms: N_3  and  C_17 
REMARK    4  A    between atoms: C_16  and  N_11 
REMARK    5  A    between atoms: C_17  and  C_16 
ROOT
ATOM      1  S   UNL d   1     -48.832  13.649  22.156  0.00  0.00     0.285 S 
ATOM      2  O   UNL d   1     -49.253  13.709  21.449  0.00  0.00    -0.198 OA
ATOM      3  O   UNL d   1     -48.289  13.139  21.795  0.00  0.00    -0.198 OA
ENDROOT
BRANCH   1   4
ATOM      4  C   UNL d   1     -49.366  14.160  22.537  0.00  0.00     0.105 A 
ATOM      5  C   UNL d   1     -50.076  13.863  22.833  0.00  0.00     0.012 A 
ATOM      6  C   UNL d   1     -50.606  14.363  23.209  0.00  0.00     0.001 A 
ATOM      7  C   UNL d   1     -50.260  13.058  22.753  0.00  0.00     0.001 C 
ATOM      8  C   UNL d   1     -50.430  15.170  23.293  0.00  0.00     0.000 A 
ATOM      9  C   UNL d   1     -49.712  15.461  22.992  0.00  0.00     0.001 A 
ATOM     10  C   UNL d   1     -50.953  15.684  23.669  0.00  0.00     0.000 C 
ATOM     11  C   UNL d   1     -49.185  14.949  22.615  0.00  0.00     0.012 A 
ATOM     12  C   UNL d   1     -48.475  15.242  22.318  0.00  0.00     0.001 C 
ENDBRANCH   1   4
BRANCH   1  13
ATOM     13  N   UNL d   1     -48.283  13.456  22.739  0.00  0.00    -0.155 NA
BRANCH  13  14
ATOM     14  C   UNL d   1     -47.787  12.803  22.645  0.00  0.00     0.131 C 
BRANCH  14  15
ATOM     15  C   UNL d   1     -47.098  12.743  23.093  0.00  0.00     0.102 C 
BRANCH  15  16
ATOM     16  N   UNL d   1     -46.796  12.000  23.286  0.00  0.00    -0.303 N 
ATOM     17  C   UNL d   1     -47.231  11.361  23.582  0.00  0.00     0.080 A 
ATOM     18  C   UNL d   1     -46.715  10.730  23.698  0.00  0.00     0.021 A 
ATOM     19  C   UNL d   1     -45.958  10.970  23.475  0.00  0.00     0.018 A 
ATOM     20  C   UNL d   1     -46.005  11.755  23.220  0.00  0.00     0.064 A 
ATOM     21  C   UNL d   1     -45.230  10.588  23.467  0.00  0.00     0.002 A 
ATOM     22  C   UNL d   1     -45.334  12.154  22.960  0.00  0.00     0.018 A 
ATOM     23  C   UNL d   1     -44.606  11.771  22.952  0.00  0.00     0.002 A 
ATOM     24  C   UNL d   1     -44.543  10.979  23.206  0.00  0.00     0.000 A 
ENDBRANCH  15  16
ENDBRANCH  14  15
ENDBRANCH  13  14
ENDBRANCH   1  13
TORSDOF 5
ENDMDL
MODEL 3
REMARK VINA RESULT:      -6.4      8.213      9.271
REMARK  5 active torsions:
REMARK  status: ('A' for Active; 'I' for Inactive)
REMARK    1  A    between atoms: C_2  and  S_1 
REMARK    2  A    between atoms: N_11  and  S_1 
REMARK    3  A    between atoms: N_3  and  C_17 
REMARK    4  A    between atoms: C_16  and  N_11 
REMARK    5  A    between atoms: C_17  and  C_16 
ROOT
ATOM      1  S   UNL d   1     -46.397  12.841  23.169  0.00  0.00     0.285 S 
ATOM      2  O   UNL d   1     -46.042  13.365  23.698  0.00  0.00    -0.198 OA
ATOM      3  O   UNL d   1     -47.107  12.886  23.594  0.00  0.00    -0.198 OA
ENDROOT
BRANCH   1   4
ATOM      4  C   UNL d   1     -45.694  12.782  22.729  0.00  0.00     0.105 A 
ATOM      5  C   UNL d   1     -45.223  12.109  22.797  0.00  0.00     0.012 A 
ATOM      6  C   UNL d   1     -44.529  12.048  22.366  0.00  0.00     0.001 A 
ATOM      7  C   UNL d   1     -45.446  11.491  23.303  0.00  0.00     0.001 C 
ATOM      8  C   UNL d   1     -44.298  12.663  21.857  0.00  0.00     0.000 A 
ATOM      9  C   UNL d   1     -44.780  13.337  21.794  0.00  0.00     0.001 A 
ATOM     10  C   UNL d   1     -43.603  12.614  21.417  0.00  0.00     0.000 C 
ATOM     11  C   UNL d   1     -45.477  13.389  22.233  0.00  0.00     0.012 A 
ATOM     12  C   UNL d   1     -45.950  14.060  22.167  0.00  0.00     0.001 C 
ENDBRANCH   1   4
BRANCH   1  13
ATOM     13  N   UNL d   1     -46.927  12.349  22.774  0.00  0.00    -0.155 NA
BRANCH  13  14
ATOM     14  C   UNL d   1     -47.736  12.397  22.932  0.00  0.00     0.131 C 
BRANCH  14  15
ATOM     15  C   UNL d   1     -48.280  12.158  22.360  0.00  0.00     0.102 C 
BRANCH  15  16
ATOM     16  N   UNL d   1     -49.088  12.177  22.528  0.00  0.00    -0.303 N 
ATOM     17  C   UNL d   1     -49.473  11.737  23.114  0.00  0.00     0.080 A 
ATOM     18  C   UNL d   1     -50.274  11.924  23.091  0.00  0.00     0.021 A 
ATOM     19  C   UNL d   1     -50.394  12.480  22.493  0.00  0.00     0.018 A 
ATOM     20  C   UNL d   1     -49.662  12.638  22.143  0.00  0.00     0.064 A 
ATOM     21  C   UNL d   1     -51.064  12.866  22.214  0.00  0.00     0.002 A 
ATOM     22  C   UNL d   1     -49.599  13.175  21.522  0.00  0.00     0.018 A 
ATOM     23  C   UNL d   1     -50.270  13.561  21.244  0.00  0.00     0.002 A 
ATOM     24  C   UNL d   1     -51.016  13.411  21.587  0.00  0.00     0.000 A 
ENDBRANCH  15  16
ENDBRANCH  14  15
ENDBRANCH  13  14
ENDBRANCH   1  13
TORSDOF 5
ENDMDL
MODEL 4
REMARK VINA RESULT:      -6.3      8.603      9.590
REMARK  5 active torsions:
REMARK  status: ('A' for Active; 'I' for Inactive)
REMARK    1  A    between atoms: C_2  and  S_1 
REMARK    2  A    between atoms: N_11  and  S_1 
REMARK    3  A    between atoms: N_3  and  C_17 
REMARK    4  A    between atoms: C_16  and  N_11 
REMARK    5  A    between atoms: C_17  and  C_16 
ROOT
ATOM      1  S   UNL d   1     -48.902  13.569  22.161  0.00  0.00     0.285 S 
ATOM      2  O   UNL d   1     -49.397  13.516  21.503  0.00  0.00    -0.198 OA
ATOM      3  O   UNL d   1     -48.359  13.059  21.799  0.00  0.00    -0.198 OA
ENDROOT
BRANCH   1   4
ATOM      4  C   UNL d   1     -49.434  14.082  22.540  0.00  0.00     0.105 A 
ATOM      5  C   UNL d   1     -49.284  14.893  22.552  0.00  0.00     0.012 A 
ATOM      6  C   UNL d   1     -49.807  15.403  22.925  0.00  0.00     0.001 A 
ATOM      7  C   UNL d   1     -48.605  15.199  22.188  0.00  0.00     0.001 C 
ATOM      8  C   UNL d   1     -50.489  15.105  23.293  0.00  0.00     0.000 A 
ATOM      9  C   UNL d   1     -50.632  14.286  23.276  0.00  0.00     0.001 A 
ATOM     10  C   UNL d   1     -51.023  15.605  23.671  0.00  0.00     0.000 C 
ATOM     11  C   UNL d   1     -50.100  13.781  22.898  0.00  0.00     0.012 A 
ATOM     12  C   UNL d   1     -50.247  12.971  22.884  0.00  0.00     0.001 C 
ENDBRANCH   1   4
BRANCH   1  13
ATOM     13  N   UNL d   1     -48.282  13.485  22.696  0.00  0.00    -0.155 NA
BRANCH  13  14
ATOM     14  C   UNL d   1     -47.770  12.840  22.643  0.00  0.00     0.131 C 
BRANCH  14  15
ATOM     15  C   UNL d   1     -47.063  12.840  23.067  0.00  0.00     0.102 C 
BRANCH  15  16
ATOM     16  N   UNL d   1     -46.694  12.126  23.252  0.00  0.00    -0.303 N 
ATOM     17  C   UNL d   1     -47.051  11.475  23.618  0.00  0.00     0.080 A 
ATOM     18  C   UNL d   1     -46.485  10.882  23.697  0.00  0.00     0.021 A 
ATOM     19  C   UNL d   1     -45.774  11.159  23.382  0.00  0.00     0.018 A 
ATOM     20  C   UNL d   1     -45.900  11.927  23.106  0.00  0.00     0.064 A 
ATOM     21  C   UNL d   1     -45.027  10.822  23.306  0.00  0.00     0.002 A 
ATOM     22  C   UNL d   1     -45.290  12.356  22.758  0.00  0.00     0.018 A 
ATOM     23  C   UNL d   1     -44.544  12.018  22.682  0.00  0.00     0.002 A 
ATOM     24  C   UNL d   1     -44.401  11.243  22.956  0.00  0.00     0.000 A 
ENDBRANCH  15  16
ENDBRANCH  14  15
ENDBRANCH  13  14
ENDBRANCH   1  13
TORSDOF 5
ENDMDL
MODEL 5
REMARK VINA RESULT:      -6.1      1.149      4.721
REMARK  5 active torsions:
REMARK  status: ('A' for Active; 'I' for Inactive)
REMARK    1  A    between atoms: C_2  and  S_1 
REMARK    2  A    between atoms: N_11  and  S_1 
REMARK    3  A    between atoms: N_3  and  C_17 
REMARK    4  A    between atoms: C_16  and  N_11 
REMARK    5  A    between atoms: C_17  and  C_16 
ROOT
ATOM      1  S   UNL d   1     -40.368  15.346  19.967  0.00  0.00     0.285 S 
ATOM      2  O   UNL d   1     -40.741  15.920  20.427  0.00  0.00    -0.198 OA
ATOM      3  O   UNL d   1     -40.715  15.661  19.285  0.00  0.00    -0.198 OA
ENDROOT
BRANCH   1   4
ATOM      4  C   UNL d   1     -40.010  15.014  20.641  0.00  0.00     0.105 A 
ATOM      5  C   UNL d   1     -40.381  14.395  21.040  0.00  0.00     0.012 A 
ATOM      6  C   UNL d   1     -40.032  14.066  21.704  0.00  0.00     0.001 A 
ATOM      7  C   UNL d   1     -41.109  14.102  20.772  0.00  0.00     0.001 C 
ATOM      8  C   UNL d   1     -39.303  14.355  21.979  0.00  0.00     0.000 A 
ATOM      9  C   UNL d   1     -38.936  14.979  21.570  0.00  0.00     0.001 A 
ATOM     10  C   UNL d   1     -38.941  14.033  22.645  0.00  0.00     0.000 C 
ATOM     11  C   UNL d   1     -39.296  15.304  20.902  0.00  0.00     0.012 A 
ATOM     12  C   UNL d   1     -38.928  15.922  20.501  0.00  0.00     0.001 C 
ENDBRANCH   1   4
BRANCH   1  13
ATOM     13  N   UNL d   1     -40.102  14.878  19.344  0.00  0.00    -0.155 NA
BRANCH  13  14
ATOM     14  C   UNL d   1     -40.158  15.149  18.566  0.00  0.00     0.131 C 
BRANCH  14  15
ATOM     15  C   UNL d   1     -40.067  14.620  17.940  0.00  0.00     0.102 C 
BRANCH  15  16
ATOM     16  N   UNL d   1     -39.629  14.840  17.276  0.00  0.00    -0.303 N 
ATOM     17  C   UNL d   1     -39.663  15.573  16.893  0.00  0.00     0.080 A 
ATOM     18  C   UNL d   1     -39.138  15.556  16.260  0.00  0.00     0.021 A 
ATOM     19  C   UNL d   1     -38.773  14.816  16.244  0.00  0.00     0.018 A 
ATOM     20  C   UNL d   1     -39.076  14.371  16.872  0.00  0.00     0.064 A 
ATOM     21  C   UNL d   1     -38.209  14.480  15.749  0.00  0.00     0.002 A 
ATOM     22  C   UNL d   1     -38.818  13.601  17.005  0.00  0.00     0.018 A 
ATOM     23  C   UNL d   1     -38.254  13.266  16.508  0.00  0.00     0.002 A 
ATOM     24  C   UNL d   1     -37.940  13.703  15.871  0.00  0.00     0.000 A 
ENDBRANCH  15  16
ENDBRANCH  14  15
ENDBRANCH  13  14
ENDBRANCH   1  13
TORSDOF 5
ENDMDL
