MODEL 1
REMARK VINA RESULT:       1.2      0.000      0.000
REMARK  8 active torsions:
REMARK  status: ('A' for Active; 'I' for Inactive)
REMARK    1  A    between atoms: C_6  and  C_1 
REMARK    2  A    between atoms: S_11  and  C_3 
REMARK    3  A    between atoms: C_8  and  C_4 
REMARK       I    between atoms: N_10  and  C_6 
REMARK    4  A    between atoms: C_22  and  N_10 
REMARK    5  A    between atoms: C_21  and  S_11 
REMARK    6  A    between atoms: C_13  and  C_21 
REMARK    7  A    between atoms: O_20  and  C_13 
REMARK    8  A    between atoms: C_24  and  O_20 
ROOT
ATOM      1  C   UNL d   1      32.935  21.390 -21.436  0.00  0.00     0.078 A 
ATOM      2  C   UNL d   1      32.942  20.996 -22.787  0.00  0.00     0.094 A 
ATOM      3  C   UNL d   1      33.120  20.223 -22.560  0.00  0.00     0.120 A 
ATOM      4  C   UNL d   1      32.848  21.586 -22.227  0.00  0.00     0.041 A 
ATOM      5  C   UNL d   1      33.112  20.617 -21.210  0.00  0.00     0.087 A 
ATOM      6  N   UNL d   1      33.206  20.027 -21.770  0.00  0.00    -0.238 NA
ATOM      7  C   UNL d   1      32.855  21.180 -23.618  0.00  0.00     0.103 C 
ATOM      8  N   UNL d   1      32.768  21.373 -24.430  0.00  0.00    -0.191 NA
ATOM      9  C   UNL d   1      33.205  20.404 -20.393  0.00  0.00     0.021 C 
ENDROOT
BRANCH   4  10
ATOM     10  C   UNL d   1      32.675  22.339 -22.447  0.00  0.00     0.101 A 
ATOM     11  O   UNL d   1      33.198  22.974 -22.384  0.00  0.00    -0.305 OA
ATOM     12  C   UNL d   1      32.830  23.648 -22.661  0.00  0.00     0.123 A 
ATOM     13  C   UNL d   1      32.091  23.429 -22.890  0.00  0.00     0.029 A 
ATOM     14  C   UNL d   1      31.975  22.643 -22.770  0.00  0.00     0.027 A 
ENDBRANCH   4  10
BRANCH   3  15
ATOM     15  S   UNL d   1      33.219  19.605 -23.131  0.00  0.00    -0.061 SA
BRANCH  15  16
ATOM     16  C   UNL d   1      32.827  18.879 -23.021  0.00  0.00     0.105 C 
BRANCH  16  17
ATOM     17  C   UNL d   1      33.054  18.219 -23.452  0.00  0.00     0.307 C 
ATOM     18  O   UNL d   1      33.238  18.304 -24.248  0.00  0.00    -0.258 OA
BRANCH  17  19
ATOM     19  O   UNL d   1      33.096  17.478 -23.084  0.00  0.00    -0.273 OA
BRANCH  19  20
ATOM     20  C   UNL d   1      32.687  16.840 -23.392  0.00  0.00     0.103 C 
ATOM     21  C   UNL d   1      33.094  16.163 -23.631  0.00  0.00     0.027 C 
ATOM     22  C   UNL d   1      31.866  16.883 -23.462  0.00  0.00     0.027 C 
ENDBRANCH  19  20
ENDBRANCH  17  19
ENDBRANCH  16  17
ENDBRANCH  15  16
ENDBRANCH   3  15
BRANCH   1  23
ATOM     23  C   UNL d   1      32.841  21.990 -20.840  0.00  0.00     0.281 C 
ATOM     24  N   UNL d   1      32.370  21.843 -20.186  0.00  0.00    -0.208 NA
ATOM     25  O   UNL d   1      33.226  22.714 -20.928  0.00  0.00    -0.265 OA
BRANCH  24  26
ATOM     26  C   UNL d   1      32.282  22.438 -19.604  0.00  0.00     0.085 A 
ATOM     27  C   UNL d   1      31.563  22.833 -19.522  0.00  0.00     0.019 A 
ATOM     28  C   UNL d   1      31.492  23.422 -18.938  0.00  0.00     0.002 A 
ATOM     29  C   UNL d   1      32.131  23.603 -18.455  0.00  0.00     0.000 A 
ATOM     30  C   UNL d   1      32.837  23.196 -18.557  0.00  0.00     0.002 A 
ATOM     31  C   UNL d   1      32.918  22.621 -19.121  0.00  0.00     0.019 A 
ENDBRANCH  24  26
ENDBRANCH   1  23
TORSDOF 8
ENDMDL
MODEL 2
REMARK VINA RESULT:       2.3      0.914      1.057
REMARK  8 active torsions:
REMARK  status: ('A' for Active; 'I' for Inactive)
REMARK    1  A    between atoms: C_6  and  C_1 
REMARK    2  A    between atoms: S_11  and  C_3 
REMARK    3  A    between atoms: C_8  and  C_4 
REMARK       I    between atoms: N_10  and  C_6 
REMARK    4  A    between atoms: C_22  and  N_10 
REMARK    5  A    between atoms: C_21  and  S_11 
REMARK    6  A    between atoms: C_13  and  C_21 
REMARK    7  A    between atoms: O_20  and  C_13 
REMARK    8  A    between atoms: C_24  and  O_20 
ROOT
ATOM      1  C   UNL d   1      32.984  20.881 -22.115  0.00  0.00     0.078 A 
ATOM      2  C   UNL d   1      32.983  20.261 -23.378  0.00  0.00     0.094 A 
ATOM      3  C   UNL d   1      33.124  19.531 -23.020  0.00  0.00     0.120 A 
ATOM      4  C   UNL d   1      32.911  20.941 -22.929  0.00  0.00     0.041 A 
ATOM      5  C   UNL d   1      33.125  20.152 -21.757  0.00  0.00     0.087 A 
ATOM      6  N   UNL d   1      33.196  19.471 -22.207  0.00  0.00    -0.238 NA
ATOM      7  C   UNL d   1      32.910  20.302 -24.230  0.00  0.00     0.103 C 
ATOM      8  N   UNL d   1      32.837  20.356 -25.064  0.00  0.00    -0.191 NA
ATOM      9  C   UNL d   1      33.202  20.078 -20.914  0.00  0.00     0.021 C 
ENDROOT
BRANCH   4  10
ATOM     10  C   UNL d   1      32.774  21.652 -23.279  0.00  0.00     0.101 A 
ATOM     11  O   UNL d   1      32.101  21.829 -23.724  0.00  0.00    -0.305 OA
ATOM     12  C   UNL d   1      32.155  22.600 -23.988  0.00  0.00     0.123 A 
ATOM     13  C   UNL d   1      32.851  22.891 -23.709  0.00  0.00     0.029 A 
ATOM     14  C   UNL d   1      33.241  22.336 -23.278  0.00  0.00     0.027 A 
ENDBRANCH   4  10
BRANCH   3  15
ATOM     15  S   UNL d   1      33.199  18.820 -23.474  0.00  0.00    -0.061 SA
BRANCH  15  16
ATOM     16  C   UNL d   1      32.620  18.227 -23.405  0.00  0.00     0.105 C 
BRANCH  16  17
ATOM     17  C   UNL d   1      32.750  17.486 -23.733  0.00  0.00     0.307 C 
ATOM     18  O   UNL d   1      33.166  17.425 -24.438  0.00  0.00    -0.258 OA
BRANCH  17  19
ATOM     19  O   UNL d   1      32.461  16.808 -23.352  0.00  0.00    -0.273 OA
BRANCH  19  20
ATOM     20  C   UNL d   1      32.395  16.103 -23.760  0.00  0.00     0.103 C 
ATOM     21  C   UNL d   1      32.965  15.892 -24.318  0.00  0.00     0.027 C 
ATOM     22  C   UNL d   1      31.753  15.606 -23.607  0.00  0.00     0.027 C 
ENDBRANCH  19  20
ENDBRANCH  17  19
ENDBRANCH  16  17
ENDBRANCH  15  16
ENDBRANCH   3  15
BRANCH   1  23
ATOM     23  C   UNL d   1      32.913  21.579 -21.632  0.00  0.00     0.281 C 
ATOM     24  N   UNL d   1      32.520  21.538 -20.914  0.00  0.00    -0.208 NA
ATOM     25  O   UNL d   1      33.240  22.289 -21.894  0.00  0.00    -0.265 OA
BRANCH  24  26
ATOM     26  C   UNL d   1      32.455  22.227 -20.446  0.00  0.00     0.085 A 
ATOM     27  C   UNL d   1      31.771  22.687 -20.480  0.00  0.00     0.019 A 
ATOM     28  C   UNL d   1      31.721  23.370 -20.007  0.00  0.00     0.002 A 
ATOM     29  C   UNL d   1      32.346  23.578 -19.516  0.00  0.00     0.000 A 
ATOM     30  C   UNL d   1      33.016  23.104 -19.499  0.00  0.00     0.002 A 
ATOM     31  C   UNL d   1      33.076  22.437 -19.955  0.00  0.00     0.019 A 
ENDBRANCH  24  26
ENDBRANCH   1  23
TORSDOF 8
ENDMDL
