MODEL 1
REMARK VINA RESULT:      44.4      0.000      0.000
REMARK  5 active torsions:
REMARK  status: ('A' for Active; 'I' for Inactive)
REMARK    1  A    between atoms: C_3  and  N_1 
REMARK       I    between atoms: C_2  and  N_4 
REMARK    2  A    between atoms: C_10  and  C_2 
REMARK    3  A    between atoms: N_4  and  C_9 
REMARK    4  A    between atoms: C_13  and  C_10 
REMARK    5  A    between atoms: C_16  and  C_13 
ROOT
ATOM      1  C   UNL d   1      14.008  15.462  -4.602  0.00  0.00     0.064 A 
ATOM      2  C   UNL d   1      13.330  15.088  -4.904  0.00  0.00     0.020 A 
ATOM      3  C   UNL d   1      14.466  15.080  -4.032  0.00  0.00     0.020 A 
ATOM      4  C   UNL d   1      13.570  13.961  -4.073  0.00  0.00     0.135 A 
ATOM      5  C   UNL d   1      14.248  14.324  -3.765  0.00  0.00     0.034 A 
ATOM      6  C   UNL d   1      13.116  14.339  -4.637  0.00  0.00     0.034 A 
ENDROOT
BRANCH   4   7
ATOM      7  N   UNL d   1      13.352  13.212  -3.808  0.00  0.00    -0.365 NA
ATOM      8  C   UNL d   1      13.131  12.456  -3.544  0.00  0.00     0.328 C 
ATOM      9  O   UNL d   1      12.897  11.883  -4.089  0.00  0.00    -0.251 OA
BRANCH   8  10
ATOM     10  C   UNL d   1      13.147  12.278  -2.739  0.00  0.00     0.076 C 
BRANCH  10  11
ATOM     11  C   UNL d   1      13.722  11.780  -2.437  0.00  0.00     0.006 C 
BRANCH  11  12
ATOM     12  C   UNL d   1      13.909  11.802  -1.633  0.00  0.00     0.000 A 
ATOM     13  C   UNL d   1      13.305  11.780  -1.070  0.00  0.00     0.000 A 
ATOM     14  C   UNL d   1      13.486  11.802  -0.260  0.00  0.00     0.000 A 
ATOM     15  C   UNL d   1      14.273  11.846  -0.017  0.00  0.00     0.000 A 
ATOM     16  C   UNL d   1      14.880  11.868  -0.585  0.00  0.00     0.000 A 
ATOM     17  C   UNL d   1      14.696  11.846  -1.391  0.00  0.00     0.000 A 
ENDBRANCH  11  12
ENDBRANCH  10  11
ENDBRANCH   8  10
ENDBRANCH   4   7
BRANCH   1  18
ATOM     18  N   UNL d   1      14.222  16.210  -4.869  0.00  0.00    -0.300 N 
ATOM     19  C   UNL d   1      13.932  16.481  -5.592  0.00  0.00     0.107 A 
ATOM     20  C   UNL d   1      14.145  17.230  -5.860  0.00  0.00     0.142 A 
ATOM     21  O   UNL d   1      14.642  17.703  -5.412  0.00  0.00    -0.300 OA
ATOM     22  C   UNL d   1      14.932  17.432  -4.688  0.00  0.00     0.142 A 
ATOM     23  C   UNL d   1      14.720  16.680  -4.415  0.00  0.00     0.107 A 
ENDBRANCH   1  18
TORSDOF 5
ENDMDL
MODEL 2
REMARK VINA RESULT:      45.7      2.869      3.680
REMARK  5 active torsions:
REMARK  status: ('A' for Active; 'I' for Inactive)
REMARK    1  A    between atoms: C_3  and  N_1 
REMARK       I    between atoms: C_2  and  N_4 
REMARK    2  A    between atoms: C_10  and  C_2 
REMARK    3  A    between atoms: N_4  and  C_9 
REMARK    4  A    between atoms: C_13  and  C_10 
REMARK    5  A    between atoms: C_16  and  C_13 
ROOT
ATOM      1  C   UNL d   1      15.050  15.380  -0.747  0.00  0.00     0.064 A 
ATOM      2  C   UNL d   1      14.283  15.156  -0.972  0.00  0.00     0.020 A 
ATOM      3  C   UNL d   1      15.595  14.803  -0.520  0.00  0.00     0.020 A 
ATOM      4  C   UNL d   1      14.604  13.791  -0.744  0.00  0.00     0.135 A 
ATOM      5  C   UNL d   1      15.372  14.003  -0.518  0.00  0.00     0.034 A 
ATOM      6  C   UNL d   1      14.064  14.362  -0.969  0.00  0.00     0.034 A 
ENDROOT
BRANCH   4   7
ATOM      7  N   UNL d   1      14.381  12.998  -0.742  0.00  0.00    -0.365 NA
ATOM      8  C   UNL d   1      14.156  12.198  -0.739  0.00  0.00     0.328 C 
ATOM      9  O   UNL d   1      13.985  11.823  -0.024  0.00  0.00    -0.251 OA
BRANCH   8  10
ATOM     10  C   UNL d   1      14.104  11.780  -1.447  0.00  0.00     0.076 C 
BRANCH  10  11
ATOM     11  C   UNL d   1      13.412  11.791  -1.884  0.00  0.00     0.006 C 
BRANCH  11  12
ATOM     12  C   UNL d   1      13.437  11.921  -2.698  0.00  0.00     0.000 A 
ATOM     13  C   UNL d   1      14.134  12.193  -3.049  0.00  0.00     0.000 A 
ATOM     14  C   UNL d   1      14.166  12.326  -3.869  0.00  0.00     0.000 A 
ATOM     15  C   UNL d   1      13.499  12.185  -4.333  0.00  0.00     0.000 A 
ATOM     16  C   UNL d   1      12.799  11.911  -3.978  0.00  0.00     0.000 A 
ATOM     17  C   UNL d   1      12.770  11.780  -3.163  0.00  0.00     0.000 A 
ENDBRANCH  11  12
ENDBRANCH  10  11
ENDBRANCH   8  10
ENDBRANCH   4   7
BRANCH   1  18
ATOM     18  N   UNL d   1      15.268  16.173  -0.750  0.00  0.00    -0.300 N 
ATOM     19  C   UNL d   1      14.685  16.755  -0.695  0.00  0.00     0.107 A 
ATOM     20  C   UNL d   1      14.902  17.549  -0.698  0.00  0.00     0.142 A 
ATOM     21  O   UNL d   1      15.691  17.762  -0.756  0.00  0.00    -0.300 OA
ATOM     22  C   UNL d   1      16.274  17.180  -0.812  0.00  0.00     0.142 A 
ATOM     23  C   UNL d   1      16.062  16.381  -0.809  0.00  0.00     0.107 A 
ENDBRANCH   1  18
TORSDOF 5
ENDMDL
