MODEL 1
REMARK VINA RESULT:      44.4      0.000      0.000
REMARK  8 active torsions:
REMARK  status: ('A' for Active; 'I' for Inactive)
REMARK    1  A    between atoms: N_2  and  S_1 
REMARK    2  A    between atoms: C_5  and  S_1 
REMARK    3  A    between atoms: C_11  and  C_3 
REMARK       I    between atoms: C_4  and  N_9 
REMARK    4  A    between atoms: C_6  and  C_4 
REMARK       I    between atoms: N_16  and  C_6 
REMARK    5  A    between atoms: N_9  and  C_11 
REMARK    6  A    between atoms: N_10  and  C_25 
REMARK    7  A    between atoms: C_24  and  N_16 
REMARK    8  A    between atoms: C_25  and  C_24 
ROOT
ATOM      1  N   UNL d   1      13.379  12.410  -4.024  0.00  0.00    -0.209 N 
ATOM      2  C   UNL d   1      13.129  13.145  -4.296  0.00  0.00     0.197 A 
ATOM      3  O   UNL d   1      12.980  13.277  -5.085  0.00  0.00    -0.287 OA
ATOM      4  C   UNL d   1      13.483  11.782  -4.565  0.00  0.00     0.096 A 
ATOM      5  C   UNL d   1      13.330  11.914  -5.377  0.00  0.00     0.047 A 
ATOM      6  C   UNL d   1      13.081  12.656  -5.630  0.00  0.00     0.126 A 
ENDROOT
BRANCH   2   7
ATOM      7  C   UNL d   1      13.028  13.769  -3.745  0.00  0.00     0.146 C 
BRANCH   7   8
ATOM      8  N   UNL d   1      13.631  14.315  -3.626  0.00  0.00    -0.199 NA
ATOM      9  C   UNL d   1      13.594  15.061  -3.962  0.00  0.00     0.337 C 
ATOM     10  O   UNL d   1      12.938  15.257  -4.425  0.00  0.00    -0.260 OA
BRANCH   9  11
ATOM     11  C   UNL d   1      14.194  15.604  -3.845  0.00  0.00     0.337 C 
ATOM     12  O   UNL d   1      14.698  15.801  -4.468  0.00  0.00    -0.260 OA
ATOM     13  N   UNL d   1      14.295  15.952  -3.111  0.00  0.00    -0.201 NA
BRANCH  13  14
ATOM     14  C   UNL d   1      14.891  16.492  -2.994  0.00  0.00     0.121 C 
BRANCH  14  15
ATOM     15  C   UNL d   1      14.822  17.074  -2.413  0.00  0.00     0.101 C 
BRANCH  15  16
ATOM     16  N   UNL d   1      15.129  16.933  -1.657  0.00  0.00    -0.298 N 
ATOM     17  C   UNL d   1      15.150  17.539  -1.107  0.00  0.00     0.107 A 
ATOM     18  C   UNL d   1      15.457  17.409  -0.342  0.00  0.00     0.142 A 
ATOM     19  O   UNL d   1      15.740  16.663  -0.144  0.00  0.00    -0.300 OA
ATOM     20  C   UNL d   1      15.710  16.050  -0.724  0.00  0.00     0.142 A 
ATOM     21  C   UNL d   1      15.414  16.184  -1.455  0.00  0.00     0.107 A 
ENDBRANCH  15  16
ENDBRANCH  14  15
ENDBRANCH  13  14
ENDBRANCH   9  11
ENDBRANCH   7   8
ENDBRANCH   2   7
BRANCH   1  22
ATOM     22  S   UNL d   1      13.528  12.283  -3.225  0.00  0.00     0.273 S 
ATOM     23  O   UNL d   1      12.873  11.779  -3.182  0.00  0.00    -0.200 OA
ATOM     24  O   UNL d   1      14.180  12.786  -3.269  0.00  0.00    -0.200 OA
BRANCH  22  25
ATOM     25  C   UNL d   1      13.681  12.157  -2.418  0.00  0.00     0.104 A 
ATOM     26  C   UNL d   1      14.429  12.277  -2.123  0.00  0.00     0.015 A 
ATOM     27  C   UNL d   1      14.587  12.152  -1.315  0.00  0.00     0.030 A 
ATOM     28  C   UNL d   1      13.978  11.907  -0.819  0.00  0.00     0.140 A 
ATOM     29  C   UNL d   1      13.204  11.781  -1.116  0.00  0.00     0.030 A 
ATOM     30  F   UNL d   1      14.130  11.782  -0.017  0.00  0.00    -0.204 F 
ATOM     31  C   UNL d   1      13.065  11.909  -1.916  0.00  0.00     0.015 A 
ENDBRANCH  22  25
ENDBRANCH   1  22
TORSDOF 8
ENDMDL
MODEL 2
REMARK VINA RESULT:      45.7      2.072      2.904
REMARK  8 active torsions:
REMARK  status: ('A' for Active; 'I' for Inactive)
REMARK    1  A    between atoms: N_2  and  S_1 
REMARK    2  A    between atoms: C_5  and  S_1 
REMARK    3  A    between atoms: C_11  and  C_3 
REMARK       I    between atoms: C_4  and  N_9 
REMARK    4  A    between atoms: C_6  and  C_4 
REMARK       I    between atoms: N_16  and  C_6 
REMARK    5  A    between atoms: N_9  and  C_11 
REMARK    6  A    between atoms: N_10  and  C_25 
REMARK    7  A    between atoms: C_24  and  N_16 
REMARK    8  A    between atoms: C_25  and  C_24 
ROOT
ATOM      1  N   UNL d   1      13.397  12.552  -3.827  0.00  0.00    -0.209 N 
ATOM      2  C   UNL d   1      13.357  13.221  -4.305  0.00  0.00     0.197 A 
ATOM      3  O   UNL d   1      13.049  13.186  -5.058  0.00  0.00    -0.287 OA
ATOM      4  C   UNL d   1      13.118  11.819  -4.116  0.00  0.00     0.096 A 
ATOM      5  C   UNL d   1      12.801  11.780  -4.890  0.00  0.00     0.047 A 
ATOM      6  C   UNL d   1      12.769  12.460  -5.353  0.00  0.00     0.126 A 
ENDROOT
BRANCH   2   7
ATOM      7  C   UNL d   1      13.640  13.951  -4.006  0.00  0.00     0.146 C 
BRANCH   7   8
ATOM      8  N   UNL d   1      13.958  14.510  -4.518  0.00  0.00    -0.199 NA
ATOM      9  C   UNL d   1      14.063  15.286  -4.280  0.00  0.00     0.337 C 
ATOM     10  O   UNL d   1      13.844  15.500  -3.512  0.00  0.00    -0.260 OA
BRANCH   9  11
ATOM     11  C   UNL d   1      14.379  15.842  -4.789  0.00  0.00     0.337 C 
ATOM     12  O   UNL d   1      14.986  15.628  -5.306  0.00  0.00    -0.260 OA
ATOM     13  N   UNL d   1      14.094  16.610  -4.788  0.00  0.00    -0.201 NA
BRANCH  13  14
ATOM     14  C   UNL d   1      14.408  17.162  -5.295  0.00  0.00     0.121 C 
BRANCH  14  15
ATOM     15  C   UNL d   1      13.935  17.524  -5.866  0.00  0.00     0.101 C 
BRANCH  15  16
ATOM     16  N   UNL d   1      13.937  18.349  -5.935  0.00  0.00    -0.298 N 
ATOM     17  C   UNL d   1      14.591  18.729  -6.246  0.00  0.00     0.107 A 
ATOM     18  C   UNL d   1      14.605  19.561  -6.320  0.00  0.00     0.142 A 
ATOM     19  O   UNL d   1      13.952  19.996  -6.076  0.00  0.00    -0.300 OA
ATOM     20  C   UNL d   1      13.286  19.587  -5.757  0.00  0.00     0.142 A 
ATOM     21  C   UNL d   1      13.282  18.789  -5.690  0.00  0.00     0.107 A 
ENDBRANCH  15  16
ENDBRANCH  14  15
ENDBRANCH  13  14
ENDBRANCH   9  11
ENDBRANCH   7   8
ENDBRANCH   2   7
BRANCH   1  22
ATOM     22  S   UNL d   1      13.709  12.594  -3.068  0.00  0.00     0.273 S 
ATOM     23  O   UNL d   1      14.368  13.000  -3.360  0.00  0.00    -0.200 OA
ATOM     24  O   UNL d   1      13.052  12.189  -2.778  0.00  0.00    -0.200 OA
BRANCH  22  25
ATOM     25  C   UNL d   1      14.022  12.634  -2.299  0.00  0.00     0.104 A 
ATOM     26  C   UNL d   1      13.745  12.135  -1.720  0.00  0.00     0.015 A 
ATOM     27  C   UNL d   1      14.055  12.172  -0.949  0.00  0.00     0.030 A 
ATOM     28  C   UNL d   1      14.645  12.720  -0.778  0.00  0.00     0.140 A 
ATOM     29  C   UNL d   1      14.936  13.238  -1.369  0.00  0.00     0.030 A 
ATOM     30  F   UNL d   1      14.955  12.760  -0.014  0.00  0.00    -0.204 F 
ATOM     31  C   UNL d   1      14.619  13.189  -2.126  0.00  0.00     0.015 A 
ENDBRANCH  22  25
ENDBRANCH   1  22
TORSDOF 8
ENDMDL
