MODEL 1
REMARK VINA RESULT:       2.1      0.000      0.000
REMARK  4 active torsions:
REMARK  status: ('A' for Active; 'I' for Inactive)
REMARK    1  A    between atoms: N_8  and  C_1 
REMARK    2  A    between atoms: C_13  and  C_2 
REMARK    3  A    between atoms: C_6  and  C_11 
REMARK       I    between atoms: C_11  and  N_8 
REMARK    4  A    between atoms: O_20  and  C_13 
ROOT
ATOM      1  C   UNL d   1      58.213   0.508  31.453  0.00  0.00     0.119 A 
ATOM      2  C   UNL d   1      58.243   0.246  30.670  0.00  0.00     0.087 A 
ATOM      3  C   UNL d   1      59.032   0.198  30.455  0.00  0.00     0.008 A 
ATOM      4  C   UNL d   1      59.491   0.424  31.089  0.00  0.00     0.028 A 
ATOM      5  S   UNL d   1      58.988   0.619  31.716  0.00  0.00    -0.070 SA
ATOM      6  C   UNL d   1      60.319   0.429  31.031  0.00  0.00     0.104 A 
ATOM      7  N   UNL d   1      60.679   0.203  30.326  0.00  0.00    -0.294 NA
ATOM      8  C   UNL d   1      60.213  -0.027  29.681  0.00  0.00     0.099 A 
ATOM      9  C   UNL d   1      59.389  -0.030  29.743  0.00  0.00    -0.004 A 
ATOM     10  C   UNL d   1      61.133   0.498  31.164  0.00  0.00     0.029 C 
ATOM     11  C   UNL d   1      60.163   0.682  31.800  0.00  0.00     0.029 C 
ATOM     12  C   UNL d   1      59.748  -0.256  29.037  0.00  0.00     0.029 C 
ATOM     13  C   UNL d   1      61.034  -0.025  29.614  0.00  0.00     0.029 C 
ENDROOT
BRANCH   1  14
ATOM     14  N   UNL d   1      57.529   0.638  31.901  0.00  0.00    -0.200 NA
ATOM     15  C   UNL d   1      57.315   0.104  32.492  0.00  0.00     0.303 C 
ATOM     16  O   UNL d   1      57.782  -0.558  32.634  0.00  0.00    -0.263 OA
BRANCH  15  17
ATOM     17  C   UNL d   1      56.641   0.231  32.933  0.00  0.00     0.169 A 
ATOM     18  N   UNL d   1      55.868   0.344  32.647  0.00  0.00    -0.234 NA
ATOM     19  C   UNL d   1      55.368   0.453  33.304  0.00  0.00     0.088 A 
ATOM     20  C   UNL d   1      54.557   0.587  33.371  0.00  0.00     0.020 A 
ATOM     21  C   UNL d   1      55.852   0.404  33.974  0.00  0.00     0.049 A 
ATOM     22  C   UNL d   1      54.221   0.673  34.115  0.00  0.00     0.002 A 
ATOM     23  C   UNL d   1      54.692   0.626  34.793  0.00  0.00     0.001 A 
ATOM     24  C   UNL d   1      55.498   0.493  34.725  0.00  0.00     0.008 A 
ATOM     25  S   UNL d   1      56.615   0.270  33.738  0.00  0.00    -0.062 SA
ENDBRANCH  15  17
ENDBRANCH   1  14
BRANCH   2  26
ATOM     26  C   UNL d   1      57.591   0.071  30.206  0.00  0.00     0.298 C 
ATOM     27  O   UNL d   1      57.363  -0.720  30.115  0.00  0.00    -0.259 OA
BRANCH  26  28
ATOM     28  O   UNL d   1      57.163   0.679  29.828  0.00  0.00    -0.296 OA
ATOM     29  C   UNL d   1      57.009   0.633  29.021  0.00  0.00     0.185 C 
ENDBRANCH  26  28
ENDBRANCH   2  26
TORSDOF 4
ENDMDL
