MODEL 1
REMARK VINA RESULT:      -9.8      0.000      0.000
REMARK  5 active torsions:
REMARK  status: ('A' for Active; 'I' for Inactive)
REMARK    1  A    between atoms: S_2  and  C_1 
REMARK    2  A    between atoms: N_3  and  C_1 
REMARK    3  A    between atoms: C_4  and  C_1 
REMARK    4  A    between atoms: C_6  and  S_2 
REMARK       I    between atoms: C_5  and  N_3 
REMARK    5  A    between atoms: C_9  and  C_5 
ROOT
ATOM      1  C   UNL d   1      53.556  32.271  53.558  0.00  0.00     0.193 C 
ENDROOT
BRANCH   1   2
ATOM      2  S   UNL d   1      53.504  31.504  53.788  0.00  0.00     0.228 S 
ATOM      3  O   UNL d   1      53.627  31.713  54.579  0.00  0.00    -0.216 OA
ATOM      4  O   UNL d   1      53.395  31.320  53.089  0.00  0.00    -0.216 OA
BRANCH   2   5
ATOM      5  C   UNL d   1      53.453  30.829  53.954  0.00  0.00     0.090 A 
ATOM      6  C   UNL d   1      53.358  30.567  54.759  0.00  0.00     0.012 A 
ATOM      7  C   UNL d   1      53.298  29.734  54.940  0.00  0.00     0.012 A 
ATOM      8  C   UNL d   1      53.332  29.168  54.314  0.00  0.00     0.058 A 
ATOM      9  C   UNL d   1      53.425  29.417  53.524  0.00  0.00     0.012 A 
ATOM     10 CL   UNL d   1      53.286  28.564  54.473  0.00  0.00    -0.082 Cl
ATOM     11  C   UNL d   1      53.486  30.251  53.343  0.00  0.00     0.012 A 
ENDBRANCH   2   5
ENDBRANCH   1   2
BRANCH   1  12
ATOM     12  N   UNL d   1      52.942  32.612  53.076  0.00  0.00    -0.195 NA
ATOM     13  C   UNL d   1      52.441  33.253  53.340  0.00  0.00     0.280 C 
ATOM     14  O   UNL d   1      52.567  33.574  54.146  0.00  0.00    -0.265 OA
BRANCH  13  15
ATOM     15  C   UNL d   1      51.901  33.610  53.020  0.00  0.00     0.058 A 
ATOM     16  C   UNL d   1      51.200  33.476  53.433  0.00  0.00     0.005 A 
ATOM     17  C   UNL d   1      50.496  33.820  53.184  0.00  0.00     0.000 A 
ATOM     18  C   UNL d   1      50.501  34.301  52.514  0.00  0.00     0.000 A 
ATOM     19  C   UNL d   1      51.202  34.434  52.101  0.00  0.00     0.000 A 
ATOM     20  C   UNL d   1      49.949  34.531  52.373  0.00  0.00     0.000 C 
ATOM     21  C   UNL d   1      51.898  34.087  52.357  0.00  0.00     0.005 A 
ENDBRANCH  13  15
ENDBRANCH   1  12
BRANCH   1  22
ATOM     22  C   UNL d   1      54.217  32.706  53.803  0.00  0.00     0.144 C 
ATOM     23 CL   UNL d   1      54.868  32.845  53.242  0.00  0.00    -0.068 Cl
ATOM     24 CL   UNL d   1      54.283  33.024  54.588  0.00  0.00    -0.068 Cl
ENDBRANCH   1  22
TORSDOF 5
ENDMDL
MODEL 2
REMARK VINA RESULT:      -9.5      1.938      4.506
REMARK  5 active torsions:
REMARK  status: ('A' for Active; 'I' for Inactive)
REMARK    1  A    between atoms: S_2  and  C_1 
REMARK    2  A    between atoms: N_3  and  C_1 
REMARK    3  A    between atoms: C_4  and  C_1 
REMARK    4  A    between atoms: C_6  and  S_2 
REMARK       I    between atoms: C_5  and  N_3 
REMARK    5  A    between atoms: C_9  and  C_5 
ROOT
ATOM      1  C   UNL d   1      52.024  33.906  53.287  0.00  0.00     0.193 C 
ENDROOT
BRANCH   1   2
ATOM      2  S   UNL d   1      51.351  34.104  52.897  0.00  0.00     0.228 S 
ATOM      3  O   UNL d   1      51.786  34.420  52.267  0.00  0.00    -0.216 OA
ATOM      4  O   UNL d   1      50.967  33.826  53.453  0.00  0.00    -0.216 OA
BRANCH   2   5
ATOM      5  C   UNL d   1      50.748  34.263  52.585  0.00  0.00     0.090 A 
ATOM      6  C   UNL d   1      50.618  34.124  51.755  0.00  0.00     0.012 A 
ATOM      7  C   UNL d   1      49.870  34.326  51.393  0.00  0.00     0.012 A 
ATOM      8  C   UNL d   1      49.258  34.666  51.864  0.00  0.00     0.058 A 
ATOM      9  C   UNL d   1      49.379  34.805  52.677  0.00  0.00     0.012 A 
ATOM     10 CL   UNL d   1      48.720  34.805  51.576  0.00  0.00    -0.082 Cl
ATOM     11  C   UNL d   1      50.126  34.603  53.039  0.00  0.00     0.012 A 
ENDBRANCH   2   5
ENDBRANCH   1   2
BRANCH   1  12
ATOM     12  N   UNL d   1      52.162  33.095  53.508  0.00  0.00    -0.195 NA
ATOM     13  C   UNL d   1      52.850  32.652  53.257  0.00  0.00     0.280 C 
ATOM     14  O   UNL d   1      53.441  33.054  52.748  0.00  0.00    -0.265 OA
BRANCH  13  15
ATOM     15  C   UNL d   1      53.062  31.973  53.384  0.00  0.00     0.058 A 
ATOM     16  C   UNL d   1      52.649  31.460  52.889  0.00  0.00     0.005 A 
ATOM     17  C   UNL d   1      52.786  30.649  52.920  0.00  0.00     0.000 A 
ATOM     18  C   UNL d   1      53.343  30.358  53.454  0.00  0.00     0.000 A 
ATOM     19  C   UNL d   1      53.756  30.872  53.948  0.00  0.00     0.000 A 
ATOM     20  C   UNL d   1      53.405  29.747  53.435  0.00  0.00     0.000 C 
ATOM     21  C   UNL d   1      53.612  31.677  53.910  0.00  0.00     0.005 A 
ENDBRANCH  13  15
ENDBRANCH   1  12
BRANCH   1  22
ATOM     22  C   UNL d   1      52.564  34.509  53.461  0.00  0.00     0.144 C 
ATOM     23 CL   UNL d   1      52.664  34.767  54.286  0.00  0.00    -0.068 Cl
ATOM     24 CL   UNL d   1      53.028  34.888  52.858  0.00  0.00    -0.068 Cl
ENDBRANCH   1  22
TORSDOF 5
ENDMDL
MODEL 3
REMARK VINA RESULT:      -9.3      1.212      4.208
REMARK  5 active torsions:
REMARK  status: ('A' for Active; 'I' for Inactive)
REMARK    1  A    between atoms: S_2  and  C_1 
REMARK    2  A    between atoms: N_3  and  C_1 
REMARK    3  A    between atoms: C_4  and  C_1 
REMARK    4  A    between atoms: C_6  and  S_2 
REMARK       I    between atoms: C_5  and  N_3 
REMARK    5  A    between atoms: C_9  and  C_5 
ROOT
ATOM      1  C   UNL d   1      53.203  32.612  53.371  0.00  0.00     0.193 C 
ENDROOT
BRANCH   1   2
ATOM      2  S   UNL d   1      52.547  33.039  53.194  0.00  0.00     0.228 S 
ATOM      3  O   UNL d   1      52.535  33.372  53.952  0.00  0.00    -0.216 OA
ATOM      4  O   UNL d   1      52.558  32.746  52.525  0.00  0.00    -0.216 OA
BRANCH   2   5
ATOM      5  C   UNL d   1      51.978  33.396  53.007  0.00  0.00     0.090 A 
ATOM      6  C   UNL d   1      51.976  33.928  52.342  0.00  0.00     0.012 A 
ATOM      7  C   UNL d   1      51.266  34.356  52.131  0.00  0.00     0.012 A 
ATOM      8  C   UNL d   1      50.564  34.248  52.587  0.00  0.00     0.058 A 
ATOM      9  C   UNL d   1      50.559  33.729  53.239  0.00  0.00     0.012 A 
ATOM     10 CL   UNL d   1      50.058  34.572  52.412  0.00  0.00    -0.082 Cl
ATOM     11  C   UNL d   1      51.269  33.301  53.450  0.00  0.00     0.012 A 
ENDBRANCH   2   5
ENDBRANCH   1   2
BRANCH   1  12
ATOM     12  N   UNL d   1      53.184  31.763  53.311  0.00  0.00    -0.195 NA
ATOM     13  C   UNL d   1      53.358  31.242  53.967  0.00  0.00     0.280 C 
ATOM     14  O   UNL d   1      53.565  31.602  54.740  0.00  0.00    -0.265 OA
BRANCH  13  15
ATOM     15  C   UNL d   1      53.371  30.522  54.025  0.00  0.00     0.058 A 
ATOM     16  C   UNL d   1      53.327  30.310  54.820  0.00  0.00     0.005 A 
ATOM     17  C   UNL d   1      53.332  29.518  55.042  0.00  0.00     0.000 A 
ATOM     18  C   UNL d   1      53.382  28.939  54.457  0.00  0.00     0.000 A 
ATOM     19  C   UNL d   1      53.426  29.152  53.662  0.00  0.00     0.000 A 
ATOM     20  C   UNL d   1      53.382  28.366  54.677  0.00  0.00     0.000 C 
ATOM     21  C   UNL d   1      53.420  29.944  53.451  0.00  0.00     0.005 A 
ENDBRANCH  13  15
ENDBRANCH   1  12
BRANCH   1  22
ATOM     22  C   UNL d   1      53.882  33.023  53.609  0.00  0.00     0.144 C 
ATOM     23 CL   UNL d   1      54.577  33.037  53.086  0.00  0.00    -0.068 Cl
ATOM     24 CL   UNL d   1      53.923  33.434  54.351  0.00  0.00    -0.068 Cl
ENDBRANCH   1  22
TORSDOF 5
ENDMDL
MODEL 4
REMARK VINA RESULT:      -8.6      1.570      2.490
REMARK  5 active torsions:
REMARK  status: ('A' for Active; 'I' for Inactive)
REMARK    1  A    between atoms: S_2  and  C_1 
REMARK    2  A    between atoms: N_3  and  C_1 
REMARK    3  A    between atoms: C_4  and  C_1 
REMARK    4  A    between atoms: C_6  and  S_2 
REMARK       I    between atoms: C_5  and  N_3 
REMARK    5  A    between atoms: C_9  and  C_5 
ROOT
ATOM      1  C   UNL d   1      52.876  32.453  53.139  0.00  0.00     0.193 C 
ENDROOT
BRANCH   1   2
ATOM      2  S   UNL d   1      53.434  32.720  53.650  0.00  0.00     0.228 S 
ATOM      3  O   UNL d   1      53.098  32.289  54.272  0.00  0.00    -0.216 OA
ATOM      4  O   UNL d   1      53.731  33.100  53.100  0.00  0.00    -0.216 OA
BRANCH   2   5
ATOM      5  C   UNL d   1      53.934  32.970  54.067  0.00  0.00     0.090 A 
ATOM      6  C   UNL d   1      53.832  33.024  54.911  0.00  0.00     0.012 A 
ATOM      7  C   UNL d   1      54.458  33.335  55.404  0.00  0.00     0.012 A 
ATOM      8  C   UNL d   1      55.181  33.589  55.049  0.00  0.00     0.058 A 
ATOM      9  C   UNL d   1      55.286  33.539  54.224  0.00  0.00     0.012 A 
ATOM     10 CL   UNL d   1      55.623  33.813  55.431  0.00  0.00    -0.082 Cl
ATOM     11  C   UNL d   1      54.660  33.229  53.731  0.00  0.00     0.012 A 
ENDBRANCH   2   5
ENDBRANCH   1   2
BRANCH   1  12
ATOM     12  N   UNL d   1      52.403  33.009  52.700  0.00  0.00    -0.195 NA
ATOM     13  C   UNL d   1      51.575  33.151  52.864  0.00  0.00     0.280 C 
ATOM     14  O   UNL d   1      51.197  32.703  53.516  0.00  0.00    -0.265 OA
BRANCH  13  15
ATOM     15  C   UNL d   1      51.090  33.591  52.560  0.00  0.00     0.058 A 
ATOM     16  C   UNL d   1      50.516  33.793  53.116  0.00  0.00     0.005 A 
ATOM     17  C   UNL d   1      49.894  34.291  52.913  0.00  0.00     0.000 A 
ATOM     18  C   UNL d   1      49.853  34.587  52.144  0.00  0.00     0.000 A 
ATOM     19  C   UNL d   1      50.427  34.385  51.588  0.00  0.00     0.000 A 
ATOM     20  C   UNL d   1      49.370  34.953  52.048  0.00  0.00     0.000 C 
ATOM     21  C   UNL d   1      51.043  33.888  51.801  0.00  0.00     0.005 A 
ENDBRANCH  13  15
ENDBRANCH   1  12
BRANCH   1  22
ATOM     22  C   UNL d   1      52.783  31.633  53.059  0.00  0.00     0.144 C 
ATOM     23 CL   UNL d   1      53.100  31.235  52.353  0.00  0.00    -0.068 Cl
ATOM     24 CL   UNL d   1      52.385  31.165  53.645  0.00  0.00    -0.068 Cl
ENDBRANCH   1  22
TORSDOF 5
ENDMDL
