MODEL 1
REMARK VINA RESULT:      -6.5      0.000      0.000
REMARK  7 active torsions:
REMARK  status: ('A' for Active; 'I' for Inactive)
REMARK    1  A    between atoms: O_8  and  C_2 
REMARK    2  A    between atoms: C_10  and  C_5 
REMARK    3  A    between atoms: C_21  and  O_8 
REMARK    4  A    between atoms: N_9  and  C_10 
REMARK    5  A    between atoms: C_12  and  C_15 
REMARK    6  A    between atoms: O_26  and  C_12 
REMARK    7  A    between atoms: C_32  and  O_26 
ROOT
ATOM      1  C   UNL d   1     -48.386  13.008  22.366  0.00  0.00     0.108 A 
ATOM      2  C   UNL d   1     -46.937  12.762  23.141  0.00  0.00     0.161 A 
ATOM      3  C   UNL d   1     -48.174  12.241  22.627  0.00  0.00     0.064 A 
ATOM      4  C   UNL d   1     -47.459  12.119  23.010  0.00  0.00     0.222 A 
ATOM      5  C   UNL d   1     -49.110  13.132  21.979  0.00  0.00     0.079 A 
ATOM      6  O   UNL d   1     -47.876  13.651  22.491  0.00  0.00    -0.305 OA
ATOM      7  C   UNL d   1     -47.146  13.522  22.882  0.00  0.00     0.126 A 
ATOM      8  C   UNL d   1     -48.699  11.610  22.493  0.00  0.00     0.009 A 
ATOM      9  C   UNL d   1     -49.623  12.500  21.850  0.00  0.00     0.199 A 
ATOM     10  O   UNL d   1     -47.247  11.364  23.269  0.00  0.00    -0.284 OA
ATOM     11  C   UNL d   1     -49.416  11.735  22.108  0.00  0.00     0.042 A 
ATOM     12  O   UNL d   1     -50.338  12.619  21.469  0.00  0.00    -0.286 OA
ATOM     13  C   UNL d   1     -46.633  14.153  23.011  0.00  0.00     0.029 C 
ENDROOT
BRANCH   2  14
ATOM     14  O   UNL d   1     -46.220  12.636  23.525  0.00  0.00    -0.302 OA
BRANCH  14  15
ATOM     15  C   UNL d   1     -45.529  12.550  23.087  0.00  0.00     0.100 A 
ATOM     16  C   UNL d   1     -45.227  13.191  22.666  0.00  0.00     0.025 A 
ATOM     17  C   UNL d   1     -44.536  13.105  22.228  0.00  0.00     0.007 A 
ATOM     18  C   UNL d   1     -44.146  12.378  22.209  0.00  0.00     0.064 A 
ATOM     19  C   UNL d   1     -44.456  11.732  22.637  0.00  0.00     0.007 A 
ATOM     20  C   UNL d   1     -45.142  11.822  23.070  0.00  0.00     0.025 A 
BRANCH  18  21
ATOM     21  C   UNL d   1     -43.452  12.288  21.770  0.00  0.00     0.300 C 
ATOM     22  O   UNL d   1     -42.952  11.647  21.909  0.00  0.00    -0.259 OA
BRANCH  21  23
ATOM     23  O   UNL d   1     -43.251  12.839  21.188  0.00  0.00    -0.271 OA
BRANCH  23  24
ATOM     24  C   UNL d   1     -42.502  12.813  20.844  0.00  0.00     0.126 C 
ATOM     25  C   UNL d   1     -42.079  13.507  20.713  0.00  0.00     0.029 C 
ENDBRANCH  23  24
ENDBRANCH  21  23
ENDBRANCH  18  21
ENDBRANCH  14  15
ENDBRANCH   2  14
BRANCH   5  26
ATOM     26  C   UNL d   1     -49.312  13.881  21.726  0.00  0.00     0.086 C 
BRANCH  26  27
ATOM     27  N   UNL d   1     -49.751  14.379  22.220  0.00  0.00    -0.300 N 
ATOM     28  C   UNL d   1     -49.638  15.195  22.186  0.00  0.00     0.100 A 
ATOM     29  C   UNL d   1     -50.074  15.688  22.676  0.00  0.00     0.100 A 
ATOM     30  N   UNL d   1     -50.622  15.373  23.201  0.00  0.00    -0.299 N 
ATOM     31  C   UNL d   1     -50.735  14.553  23.235  0.00  0.00     0.100 A 
ATOM     32  C   UNL d   1     -51.064  15.872  23.698  0.00  0.00     0.100 C 
ATOM     33  C   UNL d   1     -50.296  14.054  22.742  0.00  0.00     0.100 A 
ENDBRANCH  26  27
ENDBRANCH   5  26
TORSDOF 7
ENDMDL
