MODEL 1
REMARK VINA RESULT:      64.7      0.000      0.000
REMARK  5 active torsions:
REMARK  status: ('A' for Active; 'I' for Inactive)
REMARK    1  A    between atoms: C_18  and  N_1 
REMARK    2  A    between atoms: C_13  and  C_6 
REMARK    3  A    between atoms: C_12  and  C_7 
REMARK    4  A    between atoms: C_23  and  C_14 
REMARK    5  A    between atoms: C_19  and  C_18 
ROOT
ATOM      1  C   UNL d   1      13.430  12.155  -4.073  0.00  0.00     0.121 A 
ATOM      2  C   UNL d   1      13.480  12.968  -4.227  0.00  0.00     0.058 A 
ATOM      3  N   UNL d   1      13.239  11.780  -4.781  0.00  0.00    -0.195 NA
ATOM      4  S   UNL d   1      13.565  11.873  -3.312  0.00  0.00    -0.068 SA
ATOM      5  C   UNL d   1      13.751  12.396  -2.699  0.00  0.00     0.026 A 
ATOM      6  C   UNL d   1      13.801  13.209  -2.853  0.00  0.00    -0.001 A 
ATOM      7  C   UNL d   1      13.956  12.465  -1.784  0.00  0.00    -0.011 A 
ATOM      8  C   UNL d   1      13.986  13.347  -2.066  0.00  0.00    -0.027 A 
ATOM      9  C   UNL d   1      13.665  13.494  -3.620  0.00  0.00     0.008 A 
ATOM     10  C   UNL d   1      13.171  12.357  -5.369  0.00  0.00     0.311 A 
ATOM     11  S   UNL d   1      13.319  13.087  -5.029  0.00  0.00    -0.024 SA
ATOM     12  C   UNL d   1      14.054  11.999  -1.112  0.00  0.00     0.049 A 
ATOM     13  O   UNL d   1      12.986  12.218  -6.160  0.00  0.00    -0.258 OA
ENDROOT
BRANCH   9  14
ATOM     14  C   UNL d   1      13.715  14.298  -3.772  0.00  0.00     0.001 A 
ATOM     15  C   UNL d   1      14.441  14.649  -3.942  0.00  0.00     0.000 A 
ATOM     16  C   UNL d   1      14.491  15.457  -4.095  0.00  0.00     0.000 A 
ATOM     17  C   UNL d   1      13.815  15.928  -4.081  0.00  0.00     0.000 A 
ATOM     18  C   UNL d   1      13.081  15.578  -3.911  0.00  0.00     0.000 A 
ATOM     19  C   UNL d   1      13.032  14.770  -3.758  0.00  0.00     0.000 A 
ENDBRANCH   9  14
BRANCH   8  20
ATOM     20  C   UNL d   1      14.139  14.061  -1.693  0.00  0.00     0.125 A 
ATOM     21  C   UNL d   1      14.667  14.460  -1.201  0.00  0.00     0.251 A 
ATOM     22  N   UNL d   1      15.277  13.935  -1.011  0.00  0.00    -0.239 N 
ATOM     23  O   UNL d   1      14.601  15.247  -0.940  0.00  0.00    -0.271 OA
ATOM     24  C   UNL d   1      15.130  13.222  -1.379  0.00  0.00     0.263 A 
ATOM     25  C   UNL d   1      14.419  13.297  -1.807  0.00  0.00     0.044 A 
ATOM     26  O   UNL d   1      15.608  12.547  -1.331  0.00  0.00    -0.267 OA
BRANCH  22  27
ATOM     27  C   UNL d   1      15.943  14.106  -0.517  0.00  0.00     0.134 C 
ATOM     28  C   UNL d   1      16.517  13.509  -0.353  0.00  0.00     0.026 C 
BRANCH  27  29
ATOM     29  C   UNL d   1      16.034  14.883  -0.183  0.00  0.00     0.228 C 
ATOM     30  O   UNL d   1      16.809  15.181  -0.015  0.00  0.00    -0.643 OA
ATOM     31  O   UNL d   1      15.354  15.350  -0.024  0.00  0.00    -0.643 OA
ENDBRANCH  27  29
ENDBRANCH  22  27
ENDBRANCH   8  20
TORSDOF 5
ENDMDL
