MODEL 1
REMARK VINA RESULT:      -2.8      0.000      0.000
REMARK  6 active torsions:
REMARK  status: ('A' for Active; 'I' for Inactive)
REMARK       I    between atoms: C_2  and  N_1 
REMARK    1  A    between atoms: C_3  and  C_2 
REMARK    2  A    between atoms: C_12  and  C_4 
REMARK       I    between atoms: C_5  and  N_8 
REMARK    3  A    between atoms: C_6  and  C_5 
REMARK       I    between atoms: N_9  and  C_6 
REMARK    4  A    between atoms: N_8  and  C_12 
REMARK    5  A    between atoms: C_19  and  N_9 
REMARK    6  A    between atoms: C_21  and  C_19 
ROOT
ATOM      1  C   UNL d   1     -42.536-121.958 -51.118  0.00  0.00     0.337 C 
ATOM      2  N   UNL d   1     -42.472-122.384 -51.818  0.00  0.00    -0.199 NA
ATOM      3  O   UNL d   1     -42.026-121.316 -50.972  0.00  0.00    -0.260 OA
ENDROOT
BRANCH   2   4
ATOM      4  C   UNL d   1     -41.901-122.176 -52.375  0.00  0.00     0.146 C 
BRANCH   4   5
ATOM      5  C   UNL d   1     -41.699-122.713 -52.981  0.00  0.00     0.190 A 
ATOM      6  N   UNL d   1     -41.764-122.559 -53.788  0.00  0.00    -0.250 N 
ATOM      7  C   UNL d   1     -42.024-121.890 -54.210  0.00  0.00     0.272 C 
ATOM      8  C   UNL d   1     -41.506-123.240 -54.183  0.00  0.00     0.112 A 
ATOM      9  O   UNL d   1     -42.279-121.217 -53.800  0.00  0.00    -0.266 OA
ATOM     10  C   UNL d   1     -41.287-123.801 -53.622  0.00  0.00     0.144 A 
ATOM     11  O   UNL d   1     -41.411-123.463 -52.872  0.00  0.00    -0.285 OA
BRANCH   7  12
ATOM     12  C   UNL d   1     -42.028-121.895 -55.034  0.00  0.00     0.086 A 
ATOM     13  S   UNL d   1     -41.411-121.828 -55.587  0.00  0.00    -0.082 SA
ATOM     14  C   UNL d   1     -41.753-121.870 -56.352  0.00  0.00     0.036 A 
ATOM     15  C   UNL d   1     -42.569-121.960 -56.256  0.00  0.00     0.008 A 
ATOM     16  C   UNL d   1     -42.744-121.976 -55.451  0.00  0.00     0.012 A 
ENDBRANCH   7  12
ENDBRANCH   4   5
ENDBRANCH   2   4
BRANCH   1  17
ATOM     17  C   UNL d   1     -43.098-122.163 -50.569  0.00  0.00     0.337 C 
ATOM     18  N   UNL d   1     -42.886-122.482 -49.848  0.00  0.00    -0.202 NA
ATOM     19  O   UNL d   1     -43.906-122.048 -50.743  0.00  0.00    -0.260 OA
BRANCH  18  20
ATOM     20  C   UNL d   1     -42.082-122.599 -49.671  0.00  0.00     0.102 C 
BRANCH  20  21
ATOM     21  C   UNL d   1     -41.870-122.910 -48.924  0.00  0.00     0.019 A 
ATOM     22  C   UNL d   1     -41.322-123.517 -48.855  0.00  0.00     0.004 A 
ATOM     23  C   UNL d   1     -41.124-123.813 -48.111  0.00  0.00     0.030 A 
ATOM     24  C   UNL d   1     -41.466-123.511 -47.434  0.00  0.00     0.140 A 
ATOM     25  C   UNL d   1     -42.015-122.903 -47.493  0.00  0.00     0.030 A 
ATOM     26  F   UNL d   1     -41.260-123.816 -46.687  0.00  0.00    -0.204 F 
ATOM     27  C   UNL d   1     -42.219-122.601 -48.231  0.00  0.00     0.004 A 
ENDBRANCH  20  21
ENDBRANCH  18  20
ENDBRANCH   1  17
TORSDOF 6
ENDMDL
MODEL 2
REMARK VINA RESULT:      -2.0      2.705      6.073
REMARK  6 active torsions:
REMARK  status: ('A' for Active; 'I' for Inactive)
REMARK       I    between atoms: C_2  and  N_1 
REMARK    1  A    between atoms: C_3  and  C_2 
REMARK    2  A    between atoms: C_12  and  C_4 
REMARK       I    between atoms: C_5  and  N_8 
REMARK    3  A    between atoms: C_6  and  C_5 
REMARK       I    between atoms: N_9  and  C_6 
REMARK    4  A    between atoms: N_8  and  C_12 
REMARK    5  A    between atoms: C_19  and  N_9 
REMARK    6  A    between atoms: C_21  and  C_19 
ROOT
ATOM      1  C   UNL d   1     -41.868-122.658 -51.872  0.00  0.00     0.337 C 
ATOM      2  N   UNL d   1     -41.920-122.940 -51.102  0.00  0.00    -0.199 NA
ATOM      3  O   UNL d   1     -42.203-121.922 -52.071  0.00  0.00    -0.260 OA
ENDROOT
BRANCH   2   4
ATOM      4  C   UNL d   1     -42.303-122.492 -50.525  0.00  0.00     0.146 C 
BRANCH   4   5
ATOM      5  C   UNL d   1     -42.748-122.875 -49.932  0.00  0.00     0.190 A 
ATOM      6  N   UNL d   1     -42.485-123.019 -49.164  0.00  0.00    -0.250 N 
ATOM      7  C   UNL d   1     -41.769-122.847 -48.778  0.00  0.00     0.272 C 
ATOM      8  C   UNL d   1     -43.101-123.409 -48.769  0.00  0.00     0.112 A 
ATOM      9  O   UNL d   1     -41.163-122.457 -49.187  0.00  0.00    -0.266 OA
ATOM     10  C   UNL d   1     -43.730-123.500 -49.292  0.00  0.00     0.144 A 
ATOM     11  O   UNL d   1     -43.501-123.163 -50.017  0.00  0.00    -0.285 OA
BRANCH   7  12
ATOM     12  C   UNL d   1     -41.659-123.062 -47.990  0.00  0.00     0.086 A 
ATOM     13  S   UNL d   1     -41.701-123.801 -47.611  0.00  0.00    -0.082 SA
ATOM     14  C   UNL d   1     -41.536-123.676 -46.798  0.00  0.00     0.036 A 
ATOM     15  C   UNL d   1     -41.397-122.868 -46.692  0.00  0.00     0.008 A 
ATOM     16  C   UNL d   1     -41.471-122.486 -47.419  0.00  0.00     0.012 A 
ENDBRANCH   7  12
ENDBRANCH   4   5
ENDBRANCH   2   4
BRANCH   1  17
ATOM     17  C   UNL d   1     -41.491-123.099 -52.440  0.00  0.00     0.337 C 
ATOM     18  N   UNL d   1     -41.465-122.852 -53.218  0.00  0.00    -0.202 NA
ATOM     19  O   UNL d   1     -41.123-123.817 -52.227  0.00  0.00    -0.260 OA
BRANCH  18  20
ATOM     20  C   UNL d   1     -41.831-122.136 -53.433  0.00  0.00     0.102 C 
BRANCH  20  21
ATOM     21  C   UNL d   1     -42.012-121.998 -54.238  0.00  0.00     0.019 A 
ATOM     22  C   UNL d   1     -41.421-121.838 -54.785  0.00  0.00     0.004 A 
ATOM     23  C   UNL d   1     -41.615-121.703 -55.576  0.00  0.00     0.030 A 
ATOM     24  C   UNL d   1     -42.392-121.727 -55.828  0.00  0.00     0.140 A 
ATOM     25  C   UNL d   1     -42.989-121.886 -55.287  0.00  0.00     0.030 A 
ATOM     26  F   UNL d   1     -42.578-121.590 -56.628  0.00  0.00    -0.204 F 
ATOM     27  C   UNL d   1     -42.805-122.022 -54.496  0.00  0.00     0.004 A 
ENDBRANCH  20  21
ENDBRANCH  18  20
ENDBRANCH   1  17
TORSDOF 6
ENDMDL
