MODEL 1
REMARK VINA RESULT:      -8.5      0.000      0.000
REMARK  6 active torsions:
REMARK  status: ('A' for Active; 'I' for Inactive)
REMARK    1  A    between atoms: N_2  and  S_1 
REMARK    2  A    between atoms: C_4  and  S_1 
REMARK    3  A    between atoms: C_5  and  N_3 
REMARK    4  A    between atoms: C_10  and  C_4 
REMARK    5  A    between atoms: C_14  and  C_10 
REMARK    6  A    between atoms: O_15  and  C_13 
ROOT
ATOM      1  N   UNL d   1      50.823  34.160  52.862  0.00  0.00    -0.226 N 
ATOM      2  N   UNL d   1      52.231  33.504  53.439  0.00  0.00    -0.300 N 
ATOM      3  C   UNL d   1      51.559  34.463  52.613  0.00  0.00     0.111 A 
ATOM      4  C   UNL d   1      50.804  33.545  53.388  0.00  0.00     0.111 A 
ATOM      5  C   UNL d   1      51.492  33.214  53.678  0.00  0.00     0.100 A 
ATOM      6  C   UNL d   1      52.248  34.132  52.903  0.00  0.00     0.100 A 
ENDROOT
BRANCH   1   7
ATOM      7  S   UNL d   1      50.116  34.490  52.573  0.00  0.00     0.272 S 
ATOM      8  O   UNL d   1      50.262  34.133  51.819  0.00  0.00    -0.200 OA
ATOM      9  O   UNL d   1      49.978  34.834  53.301  0.00  0.00    -0.200 OA
BRANCH   7  10
ATOM     10  C   UNL d   1      49.424  34.810  52.278  0.00  0.00     0.116 C 
BRANCH  10  11
ATOM     11  C   UNL d   1      48.915  35.239  52.787  0.00  0.00     0.014 C 
BRANCH  11  12
ATOM     12  C   UNL d   1      48.195  35.591  52.489  0.00  0.00     0.001 A 
ATOM     13  C   UNL d   1      47.862  35.320  51.763  0.00  0.00     0.000 A 
ATOM     14  C   UNL d   1      47.166  35.668  51.488  0.00  0.00     0.000 A 
ATOM     15  C   UNL d   1      46.801  36.264  51.905  0.00  0.00     0.000 A 
ATOM     16  C   UNL d   1      47.144  36.523  52.625  0.00  0.00     0.000 A 
ATOM     17  C   UNL d   1      47.839  36.189  52.919  0.00  0.00     0.000 A 
ENDBRANCH  11  12
ENDBRANCH  10  11
ENDBRANCH   7  10
ENDBRANCH   1   7
BRANCH   2  18
ATOM     18  C   UNL d   1      52.931  33.187  53.717  0.00  0.00     0.086 A 
ATOM     19  C   UNL d   1      53.171  32.417  53.464  0.00  0.00     0.110 A 
ATOM     20  C   UNL d   1      53.880  32.093  53.744  0.00  0.00     0.026 A 
ATOM     21  C   UNL d   1      54.370  32.529  54.286  0.00  0.00     0.002 A 
ATOM     22  C   UNL d   1      54.116  33.277  54.519  0.00  0.00     0.002 A 
ATOM     23  C   UNL d   1      53.396  33.599  54.231  0.00  0.00     0.019 A 
BRANCH  19  24
ATOM     24  O   UNL d   1      52.701  31.993  52.941  0.00  0.00    -0.327 OA
ATOM     25  C   UNL d   1      52.876  31.211  52.749  0.00  0.00     0.181 C 
ENDBRANCH  19  24
ENDBRANCH   2  18
TORSDOF 6
ENDMDL
MODEL 2
REMARK VINA RESULT:      -7.3      1.108      5.588
REMARK  6 active torsions:
REMARK  status: ('A' for Active; 'I' for Inactive)
REMARK    1  A    between atoms: N_2  and  S_1 
REMARK    2  A    between atoms: C_4  and  S_1 
REMARK    3  A    between atoms: C_5  and  N_3 
REMARK    4  A    between atoms: C_10  and  C_4 
REMARK    5  A    between atoms: C_14  and  C_10 
REMARK    6  A    between atoms: O_15  and  C_13 
ROOT
ATOM      1  N   UNL d   1      50.618  34.270  52.775  0.00  0.00    -0.226 N 
ATOM      2  N   UNL d   1      49.158  34.936  52.360  0.00  0.00    -0.300 N 
ATOM      3  C   UNL d   1      50.397  34.329  51.973  0.00  0.00     0.111 A 
ATOM      4  C   UNL d   1      50.113  34.541  53.347  0.00  0.00     0.111 A 
ATOM      5  C   UNL d   1      49.391  34.871  53.153  0.00  0.00     0.100 A 
ATOM      6  C   UNL d   1      49.675  34.659  51.779  0.00  0.00     0.100 A 
ENDROOT
BRANCH   1   7
ATOM      7  S   UNL d   1      51.351  33.936  52.983  0.00  0.00     0.272 S 
ATOM      8  O   UNL d   1      50.947  33.308  53.383  0.00  0.00    -0.200 OA
ATOM      9  O   UNL d   1      51.737  34.543  52.596  0.00  0.00    -0.200 OA
BRANCH   7  10
ATOM     10  C   UNL d   1      52.065  33.600  53.192  0.00  0.00     0.116 C 
BRANCH  10  11
ATOM     11  C   UNL d   1      52.642  34.060  53.588  0.00  0.00     0.014 C 
BRANCH  11  12
ATOM     12  C   UNL d   1      53.335  33.695  53.930  0.00  0.00     0.001 A 
ATOM     13  C   UNL d   1      53.781  33.135  53.483  0.00  0.00     0.000 A 
ATOM     14  C   UNL d   1      54.448  32.790  53.826  0.00  0.00     0.000 A 
ATOM     15  C   UNL d   1      54.677  32.981  54.583  0.00  0.00     0.000 A 
ATOM     16  C   UNL d   1      54.224  33.538  55.015  0.00  0.00     0.000 A 
ATOM     17  C   UNL d   1      53.554  33.896  54.692  0.00  0.00     0.000 A 
ENDBRANCH  11  12
ENDBRANCH  10  11
ENDBRANCH   7  10
ENDBRANCH   1   7
BRANCH   2  18
ATOM     18  C   UNL d   1      48.441  35.263  52.145  0.00  0.00     0.086 A 
ATOM     19  C   UNL d   1      48.099  35.872  52.621  0.00  0.00     0.110 A 
ATOM     20  C   UNL d   1      47.372  36.206  52.407  0.00  0.00     0.026 A 
ATOM     21  C   UNL d   1      46.965  35.940  51.709  0.00  0.00     0.002 A 
ATOM     22  C   UNL d   1      47.316  35.345  51.260  0.00  0.00     0.002 A 
ATOM     23  C   UNL d   1      48.053  35.012  51.485  0.00  0.00     0.019 A 
BRANCH  19  24
ATOM     24  O   UNL d   1      48.490  36.131  53.296  0.00  0.00    -0.327 OA
ATOM     25  C   UNL d   1      48.161  36.709  53.782  0.00  0.00     0.181 C 
ENDBRANCH  19  24
ENDBRANCH   2  18
TORSDOF 6
ENDMDL
