MODEL 1
REMARK VINA RESULT:      11.0      0.000      0.000
REMARK  2 active torsions:
REMARK  status: ('A' for Active; 'I' for Inactive)
REMARK    1  A    between atoms: S_2  and  N_1 
REMARK    2  A    between atoms: C_10  and  S_2 
ROOT
ATOM      1  S   UNL d   1      44.032 -15.426  36.647  0.00  0.00     0.273 S 
ATOM      2  O   UNL d   1      43.801 -14.656  36.462  0.00  0.00    -0.200 OA
ATOM      3  O   UNL d   1      44.272 -16.192  36.833  0.00  0.00    -0.200 OA
ENDROOT
BRANCH   1   4
ATOM      4  N   UNL d   1      44.810 -15.171  36.754  0.00  0.00    -0.207 N 
ATOM      5  C   UNL d   1      45.382 -15.628  36.374  0.00  0.00     0.148 A 
ATOM      6  N   UNL d   1      46.207 -15.523  36.369  0.00  0.00    -0.198 NA
ATOM      7  C   UNL d   1      46.647 -14.947  36.737  0.00  0.00     0.066 A 
ATOM      8  C   UNL d   1      45.516 -14.970  36.829  0.00  0.00     0.169 A 
ATOM      9  C   UNL d   1      46.391 -14.321  37.208  0.00  0.00     0.066 A 
ATOM     10  N   UNL d   1      45.618 -14.121  37.424  0.00  0.00    -0.198 NA
ATOM     11  C   UNL d   1      44.918 -14.501  37.221  0.00  0.00     0.148 A 
ENDBRANCH   1   4
BRANCH   1  12
ATOM     12  C   UNL d   1      43.257 -15.684  36.542  0.00  0.00     0.104 A 
ATOM     13  C   UNL d   1      43.097 -16.490  36.466  0.00  0.00     0.013 A 
ATOM     14  C   UNL d   1      42.322 -16.748  36.361  0.00  0.00     0.001 A 
ATOM     15  C   UNL d   1      41.706 -16.201  36.330  0.00  0.00     0.000 A 
ATOM     16  C   UNL d   1      41.865 -15.395  36.406  0.00  0.00     0.001 A 
ATOM     17  C   UNL d   1      42.640 -15.137  36.511  0.00  0.00     0.013 A 
ENDBRANCH   1  12
TORSDOF 2
ENDMDL
MODEL 2
REMARK VINA RESULT:      12.6      1.036      3.469
REMARK  2 active torsions:
REMARK  status: ('A' for Active; 'I' for Inactive)
REMARK    1  A    between atoms: S_2  and  N_1 
REMARK    2  A    between atoms: C_10  and  S_2 
ROOT
ATOM      1  S   UNL d   1      44.350 -15.318  36.690  0.00  0.00     0.273 S 
ATOM      2  O   UNL d   1      44.660 -16.011  36.366  0.00  0.00    -0.200 OA
ATOM      3  O   UNL d   1      44.032 -14.630  37.012  0.00  0.00    -0.200 OA
ENDROOT
BRANCH   1   4
ATOM      4  N   UNL d   1      43.585 -15.612  36.594  0.00  0.00    -0.207 N 
ATOM      5  C   UNL d   1      42.985 -15.048  36.651  0.00  0.00     0.148 A 
ATOM      6  N   UNL d   1      42.164 -15.159  36.583  0.00  0.00    -0.198 NA
ATOM      7  C   UNL d   1      41.755 -15.847  36.444  0.00  0.00     0.066 A 
ATOM      8  C   UNL d   1      42.888 -15.841  36.514  0.00  0.00     0.169 A 
ATOM      9  C   UNL d   1      42.047 -16.610  36.336  0.00  0.00     0.066 A 
ATOM     10  N   UNL d   1      42.833 -16.866  36.341  0.00  0.00    -0.198 NA
ATOM     11  C   UNL d   1      43.514 -16.421  36.457  0.00  0.00     0.148 A 
ENDBRANCH   1   4
BRANCH   1  12
ATOM     12  C   UNL d   1      45.113 -15.022  36.786  0.00  0.00     0.104 A 
ATOM     13  C   UNL d   1      45.245 -14.375  37.281  0.00  0.00     0.013 A 
ATOM     14  C   UNL d   1      46.008 -14.079  37.377  0.00  0.00     0.001 A 
ATOM     15  C   UNL d   1      46.639 -14.429  36.979  0.00  0.00     0.000 A 
ATOM     16  C   UNL d   1      46.508 -15.076  36.484  0.00  0.00     0.001 A 
ATOM     17  C   UNL d   1      45.746 -15.373  36.388  0.00  0.00     0.013 A 
ENDBRANCH   1  12
TORSDOF 2
ENDMDL
MODEL 3
REMARK VINA RESULT:      12.9      7.521      8.057
REMARK  2 active torsions:
REMARK  status: ('A' for Active; 'I' for Inactive)
REMARK    1  A    between atoms: S_2  and  N_1 
REMARK    2  A    between atoms: C_10  and  S_2 
ROOT
ATOM      1  S   UNL d   1      45.583 -14.714  44.296  0.00  0.00     0.273 S 
ATOM      2  O   UNL d   1      44.821 -14.688  44.611  0.00  0.00    -0.200 OA
ATOM      3  O   UNL d   1      46.344 -14.731  43.982  0.00  0.00    -0.200 OA
ENDROOT
BRANCH   1   4
ATOM      4  N   UNL d   1      45.597 -13.890  44.253  0.00  0.00    -0.207 N 
ATOM      5  C   UNL d   1      46.042 -13.517  44.840  0.00  0.00     0.148 A 
ATOM      6  N   UNL d   1      46.169 -12.703  44.952  0.00  0.00    -0.198 NA
ATOM      7  C   UNL d   1      45.886 -12.081  44.513  0.00  0.00     0.066 A 
ATOM      8  C   UNL d   1      45.631 -13.153  44.243  0.00  0.00     0.169 A 
ATOM      9  C   UNL d   1      45.403 -12.094  43.846  0.00  0.00     0.066 A 
ATOM     10  N   UNL d   1      45.084 -12.749  43.455  0.00  0.00    -0.198 NA
ATOM     11  C   UNL d   1      45.172 -13.545  43.638  0.00  0.00     0.148 A 
ENDBRANCH   1   4
BRANCH   1  12
ATOM     12  C   UNL d   1      45.572 -15.537  44.338  0.00  0.00     0.104 A 
ATOM     13  C   UNL d   1      46.019 -15.983  43.807  0.00  0.00     0.013 A 
ATOM     14  C   UNL d   1      46.008 -16.806  43.849  0.00  0.00     0.001 A 
ATOM     15  C   UNL d   1      45.551 -17.183  44.422  0.00  0.00     0.000 A 
ATOM     16  C   UNL d   1      45.104 -16.738  44.953  0.00  0.00     0.001 A 
ATOM     17  C   UNL d   1      45.115 -15.915  44.912  0.00  0.00     0.013 A 
ENDBRANCH   1  12
TORSDOF 2
ENDMDL
