MODEL 1
REMARK VINA RESULT:      60.1      0.000      0.000
REMARK  1 active torsions:
REMARK  status: ('A' for Active; 'I' for Inactive)
REMARK    1  A    between atoms: C_11  and  N_5 
ROOT
ATOM      1  C   UNL d   1     -54.734-100.653 -38.264  0.00  0.00     0.130 A 
ATOM      2  C   UNL d   1     -54.742-101.335 -37.799  0.00  0.00     0.157 A 
ATOM      3  N   UNL d   1     -54.748-102.073 -38.151  0.00  0.00    -0.210 NA
ATOM      4  C   UNL d   1     -54.731-100.712 -39.087  0.00  0.00     0.272 A 
ATOM      5  N   UNL d   1     -54.737-101.452 -39.443  0.00  0.00    -0.259 N 
ATOM      6  C   UNL d   1     -54.728 -99.910 -37.905  0.00  0.00     0.204 A 
ATOM      7  N   UNL d   1     -54.745-101.269 -36.981  0.00  0.00    -0.289 N 
ATOM      8  C   UNL d   1     -54.746-102.136 -38.980  0.00  0.00     0.152 A 
ATOM      9  C   UNL d   1     -54.731 -99.850 -37.094  0.00  0.00     0.055 A 
ATOM     10  C   UNL d   1     -54.739-100.525 -36.627  0.00  0.00     0.069 A 
ATOM     11  O   UNL d   1     -54.723-100.032 -39.547  0.00  0.00    -0.266 OA
ATOM     12  O   UNL d   1     -54.720 -99.234 -38.372  0.00  0.00    -0.286 OA
ATOM     13  C   UNL d   1     -54.753-101.945 -36.514  0.00  0.00     0.101 C 
ATOM     14  C   UNL d   1     -54.751-102.880 -39.334  0.00  0.00     0.041 C 
ATOM     15  C   UNL d   1     -54.725 -99.104 -36.737  0.00  0.00     0.005 A 
ATOM     16  C   UNL d   1     -54.741-100.462 -35.799  0.00  0.00     0.018 A 
ATOM     17  C   UNL d   1     -54.727 -99.045 -35.916  0.00  0.00     0.000 A 
ATOM     18  C   UNL d   1     -54.735 -99.720 -35.449  0.00  0.00     0.002 A 
ENDROOT
BRANCH   5  19
ATOM     19  C   UNL d   1     -54.735-101.508 -40.266  0.00  0.00     0.068 A 
ATOM     20  C   UNL d   1     -54.721-100.823 -40.735  0.00  0.00     0.020 A 
ATOM     21  C   UNL d   1     -54.719-100.879 -41.560  0.00  0.00     0.031 A 
ATOM     22  C   UNL d   1     -54.729-101.616 -41.927  0.00  0.00     0.140 A 
ATOM     23  C   UNL d   1     -54.743-102.309 -41.463  0.00  0.00     0.031 A 
ATOM     24  F   UNL d   1     -54.727-101.674 -42.754  0.00  0.00    -0.204 F 
ATOM     25  C   UNL d   1     -54.745-102.249 -40.632  0.00  0.00     0.020 A 
ENDBRANCH   5  19
TORSDOF 1
ENDMDL
