MODEL 1
REMARK VINA RESULT:      14.5      0.000      0.000
REMARK  7 active torsions:
REMARK  status: ('A' for Active; 'I' for Inactive)
REMARK    1  A    between atoms: C_7  and  C_1 
REMARK    2  A    between atoms: S_8  and  C_3 
REMARK       I    between atoms: C_6  and  N_13 
REMARK    3  A    between atoms: C_10  and  C_6 
REMARK    4  A    between atoms: C_20  and  S_8 
REMARK    5  A    between atoms: N_13  and  C_21 
REMARK    6  A    between atoms: O_19  and  C_14 
REMARK    7  A    between atoms: C_21  and  C_20 
ROOT
ATOM      1  C   UNL d   1     -43.010-122.632 -48.966  0.00  0.00     0.087 A 
ATOM      2  N   UNL d   1     -43.122-122.446 -48.174  0.00  0.00    -0.245 NA
ATOM      3  C   UNL d   1     -42.313-123.067 -49.033  0.00  0.00     0.049 A 
ATOM      4  C   UNL d   1     -41.989-123.153 -48.284  0.00  0.00     0.025 A 
ATOM      5  C   UNL d   1     -42.491-122.767 -47.748  0.00  0.00     0.082 A 
ATOM      6  C   UNL d   1     -41.310-123.526 -48.015  0.00  0.00     0.002 A 
ATOM      7  C   UNL d   1     -42.308-122.758 -46.943  0.00  0.00     0.019 A 
ATOM      8  C   UNL d   1     -41.128-123.517 -47.210  0.00  0.00     0.000 A 
ATOM      9  C   UNL d   1     -41.625-123.135 -46.680  0.00  0.00     0.002 A 
ENDROOT
BRANCH   3  10
ATOM     10  S   UNL d   1     -41.991-123.367 -49.732  0.00  0.00    -0.083 SA
BRANCH  10  11
ATOM     11  C   UNL d   1     -41.274-123.056 -50.021  0.00  0.00     0.056 C 
BRANCH  11  12
ATOM     12  C   UNL d   1     -41.173-122.953 -50.835  0.00  0.00     0.109 C 
BRANCH  12  13
ATOM     13  N   UNL d   1     -41.509-123.490 -51.348  0.00  0.00    -0.206 NA
ATOM     14  C   UNL d   1     -41.667-123.267 -52.124  0.00  0.00     0.279 C 
ATOM     15  O   UNL d   1     -42.011-123.817 -52.650  0.00  0.00    -0.265 OA
BRANCH  14  16
ATOM     16  C   UNL d   1     -41.486-122.503 -52.383  0.00  0.00     0.058 A 
ATOM     17  C   UNL d   1     -41.367-122.359 -53.195  0.00  0.00     0.005 A 
ATOM     18  C   UNL d   1     -41.186-121.595 -53.454  0.00  0.00     0.000 A 
ATOM     19  C   UNL d   1     -41.124-120.977 -52.905  0.00  0.00     0.000 A 
ATOM     20  C   UNL d   1     -41.242-121.120 -52.103  0.00  0.00     0.000 A 
ATOM     21  C   UNL d   1     -41.422-121.883 -51.844  0.00  0.00     0.005 A 
ENDBRANCH  14  16
ENDBRANCH  12  13
ENDBRANCH  11  12
ENDBRANCH  10  11
ENDBRANCH   3  10
BRANCH   1  22
ATOM     22  C   UNL d   1     -43.530-122.404 -49.557  0.00  0.00     0.018 A 
ATOM     23  C   UNL d   1     -44.106-122.931 -49.831  0.00  0.00     0.004 A 
ATOM     24  C   UNL d   1     -44.628-122.706 -50.423  0.00  0.00     0.024 A 
ATOM     25  C   UNL d   1     -44.577-121.951 -50.745  0.00  0.00     0.094 A 
ATOM     26  C   UNL d   1     -44.000-121.418 -50.473  0.00  0.00     0.024 A 
ATOM     27  C   UNL d   1     -43.478-121.643 -49.882  0.00  0.00     0.004 A 
BRANCH  25  28
ATOM     28  O   UNL d   1     -45.108-121.722 -51.347  0.00  0.00    -0.328 OA
ATOM     29  C   UNL d   1     -44.822-121.523 -52.101  0.00  0.00     0.181 C 
ENDBRANCH  25  28
ENDBRANCH   1  22
TORSDOF 7
ENDMDL
MODEL 2
REMARK VINA RESULT:      14.7      2.347      4.951
REMARK  7 active torsions:
REMARK  status: ('A' for Active; 'I' for Inactive)
REMARK    1  A    between atoms: C_7  and  C_1 
REMARK    2  A    between atoms: S_8  and  C_3 
REMARK       I    between atoms: C_6  and  N_13 
REMARK    3  A    between atoms: C_10  and  C_6 
REMARK    4  A    between atoms: C_20  and  S_8 
REMARK    5  A    between atoms: N_13  and  C_21 
REMARK    6  A    between atoms: O_19  and  C_14 
REMARK    7  A    between atoms: C_21  and  C_20 
ROOT
ATOM      1  C   UNL d   1     -41.915-122.757 -52.983  0.00  0.00     0.087 A 
ATOM      2  N   UNL d   1     -42.297-123.227 -53.538  0.00  0.00    -0.245 NA
ATOM      3  C   UNL d   1     -41.665-122.067 -53.359  0.00  0.00     0.049 A 
ATOM      4  C   UNL d   1     -41.889-122.105 -54.146  0.00  0.00     0.025 A 
ATOM      5  C   UNL d   1     -42.283-122.827 -54.260  0.00  0.00     0.082 A 
ATOM      6  C   UNL d   1     -41.791-121.588 -54.775  0.00  0.00     0.002 A 
ATOM      7  C   UNL d   1     -42.577-123.025 -55.006  0.00  0.00     0.019 A 
ATOM      8  C   UNL d   1     -42.085-121.786 -55.520  0.00  0.00     0.000 A 
ATOM      9  C   UNL d   1     -42.475-122.500 -55.632  0.00  0.00     0.002 A 
ENDROOT
BRANCH   3  10
ATOM     10  S   UNL d   1     -41.256-121.441 -53.005  0.00  0.00    -0.083 SA
BRANCH  10  11
ATOM     11  C   UNL d   1     -41.127-120.740 -53.437  0.00  0.00     0.056 C 
BRANCH  11  12
ATOM     12  C   UNL d   1     -41.192-120.010 -53.056  0.00  0.00     0.109 C 
BRANCH  12  13
ATOM     13  N   UNL d   1     -41.161-119.981 -52.242  0.00  0.00    -0.206 NA
ATOM     14  C   UNL d   1     -41.157-119.253 -51.861  0.00  0.00     0.279 C 
ATOM     15  O   UNL d   1     -41.125-119.224 -51.027  0.00  0.00    -0.265 OA
BRANCH  14  16
ATOM     16  C   UNL d   1     -41.186-118.552 -52.299  0.00  0.00     0.058 A 
ATOM     17  C   UNL d   1     -41.124-117.818 -51.910  0.00  0.00     0.005 A 
ATOM     18  C   UNL d   1     -41.153-117.118 -52.349  0.00  0.00     0.000 A 
ATOM     19  C   UNL d   1     -41.242-117.150 -53.172  0.00  0.00     0.000 A 
ATOM     20  C   UNL d   1     -41.303-117.876 -53.556  0.00  0.00     0.000 A 
ATOM     21  C   UNL d   1     -41.274-118.575 -53.118  0.00  0.00     0.005 A 
ENDBRANCH  14  16
ENDBRANCH  12  13
ENDBRANCH  11  12
ENDBRANCH  10  11
ENDBRANCH   3  10
BRANCH   1  22
ATOM     22  C   UNL d   1     -41.822-122.976 -52.199  0.00  0.00     0.018 A 
ATOM     23  C   UNL d   1     -41.222-123.503 -51.983  0.00  0.00     0.004 A 
ATOM     24  C   UNL d   1     -41.126-123.724 -51.198  0.00  0.00     0.024 A 
ATOM     25  C   UNL d   1     -41.629-123.419 -50.624  0.00  0.00     0.094 A 
ATOM     26  C   UNL d   1     -42.234-122.889 -50.836  0.00  0.00     0.024 A 
ATOM     27  C   UNL d   1     -42.330-122.668 -51.620  0.00  0.00     0.004 A 
BRANCH  25  28
ATOM     28  O   UNL d   1     -41.531-123.645 -49.826  0.00  0.00    -0.328 OA
ATOM     29  C   UNL d   1     -42.007-123.305 -49.237  0.00  0.00     0.181 C 
ENDBRANCH  25  28
ENDBRANCH   1  22
TORSDOF 7
ENDMDL
