MODEL 1
REMARK VINA RESULT:      -3.6      0.000      0.000
REMARK  5 active torsions:
REMARK  status: ('A' for Active; 'I' for Inactive)
REMARK    1  A    between atoms: C_20  and  C_3 
REMARK    2  A    between atoms: C_6  and  C_8 
REMARK       I    between atoms: C_8  and  N_17 
REMARK    3  A    between atoms: N_17  and  C_21 
REMARK    4  A    between atoms: O_22  and  C_18 
REMARK    5  A    between atoms: C_21  and  C_20 
ROOT
ATOM      1  N   UNL d   1      56.963   0.676  34.154  0.00  0.00    -0.208 NA
ATOM      2  C   UNL d   1      57.451   0.676  33.487  0.00  0.00     0.279 A 
ATOM      3  C   UNL d   1      57.114   0.676  32.725  0.00  0.00     0.059 A 
ATOM      4  C   UNL d   1      56.135   0.676  34.061  0.00  0.00     0.087 A 
ATOM      5  C   UNL d   1      56.293   0.677  32.639  0.00  0.00     0.006 A 
ATOM      6  C   UNL d   1      55.808   0.677  33.304  0.00  0.00     0.018 A 
ATOM      7  C   UNL d   1      55.654   0.677  34.733  0.00  0.00     0.043 A 
ATOM      8  O   UNL d   1      58.269   0.675  33.576  0.00  0.00    -0.265 OA
ATOM      9  C   UNL d   1      54.983   0.678  33.218  0.00  0.00     0.004 A 
ATOM     10  C   UNL d   1      54.836   0.677  34.645  0.00  0.00     0.096 A 
ATOM     11  C   UNL d   1      54.499   0.678  33.883  0.00  0.00     0.024 A 
ENDROOT
BRANCH   3  12
ATOM     12  C   UNL d   1      57.602   0.676  32.068  0.00  0.00     0.026 C 
BRANCH  12  13
ATOM     13  C   UNL d   1      57.523   0.104  31.486  0.00  0.00     0.102 C 
BRANCH  13  14
ATOM     14  N   UNL d   1      57.979   0.129  30.798  0.00  0.00    -0.206 NA
ATOM     15  C   UNL d   1      58.009  -0.524  30.294  0.00  0.00     0.285 C 
ATOM     16  O   UNL d   1      57.587  -1.204  30.471  0.00  0.00    -0.265 OA
BRANCH  15  17
ATOM     17  C   UNL d   1      58.469  -0.490  29.608  0.00  0.00     0.087 A 
ATOM     18  S   UNL d   1      58.604   0.175  29.153  0.00  0.00    -0.082 SA
ATOM     19  C   UNL d   1      59.082  -0.023  28.530  0.00  0.00     0.036 A 
ATOM     20  C   UNL d   1      59.254  -0.831  28.591  0.00  0.00     0.008 A 
ATOM     21  C   UNL d   1      58.872  -1.120  29.262  0.00  0.00     0.012 A 
ENDBRANCH  15  17
ENDBRANCH  13  14
ENDBRANCH  12  13
ENDBRANCH   3  12
BRANCH  10  22
ATOM     22  O   UNL d   1      54.351   0.677  35.310  0.00  0.00    -0.328 OA
ATOM     23  C   UNL d   1      53.533   0.682  35.222  0.00  0.00     0.181 C 
ENDBRANCH  10  22
TORSDOF 5
ENDMDL
MODEL 2
REMARK VINA RESULT:      -3.5      1.380      1.894
REMARK  5 active torsions:
REMARK  status: ('A' for Active; 'I' for Inactive)
REMARK    1  A    between atoms: C_20  and  C_3 
REMARK    2  A    between atoms: C_6  and  C_8 
REMARK       I    between atoms: C_8  and  N_17 
REMARK    3  A    between atoms: N_17  and  C_21 
REMARK    4  A    between atoms: O_22  and  C_18 
REMARK    5  A    between atoms: C_21  and  C_20 
ROOT
ATOM      1  N   UNL d   1      56.241  -1.306  32.468  0.00  0.00    -0.208 NA
ATOM      2  C   UNL d   1      56.675  -1.295  31.765  0.00  0.00     0.279 A 
ATOM      3  C   UNL d   1      57.120  -0.622  31.562  0.00  0.00     0.059 A 
ATOM      4  C   UNL d   1      56.251  -0.641  32.971  0.00  0.00     0.087 A 
ATOM      5  C   UNL d   1      57.127   0.035  32.063  0.00  0.00     0.006 A 
ATOM      6  C   UNL d   1      56.694   0.023  32.763  0.00  0.00     0.018 A 
ATOM      7  C   UNL d   1      55.814  -0.659  33.673  0.00  0.00     0.043 A 
ATOM      8  O   UNL d   1      56.667  -1.950  31.267  0.00  0.00    -0.265 OA
ATOM      9  C   UNL d   1      56.700   0.681  33.267  0.00  0.00     0.004 A 
ATOM     10  C   UNL d   1      55.822  -0.005  34.171  0.00  0.00     0.096 A 
ATOM     11  C   UNL d   1      56.267   0.669  33.967  0.00  0.00     0.024 A 
ENDROOT
BRANCH   3  12
ATOM     12  C   UNL d   1      57.549  -0.616  30.864  0.00  0.00     0.026 C 
BRANCH  12  13
ATOM     13  C   UNL d   1      58.198  -0.125  30.773  0.00  0.00     0.102 C 
BRANCH  13  14
ATOM     14  N   UNL d   1      58.711  -0.209  30.132  0.00  0.00    -0.206 NA
ATOM     15  C   UNL d   1      59.438   0.182  30.124  0.00  0.00     0.285 C 
ATOM     16  O   UNL d   1      59.658   0.659  30.754  0.00  0.00    -0.265 OA
BRANCH  15  17
ATOM     17  C   UNL d   1      59.945   0.091  29.478  0.00  0.00     0.087 A 
ATOM     18  S   UNL d   1      60.392   0.681  29.133  0.00  0.00    -0.082 SA
ATOM     19  C   UNL d   1      60.813   0.368  28.516  0.00  0.00     0.036 A 
ATOM     20  C   UNL d   1      60.629  -0.439  28.469  0.00  0.00     0.008 A 
ATOM     21  C   UNL d   1      60.089  -0.609  29.068  0.00  0.00     0.012 A 
ENDBRANCH  15  17
ENDBRANCH  13  14
ENDBRANCH  12  13
ENDBRANCH   3  12
BRANCH  10  22
ATOM     22  O   UNL d   1      55.389  -0.016  34.871  0.00  0.00    -0.328 OA
ATOM     23  C   UNL d   1      55.274   0.680  35.294  0.00  0.00     0.181 C 
ENDBRANCH  10  22
TORSDOF 5
ENDMDL
MODEL 3
REMARK VINA RESULT:      -3.1      1.058      1.325
REMARK  5 active torsions:
REMARK  status: ('A' for Active; 'I' for Inactive)
REMARK    1  A    between atoms: C_20  and  C_3 
REMARK    2  A    between atoms: C_6  and  C_8 
REMARK       I    between atoms: C_8  and  N_17 
REMARK    3  A    between atoms: N_17  and  C_21 
REMARK    4  A    between atoms: O_22  and  C_18 
REMARK    5  A    between atoms: C_21  and  C_20 
ROOT
ATOM      1  N   UNL d   1      57.552   0.675  33.195  0.00  0.00    -0.208 NA
ATOM      2  C   UNL d   1      57.919   0.537  32.468  0.00  0.00     0.279 A 
ATOM      3  C   UNL d   1      57.473   0.252  31.825  0.00  0.00     0.059 A 
ATOM      4  C   UNL d   1      56.736   0.527  33.282  0.00  0.00     0.087 A 
ATOM      5  C   UNL d   1      56.665   0.108  31.915  0.00  0.00     0.006 A 
ATOM      6  C   UNL d   1      56.301   0.245  32.640  0.00  0.00     0.018 A 
ATOM      7  C   UNL d   1      56.376   0.668  34.013  0.00  0.00     0.043 A 
ATOM      8  O   UNL d   1      58.724   0.681  32.380  0.00  0.00    -0.265 OA
ATOM      9  C   UNL d   1      55.490   0.101  32.733  0.00  0.00     0.004 A 
ATOM     10  C   UNL d   1      55.571   0.523  34.101  0.00  0.00     0.096 A 
ATOM     11  C   UNL d   1      55.126   0.238  33.458  0.00  0.00     0.024 A 
ENDROOT
BRANCH   3  12
ATOM     12  C   UNL d   1      57.842   0.117  31.106  0.00  0.00     0.026 C 
BRANCH  12  13
ATOM     13  C   UNL d   1      57.645  -0.534  30.648  0.00  0.00     0.102 C 
BRANCH  13  14
ATOM     14  N   UNL d   1      58.226  -1.048  30.366  0.00  0.00    -0.206 NA
ATOM     15  C   UNL d   1      58.409  -1.068  29.561  0.00  0.00     0.285 C 
ATOM     16  O   UNL d   1      58.016  -0.578  29.034  0.00  0.00    -0.265 OA
BRANCH  15  17
ATOM     17  C   UNL d   1      58.992  -1.586  29.287  0.00  0.00     0.087 A 
ATOM     18  S   UNL d   1      58.952  -2.402  29.296  0.00  0.00    -0.082 SA
ATOM     19  C   UNL d   1      59.633  -2.705  28.980  0.00  0.00     0.036 A 
ATOM     20  C   UNL d   1      60.116  -2.066  28.764  0.00  0.00     0.008 A 
ATOM     21  C   UNL d   1      59.716  -1.371  28.956  0.00  0.00     0.012 A 
ENDBRANCH  15  17
ENDBRANCH  13  14
ENDBRANCH  12  13
ENDBRANCH   3  12
BRANCH  10  22
ATOM     22  O   UNL d   1      55.207   0.661  34.827  0.00  0.00    -0.328 OA
ATOM     23  C   UNL d   1      54.386   0.651  34.881  0.00  0.00     0.181 C 
ENDBRANCH  10  22
TORSDOF 5
ENDMDL
