MODEL 1
REMARK VINA RESULT:      -1.6      0.000      0.000
REMARK  2 active torsions:
REMARK  status: ('A' for Active; 'I' for Inactive)
REMARK    1  A    between atoms: C_8  and  C_1 
REMARK    2  A    between atoms: C_7  and  C_2 
ROOT
ATOM      1  C   UNL d   1     -41.819-122.628 -51.406  0.00  0.00     0.066 A 
ATOM      2  C   UNL d   1     -42.178-121.901 -51.550  0.00  0.00     0.174 A 
ATOM      3  C   UNL d   1     -41.485-123.069 -52.026  0.00  0.00     0.199 A 
ATOM      4  O   UNL d   1     -42.208-121.603 -52.325  0.00  0.00    -0.303 OA
ATOM      5  C   UNL d   1     -41.524-122.755 -52.794  0.00  0.00     0.062 A 
ATOM      6  C   UNL d   1     -41.878-122.039 -52.939  0.00  0.00     0.106 A 
ATOM      7  C   UNL d   1     -41.915-121.728 -53.708  0.00  0.00     0.067 A 
ATOM      8  C   UNL d   1     -41.191-123.190 -53.428  0.00  0.00     0.009 A 
ATOM      9  O   UNL d   1     -41.123-123.805 -51.865  0.00  0.00    -0.286 OA
ATOM     10  C   UNL d   1     -41.584-122.165 -54.330  0.00  0.00     0.198 A 
ATOM     11  C   UNL d   1     -41.220-122.899 -54.186  0.00  0.00     0.042 A 
ATOM     12  O   UNL d   1     -41.620-121.862 -55.078  0.00  0.00    -0.286 OA
ENDROOT
BRANCH   1  13
ATOM     13  C   UNL d   1     -41.778-122.937 -50.660  0.00  0.00     0.005 A 
ATOM     14  C   UNL d   1     -42.297-123.504 -50.400  0.00  0.00     0.000 A 
ATOM     15  C   UNL d   1     -42.897-123.805 -50.869  0.00  0.00     0.000 C 
ATOM     16  C   UNL d   1     -42.249-123.816 -49.631  0.00  0.00     0.000 A 
ATOM     17  C   UNL d   1     -41.660-123.537 -49.132  0.00  0.00     0.000 A 
ATOM     18  C   UNL d   1     -41.125-122.961 -49.382  0.00  0.00     0.000 A 
ATOM     19  C   UNL d   1     -41.184-122.663 -50.139  0.00  0.00     0.000 A 
ENDBRANCH   1  13
BRANCH   2  20
ATOM     20  C   UNL d   1     -42.508-121.470 -50.925  0.00  0.00     0.440 C 
ATOM     21  F   UNL d   1     -42.043-120.963 -50.573  0.00  0.00    -0.164 F 
ATOM     22  F   UNL d   1     -42.782-121.014 -50.298  0.00  0.00    -0.164 F 
ATOM     23  F   UNL d   1     -43.353-121.597 -50.687  0.00  0.00    -0.164 F 
ENDBRANCH   2  20
TORSDOF 2
ENDMDL
MODEL 2
REMARK VINA RESULT:      -0.2      1.630      3.809
REMARK  2 active torsions:
REMARK  status: ('A' for Active; 'I' for Inactive)
REMARK    1  A    between atoms: C_8  and  C_1 
REMARK    2  A    between atoms: C_7  and  C_2 
ROOT
ATOM      1  C   UNL d   1     -42.173-122.874 -50.449  0.00  0.00     0.066 A 
ATOM      2  C   UNL d   1     -42.820-122.413 -50.228  0.00  0.00     0.174 A 
ATOM      3  C   UNL d   1     -41.777-123.346 -49.892  0.00  0.00     0.199 A 
ATOM      4  O   UNL d   1     -43.080-122.419 -49.439  0.00  0.00    -0.303 OA
ATOM      5  C   UNL d   1     -42.051-123.339 -49.107  0.00  0.00     0.062 A 
ATOM      6  C   UNL d   1     -42.687-122.886 -48.888  0.00  0.00     0.106 A 
ATOM      7  C   UNL d   1     -42.959-122.882 -48.103  0.00  0.00     0.067 A 
ATOM      8  C   UNL d   1     -41.659-123.811 -48.537  0.00  0.00     0.009 A 
ATOM      9  O   UNL d   1     -41.123-123.809 -50.130  0.00  0.00    -0.286 OA
ATOM     10  C   UNL d   1     -42.566-123.351 -47.544  0.00  0.00     0.198 A 
ATOM     11  C   UNL d   1     -41.913-123.817 -47.765  0.00  0.00     0.042 A 
ATOM     12  O   UNL d   1     -42.830-123.347 -46.780  0.00  0.00    -0.286 OA
ENDROOT
BRANCH   1  13
ATOM     13  C   UNL d   1     -41.904-122.883 -51.211  0.00  0.00     0.005 A 
ATOM     14  C   UNL d   1     -41.398-122.316 -51.495  0.00  0.00     0.000 A 
ATOM     15  C   UNL d   1     -41.123-121.696 -51.036  0.00  0.00     0.000 C 
ATOM     16  C   UNL d   1     -41.125-122.333 -52.280  0.00  0.00     0.000 A 
ATOM     17  C   UNL d   1     -41.380-122.940 -52.770  0.00  0.00     0.000 A 
ATOM     18  C   UNL d   1     -41.895-123.523 -52.495  0.00  0.00     0.000 A 
ATOM     19  C   UNL d   1     -42.154-123.495 -51.723  0.00  0.00     0.000 A 
ENDBRANCH   1  13
BRANCH   2  20
ATOM     20  C   UNL d   1     -43.208-121.946 -50.791  0.00  0.00     0.440 C 
ATOM     21  F   UNL d   1     -43.905-122.188 -51.018  0.00  0.00    -0.164 F 
ATOM     22  F   UNL d   1     -43.639-121.521 -51.347  0.00  0.00    -0.164 F 
ATOM     23  F   UNL d   1     -42.826-121.208 -51.104  0.00  0.00    -0.164 F 
ENDBRANCH   2  20
TORSDOF 2
ENDMDL
MODEL 3
REMARK VINA RESULT:       0.1      0.878      1.409
REMARK  2 active torsions:
REMARK  status: ('A' for Active; 'I' for Inactive)
REMARK    1  A    between atoms: C_8  and  C_1 
REMARK    2  A    between atoms: C_7  and  C_2 
ROOT
ATOM      1  C   UNL d   1     -42.253-122.903 -50.481  0.00  0.00     0.066 A 
ATOM      2  C   UNL d   1     -42.811-122.388 -50.799  0.00  0.00     0.174 A 
ATOM      3  C   UNL d   1     -41.685-123.267 -50.964  0.00  0.00     0.199 A 
ATOM      4  O   UNL d   1     -42.807-122.229 -51.615  0.00  0.00    -0.303 OA
ATOM      5  C   UNL d   1     -41.695-123.097 -51.778  0.00  0.00     0.062 A 
ATOM      6  C   UNL d   1     -42.244-122.589 -52.094  0.00  0.00     0.106 A 
ATOM      7  C   UNL d   1     -42.253-122.421 -52.907  0.00  0.00     0.067 A 
ATOM      8  C   UNL d   1     -41.127-123.458 -52.276  0.00  0.00     0.009 A 
ATOM      9  O   UNL d   1     -41.124-123.788 -50.628  0.00  0.00    -0.286 OA
ATOM     10  C   UNL d   1     -41.687-122.782 -53.394  0.00  0.00     0.198 A 
ATOM     11  C   UNL d   1     -41.123-123.303 -53.073  0.00  0.00     0.042 A 
ATOM     12  O   UNL d   1     -41.695-122.618 -54.185  0.00  0.00    -0.286 OA
ENDROOT
BRANCH   1  13
ATOM     13  C   UNL d   1     -42.239-123.072 -49.690  0.00  0.00     0.005 A 
ATOM     14  C   UNL d   1     -41.707-122.725 -49.185  0.00  0.00     0.000 A 
ATOM     15  C   UNL d   1     -41.147-122.181 -49.435  0.00  0.00     0.000 C 
ATOM     16  C   UNL d   1     -41.699-122.903 -48.374  0.00  0.00     0.000 A 
ATOM     17  C   UNL d   1     -42.247-123.444 -48.087  0.00  0.00     0.000 A 
ATOM     18  C   UNL d   1     -42.793-123.805 -48.588  0.00  0.00     0.000 A 
ATOM     19  C   UNL d   1     -42.790-123.620 -49.382  0.00  0.00     0.000 A 
ENDBRANCH   1  13
BRANCH   2  20
ATOM     20  C   UNL d   1     -43.373-122.030 -50.309  0.00  0.00     0.440 C 
ATOM     21  F   UNL d   1     -43.164-121.368 -49.969  0.00  0.00    -0.164 F 
ATOM     22  F   UNL d   1     -43.892-121.631 -49.811  0.00  0.00    -0.164 F 
ATOM     23  F   UNL d   1     -44.170-122.403 -50.191  0.00  0.00    -0.164 F 
ENDBRANCH   2  20
TORSDOF 2
ENDMDL
MODEL 4
REMARK VINA RESULT:       0.6      1.544      3.618
REMARK  2 active torsions:
REMARK  status: ('A' for Active; 'I' for Inactive)
REMARK    1  A    between atoms: C_8  and  C_1 
REMARK    2  A    between atoms: C_7  and  C_2 
ROOT
ATOM      1  C   UNL d   1     -41.755-122.528 -53.349  0.00  0.00     0.066 A 
ATOM      2  C   UNL d   1     -42.078-121.841 -53.029  0.00  0.00     0.174 A 
ATOM      3  C   UNL d   1     -41.449-123.124 -52.857  0.00  0.00     0.199 A 
ATOM      4  O   UNL d   1     -42.100-121.741 -52.204  0.00  0.00    -0.303 OA
ATOM      5  C   UNL d   1     -41.480-123.007 -52.035  0.00  0.00     0.062 A 
ATOM      6  C   UNL d   1     -41.798-122.331 -51.718  0.00  0.00     0.106 A 
ATOM      7  C   UNL d   1     -41.827-122.217 -50.895  0.00  0.00     0.067 A 
ATOM      8  C   UNL d   1     -41.175-123.601 -51.529  0.00  0.00     0.009 A 
ATOM      9  O   UNL d   1     -41.124-123.816 -53.195  0.00  0.00    -0.286 OA
ATOM     10  C   UNL d   1     -41.523-122.809 -50.401  0.00  0.00     0.198 A 
ATOM     11  C   UNL d   1     -41.196-123.503 -50.723  0.00  0.00     0.042 A 
ATOM     12  O   UNL d   1     -41.552-122.698 -49.601  0.00  0.00    -0.286 OA
ENDROOT
BRANCH   1  13
ATOM     13  C   UNL d   1     -41.723-122.646 -54.148  0.00  0.00     0.005 A 
ATOM     14  C   UNL d   1     -42.211-123.174 -54.525  0.00  0.00     0.000 A 
ATOM     15  C   UNL d   1     -42.768-123.624 -54.129  0.00  0.00     0.000 C 
ATOM     16  C   UNL d   1     -42.172-123.289 -55.347  0.00  0.00     0.000 A 
ATOM     17  C   UNL d   1     -41.625-122.853 -55.778  0.00  0.00     0.000 A 
ATOM     18  C   UNL d   1     -41.123-122.313 -55.408  0.00  0.00     0.000 A 
ATOM     19  C   UNL d   1     -41.171-122.210 -54.601  0.00  0.00     0.000 A 
ENDBRANCH   1  13
BRANCH   2  20
ATOM     20  C   UNL d   1     -42.380-121.253 -53.527  0.00  0.00     0.440 C 
ATOM     21  F   UNL d   1     -43.128-121.309 -53.714  0.00  0.00    -0.164 F 
ATOM     22  F   UNL d   1     -42.732-120.697 -54.020  0.00  0.00    -0.164 F 
ATOM     23  F   UNL d   1     -41.855-120.601 -53.823  0.00  0.00    -0.164 F 
ENDBRANCH   2  20
TORSDOF 2
ENDMDL
