MODEL 1
REMARK VINA RESULT:       4.7      0.000      0.000
REMARK  1 active torsions:
REMARK  status: ('A' for Active; 'I' for Inactive)
REMARK    1  A    between atoms: C_2  and  S_1 
ROOT
ATOM      1  C   UNL d   1     -55.485-102.720 -37.558  0.00  0.00     0.107 A 
ATOM      2  C   UNL d   1     -54.756-102.643 -37.936  0.00  0.00     0.014 A 
ATOM      3  C   UNL d   1     -56.167-102.837 -37.990  0.00  0.00     0.014 A 
ATOM      4  C   UNL d   1     -55.416-102.804 -39.191  0.00  0.00     0.058 A 
ATOM      5  C   UNL d   1     -56.131-102.879 -38.818  0.00  0.00     0.012 A 
ATOM      6  C   UNL d   1     -54.713-102.684 -38.758  0.00  0.00     0.012 A 
ATOM      7 CL   UNL d   1     -55.398-102.848 -40.015  0.00  0.00    -0.082 Cl
ENDROOT
BRANCH   1   8
ATOM      8  S   UNL d   1     -55.520-102.678 -36.735  0.00  0.00     0.302 S 
ATOM      9  O   UNL d   1     -54.711-102.514 -36.717  0.00  0.00    -0.197 OA
ATOM     10  O   UNL d   1     -56.316-102.839 -36.751  0.00  0.00    -0.197 OA
ATOM     11  N   UNL d   1     -55.546-102.634 -35.915  0.00  0.00    -0.043 N 
ENDBRANCH   1   8
TORSDOF 1
ENDMDL
