MODEL 1
REMARK VINA RESULT:      -3.3      0.000      0.000
REMARK  5 active torsions:
REMARK  status: ('A' for Active; 'I' for Inactive)
REMARK    1  A    between atoms: N_9  and  C_2 
REMARK    2  A    between atoms: N_11  and  C_6 
REMARK    3  A    between atoms: C_16  and  N_11 
REMARK    4  A    between atoms: C_15  and  N_12 
REMARK    5  A    between atoms: C_24  and  C_15 
ROOT
ATOM      1  N   UNL d   1      59.343   0.075  30.195  0.00  0.00    -0.041 NA
ATOM      2  C   UNL d   1      58.621  -0.225  30.167  0.00  0.00     0.738 A 
ATOM      3  C   UNL d   1      59.870  -0.127  29.653  0.00  0.00     0.187 A 
ATOM      4  N   UNL d   1      58.425  -0.730  29.595  0.00  0.00    -0.041 NA
ATOM      5  C   UNL d   1      59.677  -0.632  29.080  0.00  0.00     0.094 A 
ATOM      6  C   UNL d   1      58.949  -0.937  29.048  0.00  0.00     0.185 A 
ATOM      7  N   UNL d   1      61.133  -0.029  29.134  0.00  0.00    -0.162 NA
ATOM      8  N   UNL d   1      60.597   0.178  29.685  0.00  0.00    -0.208 N 
ATOM      9  C   UNL d   1      60.937  -0.534  28.561  0.00  0.00     0.127 A 
ATOM     10  C   UNL d   1      60.792   0.680  30.255  0.00  0.00     0.123 C 
ENDROOT
BRANCH   2  11
ATOM     11  N   UNL d   1      58.058  -0.012  30.740  0.00  0.00    -0.134 N 
ATOM     12  C   UNL d   1      58.139  -0.289  31.519  0.00  0.00     0.117 A 
ATOM     13  C   UNL d   1      57.574  -0.077  32.097  0.00  0.00     0.100 A 
ATOM     14  N   UNL d   1      56.942   0.404  31.893  0.00  0.00    -0.300 N 
ATOM     15  C   UNL d   1      56.861   0.681  31.114  0.00  0.00     0.100 A 
ATOM     16  C   UNL d   1      57.413   0.476  30.541  0.00  0.00     0.117 A 
BRANCH  14  17
ATOM     17  C   UNL d   1      56.376   0.621  32.459  0.00  0.00     0.080 C 
BRANCH  17  18
ATOM     18  C   UNL d   1      56.050   0.524  33.212  0.00  0.00     0.018 A 
ATOM     19  C   UNL d   1      56.509   0.672  33.889  0.00  0.00     0.002 A 
ATOM     20  C   UNL d   1      56.177   0.573  34.631  0.00  0.00     0.000 A 
ATOM     21  C   UNL d   1      55.392   0.329  34.720  0.00  0.00     0.000 A 
ATOM     22  C   UNL d   1      54.934   0.181  34.043  0.00  0.00     0.000 A 
ATOM     23  C   UNL d   1      55.266   0.280  33.286  0.00  0.00     0.002 A 
ENDBRANCH  17  18
ENDBRANCH  14  17
ENDBRANCH   2  11
BRANCH   6  24
ATOM     24  N   UNL d   1      58.738  -1.463  28.456  0.00  0.00    -0.226 NA
BRANCH  24  25
ATOM     25  C   UNL d   1      58.859  -2.269  28.554  0.00  0.00     0.083 A 
ATOM     26  C   UNL d   1      59.620  -2.579  28.521  0.00  0.00     0.021 A 
ATOM     27  C   UNL d   1      59.745  -3.396  28.620  0.00  0.00     0.031 A 
ATOM     28  C   UNL d   1      59.109  -3.899  28.752  0.00  0.00     0.140 A 
ATOM     29  C   UNL d   1      58.337  -3.593  28.787  0.00  0.00     0.031 A 
ATOM     30  F   UNL d   1      59.238  -4.704  28.849  0.00  0.00    -0.204 F 
ATOM     31  C   UNL d   1      58.218  -2.782  28.688  0.00  0.00     0.021 A 
ENDBRANCH  24  25
ENDBRANCH   6  24
TORSDOF 5
ENDMDL
