MODEL 1
REMARK VINA RESULT:      -5.2      0.000      0.000
REMARK  5 active torsions:
REMARK  status: ('A' for Active; 'I' for Inactive)
REMARK    1  A    between atoms: N_6  and  S_1 
REMARK    2  A    between atoms: C_11  and  S_1 
REMARK    3  A    between atoms: N_2  and  C_16 
REMARK       I    between atoms: C_9  and  N_8 
REMARK    4  A    between atoms: C_10  and  C_9 
REMARK    5  A    between atoms: C_16  and  C_10 
ROOT
ATOM      1  N   UNL d   1      56.842  -0.002  32.012  0.00  0.00    -0.226 N 
ATOM      2  N   UNL d   1      57.756  -0.273  30.670  0.00  0.00    -0.269 N 
ATOM      3  C   UNL d   1      58.213  -0.419  29.999  0.00  0.00     0.267 C 
ATOM      4  C   UNL d   1      56.981  -0.772  31.757  0.00  0.00     0.111 A 
ATOM      5  C   UNL d   1      57.162   0.649  31.593  0.00  0.00     0.111 A 
ATOM      6  C   UNL d   1      57.439  -0.909  31.085  0.00  0.00     0.103 A 
ATOM      7  C   UNL d   1      57.620   0.512  30.920  0.00  0.00     0.103 A 
ATOM      8  O   UNL d   1      58.533   0.215  29.578  0.00  0.00    -0.267 OA
ENDROOT
BRANCH   3   9
ATOM      9  C   UNL d   1      58.347  -1.191  29.751  0.00  0.00     0.082 C 
BRANCH   9  10
ATOM     10  C   UNL d   1      58.981  -1.351  29.249  0.00  0.00     0.105 C 
BRANCH  10  11
ATOM     11  N   UNL d   1      59.134  -2.133  29.020  0.00  0.00    -0.228 N 
ATOM     12  N   UNL d   1      58.576  -2.727  28.896  0.00  0.00    -0.165 NA
ATOM     13  C   UNL d   1      58.969  -3.418  28.674  0.00  0.00     0.103 A 
ATOM     14  C   UNL d   1      58.620  -4.149  28.497  0.00  0.00     0.022 C 
ATOM     15  C   UNL d   1      59.778  -3.254  28.660  0.00  0.00     0.037 A 
ATOM     16  C   UNL d   1      59.882  -2.460  28.873  0.00  0.00     0.084 A 
ATOM     17  C   UNL d   1      60.376  -3.785  28.468  0.00  0.00     0.003 C 
ATOM     18  C   UNL d   1      60.609  -2.070  28.927  0.00  0.00     0.021 C 
ENDBRANCH  10  11
ENDBRANCH   9  10
ENDBRANCH   3   9
BRANCH   1  19
ATOM     19  S   UNL d   1      56.382   0.135  32.688  0.00  0.00     0.271 S 
ATOM     20  O   UNL d   1      57.029  -0.070  33.170  0.00  0.00    -0.200 OA
ATOM     21  O   UNL d   1      55.741   0.339  32.210  0.00  0.00    -0.200 OA
BRANCH  19  22
ATOM     22  C   UNL d   1      55.919   0.273  33.367  0.00  0.00     0.104 A 
ATOM     23  C   UNL d   1      55.111   0.139  33.340  0.00  0.00     0.014 A 
ATOM     24  C   UNL d   1      54.649   0.274  34.010  0.00  0.00     0.012 A 
ATOM     25  C   UNL d   1      55.003   0.546  34.712  0.00  0.00     0.058 A 
ATOM     26  C   UNL d   1      55.825   0.682  34.739  0.00  0.00     0.012 A 
ATOM     27 CL   UNL d   1      54.545   0.682  35.384  0.00  0.00    -0.082 Cl
ATOM     28  C   UNL d   1      56.288   0.544  34.060  0.00  0.00     0.014 A 
ENDBRANCH  19  22
ENDBRANCH   1  19
TORSDOF 5
ENDMDL
