MODEL 1
REMARK VINA RESULT:      16.2      0.000      0.000
REMARK  4 active torsions:
REMARK  status: ('A' for Active; 'I' for Inactive)
REMARK    1  A    between atoms: C_2  and  C_1 
REMARK    2  A    between atoms: C_3  and  C_4 
REMARK       I    between atoms: N_12  and  C_3 
REMARK    3  A    between atoms: C_4  and  C_5 
REMARK    4  A    between atoms: C_5  and  C_11 
ROOT
ATOM      1  C   UNL d   1      56.972  49.361  50.215  0.00  0.00     0.071 A 
ATOM      2  C   UNL d   1      57.790  49.449  50.155  0.00  0.00     0.004 A 
ATOM      3  C   UNL d   1      58.236  49.621  50.828  0.00  0.00     0.000 A 
ATOM      4  C   UNL d   1      56.598  49.445  50.952  0.00  0.00     0.004 A 
ATOM      5  C   UNL d   1      57.043  49.617  51.625  0.00  0.00    -0.000 A 
ATOM      6  C   UNL d   1      57.861  49.705  51.565  0.00  0.00    -0.000 A 
ENDROOT
BRANCH   3   7
ATOM      7  C   UNL d   1      59.058  49.708  50.760  0.00  0.00     0.005 C 
BRANCH   7   8
ATOM      8  C   UNL d   1      59.560  49.114  51.057  0.00  0.00     0.062 C 
BRANCH   8   9
ATOM      9  C   UNL d   1      60.362  49.271  51.172  0.00  0.00     0.279 C 
ATOM     10  O   UNL d   1      60.894  49.152  50.551  0.00  0.00    -0.265 OA
ATOM     11  N   UNL d   1      60.631  49.544  51.904  0.00  0.00    -0.205 NA
ATOM     12  C   UNL d   1      61.438  49.700  52.014  0.00  0.00     0.123 C 
ENDBRANCH   8   9
ENDBRANCH   7   8
ENDBRANCH   3   7
BRANCH   1  13
ATOM     13  C   UNL d   1      56.525  49.189  49.546  0.00  0.00     0.419 C 
ATOM     14  F   UNL d   1      56.086  48.458  49.351  0.00  0.00    -0.166 F 
ATOM     15  F   UNL d   1      56.361  49.674  48.855  0.00  0.00    -0.166 F 
ATOM     16  F   UNL d   1      56.114  49.027  48.936  0.00  0.00    -0.166 F 
ENDBRANCH   1  13
TORSDOF 4
ENDMDL
