MODEL 1
REMARK VINA RESULT:      -6.4      0.000      0.000
REMARK  1 active torsions:
REMARK  status: ('A' for Active; 'I' for Inactive)
REMARK    1  A    between atoms: C_2  and  N_1 
ROOT
ATOM      1  C   UNL d   1      55.600   0.104  33.327  0.00  0.00     0.130 A 
ATOM      2  C   UNL d   1      55.588  -0.694  33.313  0.00  0.00     0.067 A 
ATOM      3  C   UNL d   1      56.019  -1.119  32.745  0.00  0.00     0.215 A 
ATOM      4  C   UNL d   1      56.468  -0.709  32.186  0.00  0.00     0.120 A 
ATOM      5  C   UNL d   1      56.045   0.535  32.773  0.00  0.00     0.025 A 
ATOM      6  C   UNL d   1      56.480   0.132  32.200  0.00  0.00     0.022 A 
ATOM      7  N   UNL d   1      56.900  -1.113  31.617  0.00  0.00    -0.241 NA
ATOM      8  O   UNL d   1      56.007  -1.938  32.731  0.00  0.00    -0.285 OA
ATOM      9  C   UNL d   1      56.925   0.541  31.645  0.00  0.00     0.003 A 
ATOM     10  C   UNL d   1      57.345  -0.682  31.063  0.00  0.00     0.099 A 
ATOM     11  C   UNL d   1      57.357   0.116  31.077  0.00  0.00     0.021 A 
ENDROOT
BRANCH   1  12
ATOM     12  N   UNL d   1      55.158   0.475  33.907  0.00  0.00    -0.114 N 
ATOM     13  O   UNL d   1      55.506   0.632  34.639  0.00  0.00    -0.532 OA
ATOM     14  O   UNL d   1      54.385   0.682  33.749  0.00  0.00    -0.532 OA
ENDBRANCH   1  12
TORSDOF 1
ENDMDL
MODEL 2
REMARK VINA RESULT:      -5.5      1.605      2.721
REMARK  1 active torsions:
REMARK  status: ('A' for Active; 'I' for Inactive)
REMARK    1  A    between atoms: C_2  and  N_1 
ROOT
ATOM      1  C   UNL d   1      57.079   0.041  31.583  0.00  0.00     0.130 A 
ATOM      2  C   UNL d   1      56.998  -0.752  31.617  0.00  0.00     0.067 A 
ATOM      3  C   UNL d   1      56.474  -1.106  32.156  0.00  0.00     0.215 A 
ATOM      4  C   UNL d   1      56.031  -0.629  32.664  0.00  0.00     0.120 A 
ATOM      5  C   UNL d   1      56.643   0.538  32.085  0.00  0.00     0.025 A 
ATOM      6  C   UNL d   1      56.117   0.207  32.628  0.00  0.00     0.022 A 
ATOM      7  N   UNL d   1      55.509  -0.962  33.203  0.00  0.00    -0.241 NA
ATOM      8  O   UNL d   1      56.390  -1.921  32.190  0.00  0.00    -0.285 OA
ATOM      9  C   UNL d   1      55.678   0.682  33.132  0.00  0.00     0.003 A 
ATOM     10  C   UNL d   1      55.073  -0.465  33.705  0.00  0.00     0.099 A 
ATOM     11  C   UNL d   1      55.154   0.328  33.671  0.00  0.00     0.021 A 
ENDROOT
BRANCH   1  12
ATOM     12  N   UNL d   1      57.608   0.340  31.035  0.00  0.00    -0.114 N 
ATOM     13  O   UNL d   1      57.394   0.357  30.238  0.00  0.00    -0.532 OA
ATOM     14  O   UNL d   1      58.333   0.615  31.287  0.00  0.00    -0.532 OA
ENDBRANCH   1  12
TORSDOF 1
ENDMDL
MODEL 3
REMARK VINA RESULT:      -4.5      1.490      3.046
REMARK  1 active torsions:
REMARK  status: ('A' for Active; 'I' for Inactive)
REMARK    1  A    between atoms: C_2  and  N_1 
ROOT
ATOM      1  C   UNL d   1      56.620   0.138  32.522  0.00  0.00     0.130 A 
ATOM      2  C   UNL d   1      57.156   0.308  33.089  0.00  0.00     0.067 A 
ATOM      3  C   UNL d   1      56.917   0.491  33.863  0.00  0.00     0.215 A 
ATOM      4  C   UNL d   1      56.113   0.497  34.049  0.00  0.00     0.120 A 
ATOM      5  C   UNL d   1      55.806   0.139  32.689  0.00  0.00     0.025 A 
ATOM      6  C   UNL d   1      55.548   0.318  33.452  0.00  0.00     0.022 A 
ATOM      7  N   UNL d   1      55.859   0.675  34.809  0.00  0.00    -0.241 NA
ATOM      8  O   UNL d   1      57.467   0.665  34.445  0.00  0.00    -0.285 OA
ATOM      9  C   UNL d   1      54.748   0.324  33.635  0.00  0.00     0.003 A 
ATOM     10  C   UNL d   1      55.045   0.676  34.975  0.00  0.00     0.099 A 
ATOM     11  C   UNL d   1      54.509   0.507  34.409  0.00  0.00     0.021 A 
ENDROOT
BRANCH   1  12
ATOM     12  N   UNL d   1      56.906  -0.035  31.776  0.00  0.00    -0.114 N 
ATOM     13  O   UNL d   1      57.176   0.580  31.296  0.00  0.00    -0.532 OA
ATOM     14  O   UNL d   1      56.919  -0.810  31.523  0.00  0.00    -0.532 OA
ENDBRANCH   1  12
TORSDOF 1
ENDMDL
MODEL 4
REMARK VINA RESULT:      -4.2      1.323      1.827
REMARK  1 active torsions:
REMARK  status: ('A' for Active; 'I' for Inactive)
REMARK    1  A    between atoms: C_2  and  N_1 
ROOT
ATOM      1  C   UNL d   1      56.299  -0.462  32.780  0.00  0.00     0.130 A 
ATOM      2  C   UNL d   1      56.780  -0.095  33.300  0.00  0.00     0.067 A 
ATOM      3  C   UNL d   1      57.468   0.294  33.046  0.00  0.00     0.215 A 
ATOM      4  C   UNL d   1      57.657   0.302  32.243  0.00  0.00     0.120 A 
ATOM      5  C   UNL d   1      56.472  -0.466  31.967  0.00  0.00     0.025 A 
ATOM      6  C   UNL d   1      57.151  -0.085  31.694  0.00  0.00     0.022 A 
ATOM      7  N   UNL d   1      58.334   0.682  31.975  0.00  0.00    -0.241 NA
ATOM      8  O   UNL d   1      57.962   0.671  33.582  0.00  0.00    -0.285 OA
ATOM      9  C   UNL d   1      57.337  -0.078  30.895  0.00  0.00     0.003 A 
ATOM     10  C   UNL d   1      58.506   0.678  31.162  0.00  0.00     0.099 A 
ATOM     11  C   UNL d   1      58.026   0.311  30.641  0.00  0.00     0.021 A 
ENDROOT
BRANCH   1  12
ATOM     12  N   UNL d   1      55.634  -0.831  33.080  0.00  0.00    -0.114 N 
ATOM     13  O   UNL d   1      54.999  -0.369  33.336  0.00  0.00    -0.532 OA
ATOM     14  O   UNL d   1      55.612  -1.645  33.121  0.00  0.00    -0.532 OA
ENDBRANCH   1  12
TORSDOF 1
ENDMDL
MODEL 5
REMARK VINA RESULT:      -4.0      8.498      9.351
REMARK  1 active torsions:
REMARK  status: ('A' for Active; 'I' for Inactive)
REMARK    1  A    between atoms: C_2  and  N_1 
ROOT
ATOM      1  C   UNL d   1      60.252  -6.862  35.929  0.00  0.00     0.130 A 
ATOM      2  C   UNL d   1      59.504  -7.063  36.121  0.00  0.00     0.067 A 
ATOM      3  C   UNL d   1      59.262  -7.858  36.126  0.00  0.00     0.215 A 
ATOM      4  C   UNL d   1      59.804  -8.448  35.930  0.00  0.00     0.120 A 
ATOM      5  C   UNL d   1      60.812  -7.441  35.728  0.00  0.00     0.025 A 
ATOM      6  C   UNL d   1      60.592  -8.236  35.727  0.00  0.00     0.022 A 
ATOM      7  N   UNL d   1      59.582  -9.239  35.930  0.00  0.00    -0.241 NA
ATOM      8  O   UNL d   1      58.493  -8.064  36.324  0.00  0.00    -0.285 OA
ATOM      9  C   UNL d   1      61.133  -8.822  35.531  0.00  0.00     0.003 A 
ATOM     10  C   UNL d   1      60.143  -9.818  35.729  0.00  0.00     0.099 A 
ATOM     11  C   UNL d   1      60.891  -9.617  35.536  0.00  0.00     0.021 A 
ENDROOT
BRANCH   1  12
ATOM     12  N   UNL d   1      60.439  -6.066  35.938  0.00  0.00    -0.114 N 
ATOM     13  O   UNL d   1      59.931  -5.529  35.572  0.00  0.00    -0.532 OA
ATOM     14  O   UNL d   1      61.123  -5.821  36.309  0.00  0.00    -0.532 OA
ENDBRANCH   1  12
TORSDOF 1
ENDMDL
MODEL 6
REMARK VINA RESULT:      -3.9      2.138      3.264
REMARK  1 active torsions:
REMARK  status: ('A' for Active; 'I' for Inactive)
REMARK    1  A    between atoms: C_2  and  N_1 
ROOT
ATOM      1  C   UNL d   1      57.936   0.134  30.448  0.00  0.00     0.130 A 
ATOM      2  C   UNL d   1      57.858  -0.660  30.435  0.00  0.00     0.067 A 
ATOM      3  C   UNL d   1      57.385  -1.052  30.993  0.00  0.00     0.215 A 
ATOM      4  C   UNL d   1      56.989  -0.614  31.570  0.00  0.00     0.120 A 
ATOM      5  C   UNL d   1      57.546   0.593  31.020  0.00  0.00     0.025 A 
ATOM      6  C   UNL d   1      57.071   0.223  31.583  0.00  0.00     0.022 A 
ATOM      7  N   UNL d   1      56.517  -0.986  32.129  0.00  0.00    -0.241 NA
ATOM      8  O   UNL d   1      57.305  -1.868  30.980  0.00  0.00    -0.285 OA
ATOM      9  C   UNL d   1      56.678   0.660  32.156  0.00  0.00     0.003 A 
ATOM     10  C   UNL d   1      56.127  -0.527  32.701  0.00  0.00     0.099 A 
ATOM     11  C   UNL d   1      56.205   0.267  32.714  0.00  0.00     0.021 A 
ENDROOT
BRANCH   1  12
ATOM     12  N   UNL d   1      58.413   0.473  29.877  0.00  0.00    -0.114 N 
ATOM     13  O   UNL d   1      59.213   0.595  30.041  0.00  0.00    -0.532 OA
ATOM     14  O   UNL d   1      58.090   0.682  29.158  0.00  0.00    -0.532 OA
ENDBRANCH   1  12
TORSDOF 1
ENDMDL
