MODEL 1
REMARK VINA RESULT:      -9.5      0.000      0.000
REMARK  3 active torsions:
REMARK  status: ('A' for Active; 'I' for Inactive)
REMARK    1  A    between atoms: S_12  and  C_7 
REMARK    2  A    between atoms: C_10  and  C_13 
REMARK    3  A    between atoms: C_13  and  S_12 
ROOT
ATOM      1  N   UNL d   1      51.843  34.099  53.462  0.00  0.00    -0.224 N 
ATOM      2  N   UNL d   1      52.821  34.885  54.160  0.00  0.00    -0.241 N 
ATOM      3  C   UNL d   1      52.103  34.833  53.758  0.00  0.00     0.343 A 
ATOM      4  C   UNL d   1      53.283  34.199  54.267  0.00  0.00     0.160 A 
ATOM      5  C   UNL d   1      52.303  33.424  53.570  0.00  0.00     0.273 A 
ATOM      6  C   UNL d   1      53.026  33.473  53.974  0.00  0.00     0.115 A 
ATOM      7  C   UNL d   1      53.479  32.802  54.080  0.00  0.00     0.120 A 
ATOM      8  N   UNL d   1      54.004  34.250  54.671  0.00  0.00    -0.209 NA
ATOM      9  N   UNL d   1      54.200  32.846  54.482  0.00  0.00    -0.220 NA
ATOM     10  C   UNL d   1      54.463  33.575  54.778  0.00  0.00     0.165 A 
ATOM     11  O   UNL d   1      51.645  35.508  53.650  0.00  0.00    -0.245 OA
ATOM     12  O   UNL d   1      52.045  32.698  53.277  0.00  0.00    -0.266 OA
ATOM     13  C   UNL d   1      51.129  34.054  53.063  0.00  0.00     0.107 C 
ATOM     14  C   UNL d   1      53.085  35.608  54.456  0.00  0.00     0.105 C 
ATOM     15  C   UNL d   1      55.179  33.623  55.178  0.00  0.00     0.042 C 
ENDROOT
BRANCH   7  16
ATOM     16  S   UNL d   1      53.221  32.075  53.786  0.00  0.00    -0.067 SA
BRANCH  16  17
ATOM     17  C   UNL d   1      53.701  31.407  53.847  0.00  0.00     0.040 C 
BRANCH  17  18
ATOM     18  C   UNL d   1      53.404  30.661  53.657  0.00  0.00     0.045 A 
ATOM     19  C   UNL d   1      53.257  30.114  54.262  0.00  0.00     0.060 A 
ATOM     20 CL   UNL d   1      53.409  30.319  55.048  0.00  0.00    -0.082 Cl
ATOM     21  C   UNL d   1      52.960  29.364  54.087  0.00  0.00     0.012 A 
ATOM     22  C   UNL d   1      52.810  29.164  53.301  0.00  0.00     0.003 A 
ATOM     23  C   UNL d   1      52.950  29.697  52.689  0.00  0.00     0.030 A 
ATOM     24  C   UNL d   1      53.247  30.445  52.867  0.00  0.00     0.141 A 
ATOM     25  F   UNL d   1      53.391  30.983  52.268  0.00  0.00    -0.204 F 
ENDBRANCH  17  18
ENDBRANCH  16  17
ENDBRANCH   7  16
TORSDOF 3
ENDMDL
MODEL 2
REMARK VINA RESULT:      -8.9      1.155      2.038
REMARK  3 active torsions:
REMARK  status: ('A' for Active; 'I' for Inactive)
REMARK    1  A    between atoms: S_12  and  C_7 
REMARK    2  A    between atoms: C_10  and  C_13 
REMARK    3  A    between atoms: C_13  and  S_12 
ROOT
ATOM      1  N   UNL d   1      53.877  33.876  55.031  0.00  0.00    -0.224 N 
ATOM      2  N   UNL d   1      53.089  34.846  54.325  0.00  0.00    -0.241 N 
ATOM      3  C   UNL d   1      53.619  34.661  54.928  0.00  0.00     0.343 A 
ATOM      4  C   UNL d   1      52.814  34.242  53.819  0.00  0.00     0.160 A 
ATOM      5  C   UNL d   1      53.603  33.283  54.529  0.00  0.00     0.273 A 
ATOM      6  C   UNL d   1      53.070  33.465  53.920  0.00  0.00     0.115 A 
ATOM      7  C   UNL d   1      52.800  32.874  53.425  0.00  0.00     0.120 A 
ATOM      8  N   UNL d   1      52.282  34.426  53.212  0.00  0.00    -0.209 NA
ATOM      9  N   UNL d   1      52.268  33.053  52.817  0.00  0.00    -0.220 NA
ATOM     10  C   UNL d   1      52.009  33.833  52.712  0.00  0.00     0.165 A 
ATOM     11  O   UNL d   1      53.892  35.254  55.429  0.00  0.00    -0.245 OA
ATOM     12  O   UNL d   1      53.859  32.505  54.630  0.00  0.00    -0.266 OA
ATOM     13  C   UNL d   1      54.404  33.699  55.632  0.00  0.00     0.107 C 
ATOM     14  C   UNL d   1      52.828  35.621  54.217  0.00  0.00     0.105 C 
ATOM     15  C   UNL d   1      51.480  34.013  52.109  0.00  0.00     0.042 C 
ENDROOT
BRANCH   7  16
ATOM     16  S   UNL d   1      53.056  32.097  53.526  0.00  0.00    -0.067 SA
BRANCH  16  17
ATOM     17  C   UNL d   1      52.783  31.499  53.028  0.00  0.00     0.040 C 
BRANCH  17  18
ATOM     18  C   UNL d   1      52.924  30.707  53.210  0.00  0.00     0.045 A 
ATOM     19  C   UNL d   1      52.294  30.225  53.449  0.00  0.00     0.060 A 
ATOM     20 CL   UNL d   1      51.531  30.540  53.504  0.00  0.00    -0.082 Cl
ATOM     21  C   UNL d   1      52.419  29.431  53.634  0.00  0.00     0.012 A 
ATOM     22  C   UNL d   1      53.181  29.120  53.579  0.00  0.00     0.003 A 
ATOM     23  C   UNL d   1      53.818  29.586  53.342  0.00  0.00     0.030 A 
ATOM     24  C   UNL d   1      53.688  30.380  53.158  0.00  0.00     0.141 A 
ATOM     25  F   UNL d   1      54.312  30.853  52.922  0.00  0.00    -0.204 F 
ENDBRANCH  17  18
ENDBRANCH  16  17
ENDBRANCH   7  16
TORSDOF 3
ENDMDL
MODEL 3
REMARK VINA RESULT:      -8.8      2.088      3.954
REMARK  3 active torsions:
REMARK  status: ('A' for Active; 'I' for Inactive)
REMARK    1  A    between atoms: S_12  and  C_7 
REMARK    2  A    between atoms: C_10  and  C_13 
REMARK    3  A    between atoms: C_13  and  S_12 
ROOT
ATOM      1  N   UNL d   1      52.890  31.948  53.237  0.00  0.00    -0.224 N 
ATOM      2  N   UNL d   1      53.739  32.734  54.087  0.00  0.00    -0.241 N 
ATOM      3  C   UNL d   1      53.549  32.010  53.744  0.00  0.00     0.343 A 
ATOM      4  C   UNL d   1      53.269  33.404  53.923  0.00  0.00     0.160 A 
ATOM      5  C   UNL d   1      52.429  32.611  53.078  0.00  0.00     0.273 A 
ATOM      6  C   UNL d   1      52.617  33.343  53.422  0.00  0.00     0.115 A 
ATOM      7  C   UNL d   1      52.157  33.998  53.262  0.00  0.00     0.120 A 
ATOM      8  N   UNL d   1      53.459  34.132  54.267  0.00  0.00    -0.209 NA
ATOM      9  N   UNL d   1      52.343  34.729  53.603  0.00  0.00    -0.220 NA
ATOM     10  C   UNL d   1      52.997  34.795  54.108  0.00  0.00     0.165 A 
ATOM     11  O   UNL d   1      54.011  31.348  53.903  0.00  0.00    -0.245 OA
ATOM     12  O   UNL d   1      51.777  32.550  52.577  0.00  0.00    -0.266 OA
ATOM     13  C   UNL d   1      52.707  31.225  52.900  0.00  0.00     0.107 C 
ATOM     14  C   UNL d   1      54.390  32.803  54.589  0.00  0.00     0.105 C 
ATOM     15  C   UNL d   1      53.184  35.519  54.448  0.00  0.00     0.042 C 
ENDROOT
BRANCH   7  16
ATOM     16  S   UNL d   1      51.505  33.937  52.760  0.00  0.00    -0.067 SA
BRANCH  16  17
ATOM     17  C   UNL d   1      51.057  34.604  52.576  0.00  0.00     0.040 C 
BRANCH  17  18
ATOM     18  C   UNL d   1      50.377  34.535  52.114  0.00  0.00     0.045 A 
ATOM     19  C   UNL d   1      49.632  34.612  52.469  0.00  0.00     0.060 A 
ATOM     20 CL   UNL d   1      49.576  34.756  53.282  0.00  0.00    -0.082 Cl
ATOM     21  C   UNL d   1      48.943  34.545  52.020  0.00  0.00     0.012 A 
ATOM     22  C   UNL d   1      49.004  34.401  51.210  0.00  0.00     0.003 A 
ATOM     23  C   UNL d   1      49.736  34.323  50.842  0.00  0.00     0.030 A 
ATOM     24  C   UNL d   1      50.423  34.390  51.295  0.00  0.00     0.141 A 
ATOM     25  F   UNL d   1      51.156  34.314  50.941  0.00  0.00    -0.204 F 
ENDBRANCH  17  18
ENDBRANCH  16  17
ENDBRANCH   7  16
TORSDOF 3
ENDMDL
MODEL 4
REMARK VINA RESULT:      -7.8      2.107      3.951
REMARK  3 active torsions:
REMARK  status: ('A' for Active; 'I' for Inactive)
REMARK    1  A    between atoms: S_12  and  C_7 
REMARK    2  A    between atoms: C_10  and  C_13 
REMARK    3  A    between atoms: C_13  and  S_12 
ROOT
ATOM      1  N   UNL d   1      53.455  34.708  54.519  0.00  0.00    -0.224 N 
ATOM      2  N   UNL d   1      54.083  33.417  54.496  0.00  0.00    -0.241 N 
ATOM      3  C   UNL d   1      54.074  34.201  54.750  0.00  0.00     0.343 A 
ATOM      4  C   UNL d   1      53.470  33.136  54.006  0.00  0.00     0.160 A 
ATOM      5  C   UNL d   1      52.851  34.426  54.035  0.00  0.00     0.273 A 
ATOM      6  C   UNL d   1      52.856  33.638  53.777  0.00  0.00     0.115 A 
ATOM      7  C   UNL d   1      52.255  33.362  53.298  0.00  0.00     0.120 A 
ATOM      8  N   UNL d   1      53.477  32.349  53.750  0.00  0.00    -0.209 NA
ATOM      9  N   UNL d   1      52.258  32.576  53.038  0.00  0.00    -0.220 NA
ATOM     10  C   UNL d   1      52.873  32.069  53.266  0.00  0.00     0.165 A 
ATOM     11  O   UNL d   1      54.678  34.481  55.234  0.00  0.00    -0.245 OA
ATOM     12  O   UNL d   1      52.237  34.928  53.806  0.00  0.00    -0.266 OA
ATOM     13  C   UNL d   1      53.452  35.485  54.775  0.00  0.00     0.107 C 
ATOM     14  C   UNL d   1      54.693  32.909  54.721  0.00  0.00     0.105 C 
ATOM     15  C   UNL d   1      52.878  31.288  53.011  0.00  0.00     0.042 C 
ENDROOT
BRANCH   7  16
ATOM     16  S   UNL d   1      51.642  33.864  53.068  0.00  0.00    -0.067 SA
BRANCH  16  17
ATOM     17  C   UNL d   1      50.993  33.567  52.654  0.00  0.00     0.040 C 
BRANCH  17  18
ATOM     18  C   UNL d   1      50.363  34.062  52.457  0.00  0.00     0.045 A 
ATOM     19  C   UNL d   1      50.294  34.347  51.683  0.00  0.00     0.060 A 
ATOM     20 CL   UNL d   1      50.855  34.135  51.114  0.00  0.00    -0.082 Cl
ATOM     21  C   UNL d   1      49.668  34.842  51.471  0.00  0.00     0.012 A 
ATOM     22  C   UNL d   1      49.110  35.051  52.041  0.00  0.00     0.003 A 
ATOM     23  C   UNL d   1      49.165  34.776  52.816  0.00  0.00     0.030 A 
ATOM     24  C   UNL d   1      49.792  34.281  53.024  0.00  0.00     0.141 A 
ATOM     25  F   UNL d   1      49.858  34.001  53.789  0.00  0.00    -0.204 F 
ENDBRANCH  17  18
ENDBRANCH  16  17
ENDBRANCH   7  16
TORSDOF 3
ENDMDL
MODEL 5
REMARK VINA RESULT:      -7.5      1.935      3.966
REMARK  3 active torsions:
REMARK  status: ('A' for Active; 'I' for Inactive)
REMARK    1  A    between atoms: S_12  and  C_7 
REMARK    2  A    between atoms: C_10  and  C_13 
REMARK    3  A    between atoms: C_13  and  S_12 
ROOT
ATOM      1  N   UNL d   1      52.321  30.361  53.276  0.00  0.00    -0.224 N 
ATOM      2  N   UNL d   1      53.710  30.506  53.605  0.00  0.00    -0.241 N 
ATOM      3  C   UNL d   1      53.051  30.025  53.495  0.00  0.00     0.343 A 
ATOM      4  C   UNL d   1      53.642  31.330  53.496  0.00  0.00     0.160 A 
ATOM      5  C   UNL d   1      52.257  31.175  53.170  0.00  0.00     0.273 A 
ATOM      6  C   UNL d   1      52.918  31.663  53.280  0.00  0.00     0.115 A 
ATOM      7  C   UNL d   1      52.851  32.470  53.174  0.00  0.00     0.120 A 
ATOM      8  N   UNL d   1      54.303  31.815  53.607  0.00  0.00    -0.209 NA
ATOM      9  N   UNL d   1      53.510  32.960  53.283  0.00  0.00    -0.220 NA
ATOM     10  C   UNL d   1      54.238  32.629  53.500  0.00  0.00     0.165 A 
ATOM     11  O   UNL d   1      53.116  29.211  53.601  0.00  0.00    -0.245 OA
ATOM     12  O   UNL d   1      51.534  31.507  52.954  0.00  0.00    -0.266 OA
ATOM     13  C   UNL d   1      51.669  29.877  53.169  0.00  0.00     0.107 C 
ATOM     14  C   UNL d   1      54.437  30.181  53.821  0.00  0.00     0.105 C 
ATOM     15  C   UNL d   1      54.893  33.112  53.609  0.00  0.00     0.042 C 
ENDROOT
BRANCH   7  16
ATOM     16  S   UNL d   1      52.128  32.802  52.958  0.00  0.00    -0.067 SA
BRANCH  16  17
ATOM     17  C   UNL d   1      52.018  33.619  52.993  0.00  0.00     0.040 C 
BRANCH  17  18
ATOM     18  C   UNL d   1      51.318  33.958  52.717  0.00  0.00     0.045 A 
ATOM     19  C   UNL d   1      50.722  34.159  53.256  0.00  0.00     0.060 A 
ATOM     20 CL   UNL d   1      50.832  34.019  54.064  0.00  0.00    -0.082 Cl
ATOM     21  C   UNL d   1      50.016  34.498  52.996  0.00  0.00     0.012 A 
ATOM     22  C   UNL d   1      49.910  34.635  52.190  0.00  0.00     0.003 A 
ATOM     23  C   UNL d   1      50.493  34.441  51.641  0.00  0.00     0.030 A 
ATOM     24  C   UNL d   1      51.197  34.102  51.905  0.00  0.00     0.141 A 
ATOM     25  F   UNL d   1      51.783  33.905  51.371  0.00  0.00    -0.204 F 
ENDBRANCH  17  18
ENDBRANCH  16  17
ENDBRANCH   7  16
TORSDOF 3
ENDMDL
