MODEL 1
REMARK VINA RESULT:      -2.6      0.000      0.000
REMARK  8 active torsions:
REMARK  status: ('A' for Active; 'I' for Inactive)
REMARK    1  A    between atoms: C_2  and  S_1 
REMARK    2  A    between atoms: N_11  and  S_1 
REMARK    3  A    between atoms: N_6  and  C_17 
REMARK    4  A    between atoms: C_21  and  N_11 
REMARK    5  A    between atoms: O_16  and  C_12 
REMARK    6  A    between atoms: C_22  and  O_16 
REMARK    7  A    between atoms: C_17  and  C_18 
REMARK    8  A    between atoms: C_18  and  C_21 
ROOT
ATOM      1  C   UNL d   1      57.346  -0.115  31.903  0.00  0.00     0.105 A 
ATOM      2  C   UNL d   1      56.735  -0.486  32.317  0.00  0.00     0.014 A 
ATOM      3  C   UNL d   1      56.582  -0.272  33.100  0.00  0.00     0.024 A 
ATOM      4  C   UNL d   1      57.806   0.470  32.272  0.00  0.00     0.015 A 
ATOM      5  C   UNL d   1      57.034   0.309  33.476  0.00  0.00     0.100 A 
ATOM      6  C   UNL d   1      57.651   0.681  33.055  0.00  0.00     0.025 A 
ATOM      7  C   UNL d   1      56.281  -1.066  31.948  0.00  0.00     0.001 A 
ATOM      8  C   UNL d   1      55.980  -0.636  33.512  0.00  0.00     0.002 A 
ATOM      9  C   UNL d   1      55.671  -1.433  32.370  0.00  0.00     0.000 A 
ATOM     10  C   UNL d   1      55.518  -1.219  33.152  0.00  0.00     0.000 A 
ENDROOT
BRANCH   1  11
ATOM     11  S   UNL d   1      57.502  -0.326  31.121  0.00  0.00     0.285 S 
ATOM     12  O   UNL d   1      58.013  -0.917  31.382  0.00  0.00    -0.198 OA
ATOM     13  O   UNL d   1      56.989   0.266  30.859  0.00  0.00    -0.198 OA
BRANCH  11  14
ATOM     14  N   UNL d   1      57.657  -0.537  30.339  0.00  0.00    -0.157 NA
BRANCH  14  15
ATOM     15  C   UNL d   1      58.432  -0.730  30.110  0.00  0.00     0.114 C 
BRANCH  15  16
ATOM     16  C   UNL d   1      58.563  -1.123  29.397  0.00  0.00     0.041 C 
BRANCH  16  17
ATOM     17  C   UNL d   1      59.281  -1.036  28.998  0.00  0.00     0.083 C 
BRANCH  17  18
ATOM     18  N   UNL d   1      59.740  -1.698  28.818  0.00  0.00    -0.285 N 
ATOM     19  C   UNL d   1      60.562  -1.707  28.732  0.00  0.00     0.183 A 
ATOM     20  N   UNL d   1      60.787  -2.484  28.552  0.00  0.00    -0.222 NA
ATOM     21  C   UNL d   1      60.107  -2.949  28.527  0.00  0.00     0.120 A 
ATOM     22  C   UNL d   1      59.459  -2.461  28.692  0.00  0.00     0.102 A 
ENDBRANCH  17  18
ENDBRANCH  16  17
ENDBRANCH  15  16
ENDBRANCH  14  15
ENDBRANCH  11  14
ENDBRANCH   1  11
BRANCH   5  23
ATOM     23  O   UNL d   1      56.878   0.520  34.259  0.00  0.00    -0.305 OA
BRANCH  23  24
ATOM     24  C   UNL d   1      57.496   0.576  34.792  0.00  0.00     0.123 C 
ATOM     25  C   UNL d   1      57.333   0.680  35.595  0.00  0.00     0.029 C 
ENDBRANCH  23  24
ENDBRANCH   5  23
TORSDOF 8
ENDMDL
MODEL 2
REMARK VINA RESULT:      -1.1      2.007      5.228
REMARK  8 active torsions:
REMARK  status: ('A' for Active; 'I' for Inactive)
REMARK    1  A    between atoms: C_2  and  S_1 
REMARK    2  A    between atoms: N_11  and  S_1 
REMARK    3  A    between atoms: N_6  and  C_17 
REMARK    4  A    between atoms: C_21  and  N_11 
REMARK    5  A    between atoms: O_16  and  C_12 
REMARK    6  A    between atoms: C_22  and  O_16 
REMARK    7  A    between atoms: C_17  and  C_18 
REMARK    8  A    between atoms: C_18  and  C_21 
ROOT
ATOM      1  C   UNL d   1      58.031   0.057  30.564  0.00  0.00     0.105 A 
ATOM      2  C   UNL d   1      58.038  -0.745  30.364  0.00  0.00     0.014 A 
ATOM      3  C   UNL d   1      58.612  -1.032  29.845  0.00  0.00     0.024 A 
ATOM      4  C   UNL d   1      58.599   0.572  30.244  0.00  0.00     0.015 A 
ATOM      5  C   UNL d   1      59.181  -0.527  29.521  0.00  0.00     0.100 A 
ATOM      6  C   UNL d   1      59.171   0.282  29.725  0.00  0.00     0.025 A 
ATOM      7  C   UNL d   1      57.474  -1.254  30.684  0.00  0.00     0.001 A 
ATOM      8  C   UNL d   1      58.623  -1.823  29.644  0.00  0.00     0.002 A 
ATOM      9  C   UNL d   1      57.488  -2.055  30.478  0.00  0.00     0.000 A 
ATOM     10  C   UNL d   1      58.061  -2.342  29.959  0.00  0.00     0.000 A 
ENDROOT
BRANCH   1  11
ATOM     11  S   UNL d   1      57.460   0.347  31.083  0.00  0.00     0.285 S 
ATOM     12  O   UNL d   1      57.959   0.190  31.720  0.00  0.00    -0.198 OA
ATOM     13  O   UNL d   1      56.960   0.504  30.445  0.00  0.00    -0.198 OA
BRANCH  11  14
ATOM     14  N   UNL d   1      56.888   0.637  31.603  0.00  0.00    -0.157 NA
BRANCH  14  15
ATOM     15  C   UNL d   1      56.825   0.319  32.367  0.00  0.00     0.114 C 
BRANCH  15  16
ATOM     16  C   UNL d   1      56.209   0.558  32.861  0.00  0.00     0.041 C 
BRANCH  16  17
ATOM     17  C   UNL d   1      56.339   0.659  33.670  0.00  0.00     0.083 C 
BRANCH  17  18
ATOM     18  N   UNL d   1      55.704   0.667  34.196  0.00  0.00    -0.285 N 
ATOM     19  C   UNL d   1      54.904   0.667  33.988  0.00  0.00     0.183 A 
ATOM     20  N   UNL d   1      54.462   0.676  34.689  0.00  0.00    -0.222 NA
ATOM     21  C   UNL d   1      54.988   0.681  35.324  0.00  0.00     0.120 A 
ATOM     22  C   UNL d   1      55.757   0.675  35.017  0.00  0.00     0.102 A 
ENDBRANCH  17  18
ENDBRANCH  16  17
ENDBRANCH  15  16
ENDBRANCH  14  15
ENDBRANCH  11  14
ENDBRANCH   1  11
BRANCH   5  23
ATOM     23  O   UNL d   1      59.753  -0.818  29.001  0.00  0.00    -0.305 OA
BRANCH  23  24
ATOM     24  C   UNL d   1      60.421  -0.371  28.845  0.00  0.00     0.123 C 
ATOM     25  C   UNL d   1      61.096  -0.740  28.547  0.00  0.00     0.029 C 
ENDBRANCH  23  24
ENDBRANCH   5  23
TORSDOF 8
ENDMDL
MODEL 3
REMARK VINA RESULT:      -0.9      1.177      1.947
REMARK  8 active torsions:
REMARK  status: ('A' for Active; 'I' for Inactive)
REMARK    1  A    between atoms: C_2  and  S_1 
REMARK    2  A    between atoms: N_11  and  S_1 
REMARK    3  A    between atoms: N_6  and  C_17 
REMARK    4  A    between atoms: C_21  and  N_11 
REMARK    5  A    between atoms: O_16  and  C_12 
REMARK    6  A    between atoms: C_22  and  O_16 
REMARK    7  A    between atoms: C_17  and  C_18 
REMARK    8  A    between atoms: C_18  and  C_21 
ROOT
ATOM      1  C   UNL d   1      56.353   0.079  32.576  0.00  0.00     0.105 A 
ATOM      2  C   UNL d   1      56.875   0.276  33.186  0.00  0.00     0.014 A 
ATOM      3  C   UNL d   1      56.578   0.475  33.930  0.00  0.00     0.024 A 
ATOM      4  C   UNL d   1      55.533   0.082  32.711  0.00  0.00     0.015 A 
ATOM      5  C   UNL d   1      55.764   0.481  34.074  0.00  0.00     0.100 A 
ATOM      6  C   UNL d   1      55.240   0.282  33.456  0.00  0.00     0.025 A 
ATOM      7  C   UNL d   1      57.687   0.272  33.049  0.00  0.00     0.001 A 
ATOM      8  C   UNL d   1      57.089   0.670  34.535  0.00  0.00     0.002 A 
ATOM      9  C   UNL d   1      58.203   0.470  33.665  0.00  0.00     0.000 A 
ATOM     10  C   UNL d   1      57.906   0.670  34.409  0.00  0.00     0.000 A 
ENDROOT
BRANCH   1  11
ATOM     11  S   UNL d   1      56.645  -0.121  31.832  0.00  0.00     0.285 S 
ATOM     12  O   UNL d   1      56.605   0.669  31.603  0.00  0.00    -0.198 OA
ATOM     13  O   UNL d   1      56.686  -0.914  32.060  0.00  0.00    -0.198 OA
BRANCH  11  14
ATOM     14  N   UNL d   1      56.938  -0.321  31.087  0.00  0.00    -0.157 NA
BRANCH  14  15
ATOM     15  C   UNL d   1      57.758  -0.388  30.970  0.00  0.00     0.114 C 
BRANCH  15  16
ATOM     16  C   UNL d   1      58.050  -0.609  30.231  0.00  0.00     0.041 C 
BRANCH  16  17
ATOM     17  C   UNL d   1      58.621  -0.147  29.853  0.00  0.00     0.083 C 
BRANCH  17  18
ATOM     18  N   UNL d   1      59.161  -0.494  29.335  0.00  0.00    -0.285 N 
ATOM     19  C   UNL d   1      59.812  -0.117  28.992  0.00  0.00     0.183 A 
ATOM     20  N   UNL d   1      60.199  -0.672  28.513  0.00  0.00    -0.222 NA
ATOM     21  C   UNL d   1      59.788  -1.385  28.562  0.00  0.00     0.120 A 
ATOM     22  C   UNL d   1      59.146  -1.274  29.072  0.00  0.00     0.102 A 
ENDBRANCH  17  18
ENDBRANCH  16  17
ENDBRANCH  15  16
ENDBRANCH  14  15
ENDBRANCH  11  14
ENDBRANCH   1  11
BRANCH   5  23
ATOM     23  O   UNL d   1      55.471   0.681  34.819  0.00  0.00    -0.305 OA
BRANCH  23  24
ATOM     24  C   UNL d   1      54.718   0.442  35.035  0.00  0.00     0.123 C 
ATOM     25  C   UNL d   1      54.523   0.384  35.834  0.00  0.00     0.029 C 
ENDBRANCH  23  24
ENDBRANCH   5  23
TORSDOF 8
ENDMDL
MODEL 4
REMARK VINA RESULT:      -0.7      8.383     10.081
REMARK  8 active torsions:
REMARK  status: ('A' for Active; 'I' for Inactive)
REMARK    1  A    between atoms: C_2  and  S_1 
REMARK    2  A    between atoms: N_11  and  S_1 
REMARK    3  A    between atoms: N_6  and  C_17 
REMARK    4  A    between atoms: C_21  and  N_11 
REMARK    5  A    between atoms: O_16  and  C_12 
REMARK    6  A    between atoms: C_22  and  O_16 
REMARK    7  A    between atoms: C_17  and  C_18 
REMARK    8  A    between atoms: C_18  and  C_21 
ROOT
ATOM      1  C   UNL d   1      59.251  -9.802  32.198  0.00  0.00     0.105 A 
ATOM      2  C   UNL d   1      59.785  -9.804  31.567  0.00  0.00     0.014 A 
ATOM      3  C   UNL d   1      59.501  -9.804  30.792  0.00  0.00     0.024 A 
ATOM      4  C   UNL d   1      58.433  -9.800  32.054  0.00  0.00     0.015 A 
ATOM      5  C   UNL d   1      58.688  -9.802  30.638  0.00  0.00     0.100 A 
ATOM      6  C   UNL d   1      58.153  -9.799  31.278  0.00  0.00     0.025 A 
ATOM      7  C   UNL d   1      60.596  -9.806  31.713  0.00  0.00     0.001 A 
ATOM      8  C   UNL d   1      60.023  -9.806  30.166  0.00  0.00     0.002 A 
ATOM      9  C   UNL d   1      61.122  -9.808  31.075  0.00  0.00     0.000 A 
ATOM     10  C   UNL d   1      60.839  -9.808  30.301  0.00  0.00     0.000 A 
ENDROOT
BRANCH   1  11
ATOM     11  S   UNL d   1      59.531  -9.802  32.974  0.00  0.00     0.285 S 
ATOM     12  O   UNL d   1      58.756  -9.810  33.254  0.00  0.00    -0.198 OA
ATOM     13  O   UNL d   1      60.308  -9.794  32.694  0.00  0.00    -0.198 OA
BRANCH  11  14
ATOM     14  N   UNL d   1      59.812  -9.802  33.750  0.00  0.00    -0.157 NA
BRANCH  14  15
ATOM     15  C   UNL d   1      59.397  -9.386  34.338  0.00  0.00     0.114 C 
BRANCH  15  16
ATOM     16  C   UNL d   1      59.795  -9.124  35.011  0.00  0.00     0.041 C 
BRANCH  16  17
ATOM     17  C   UNL d   1      59.403  -8.667  35.576  0.00  0.00     0.083 C 
BRANCH  17  18
ATOM     18  N   UNL d   1      59.701  -7.930  35.796  0.00  0.00    -0.285 N 
ATOM     19  C   UNL d   1      60.487  -7.767  35.995  0.00  0.00     0.183 A 
ATOM     20  N   UNL d   1      60.537  -6.960  36.178  0.00  0.00    -0.222 NA
ATOM     21  C   UNL d   1      59.786  -6.630  36.093  0.00  0.00     0.120 A 
ATOM     22  C   UNL d   1      59.270  -7.232  35.856  0.00  0.00     0.102 A 
ENDBRANCH  17  18
ENDBRANCH  16  17
ENDBRANCH  15  16
ENDBRANCH  14  15
ENDBRANCH  11  14
ENDBRANCH   1  11
BRANCH   5  23
ATOM     23  O   UNL d   1      58.408  -9.802  29.862  0.00  0.00    -0.305 OA
BRANCH  23  24
ATOM     24  C   UNL d   1      57.727  -9.386  29.678  0.00  0.00     0.123 C 
ATOM     25  C   UNL d   1      57.430  -9.412  28.909  0.00  0.00     0.029 C 
ENDBRANCH  23  24
ENDBRANCH   5  23
TORSDOF 8
ENDMDL
