MODEL 1
REMARK VINA RESULT:      -6.2      0.000      0.000
REMARK  3 active torsions:
REMARK  status: ('A' for Active; 'I' for Inactive)
REMARK    1  A    between atoms: C_6  and  N_1 
REMARK    2  A    between atoms: C_7  and  C_6 
REMARK    3  A    between atoms: C_8  and  C_7 
ROOT
ATOM      1  N   UNL d   1     -48.303  13.944  22.567  0.00  0.00    -0.211 N 
ATOM      2  N   UNL d   1     -49.475  14.354  22.068  0.00  0.00    -0.206 NA
ATOM      3  C   UNL d   1     -48.877  13.786  21.999  0.00  0.00     0.166 A 
ATOM      4  N   UNL d   1     -48.546  14.618  22.996  0.00  0.00    -0.144 NA
ATOM      5  C   UNL d   1     -49.275  14.873  22.685  0.00  0.00     0.184 A 
ATOM      6  C   UNL d   1     -48.868  13.171  21.451  0.00  0.00     0.042 C 
ATOM      7  C   UNL d   1     -49.711  15.520  22.945  0.00  0.00     0.044 C 
ENDROOT
BRANCH   1   8
ATOM      8  C   UNL d   1     -47.604  13.516  22.699  0.00  0.00     0.091 C 
ATOM      9  C   UNL d   1     -47.653  12.706  22.860  0.00  0.00     0.021 C 
BRANCH   8  10
ATOM     10  C   UNL d   1     -46.872  13.890  22.671  0.00  0.00     0.089 C 
BRANCH  10  11
ATOM     11  C   UNL d   1     -46.192  13.488  22.908  0.00  0.00     0.213 C 
ATOM     12  O   UNL d   1     -46.097  13.264  23.695  0.00  0.00    -0.644 OA
ATOM     13  O   UNL d   1     -45.604  13.310  22.354  0.00  0.00    -0.644 OA
ENDBRANCH  10  11
ENDBRANCH   8  10
ENDBRANCH   1   8
TORSDOF 3
ENDMDL
MODEL 2
REMARK VINA RESULT:      -6.1      2.534      3.209
REMARK  3 active torsions:
REMARK  status: ('A' for Active; 'I' for Inactive)
REMARK    1  A    between atoms: C_6  and  N_1 
REMARK    2  A    between atoms: C_7  and  C_6 
REMARK    3  A    between atoms: C_8  and  C_7 
ROOT
ATOM      1  N   UNL d   1     -47.682  12.457  23.130  0.00  0.00    -0.211 N 
ATOM      2  N   UNL d   1     -46.403  12.778  23.356  0.00  0.00    -0.206 NA
ATOM      3  C   UNL d   1     -46.963  12.172  23.411  0.00  0.00     0.166 A 
ATOM      4  N   UNL d   1     -47.569  13.252  22.898  0.00  0.00    -0.144 NA
ATOM      5  C   UNL d   1     -46.773  13.450  23.039  0.00  0.00     0.184 A 
ATOM      6  C   UNL d   1     -46.816  11.414  23.698  0.00  0.00     0.042 C 
ATOM      7  C   UNL d   1     -46.424  14.180  22.890  0.00  0.00     0.044 C 
ENDROOT
BRANCH   1   8
ATOM      8  C   UNL d   1     -48.398  12.040  23.082  0.00  0.00     0.091 C 
ATOM      9  C   UNL d   1     -48.549  11.578  22.413  0.00  0.00     0.021 C 
BRANCH   8  10
ATOM     10  C   UNL d   1     -48.951  12.084  23.689  0.00  0.00     0.089 C 
BRANCH  10  11
ATOM     11  C   UNL d   1     -49.727  11.833  23.563  0.00  0.00     0.213 C 
ATOM     12  O   UNL d   1     -49.934  11.048  23.696  0.00  0.00    -0.644 OA
ATOM     13  O   UNL d   1     -50.297  12.373  23.302  0.00  0.00    -0.644 OA
ENDBRANCH  10  11
ENDBRANCH   8  10
ENDBRANCH   1   8
TORSDOF 3
ENDMDL
MODEL 3
REMARK VINA RESULT:      -6.0      1.273      1.681
REMARK  3 active torsions:
REMARK  status: ('A' for Active; 'I' for Inactive)
REMARK    1  A    between atoms: C_6  and  N_1 
REMARK    2  A    between atoms: C_7  and  C_6 
REMARK    3  A    between atoms: C_8  and  C_7 
ROOT
ATOM      1  N   UNL d   1     -48.324  12.852  22.722  0.00  0.00    -0.211 N 
ATOM      2  N   UNL d   1     -49.487  12.290  22.372  0.00  0.00    -0.206 NA
ATOM      3  C   UNL d   1     -48.829  12.704  22.089  0.00  0.00     0.166 A 
ATOM      4  N   UNL d   1     -48.671  12.526  23.408  0.00  0.00    -0.144 NA
ATOM      5  C   UNL d   1     -49.395  12.177  23.189  0.00  0.00     0.184 A 
ATOM      6  C   UNL d   1     -48.709  12.926  21.305  0.00  0.00     0.042 C 
ATOM      7  C   UNL d   1     -49.918  11.792  23.695  0.00  0.00     0.044 C 
ENDROOT
BRANCH   1   8
ATOM      8  C   UNL d   1     -47.597  13.252  22.695  0.00  0.00     0.091 C 
ATOM      9  C   UNL d   1     -47.594  14.071  22.583  0.00  0.00     0.021 C 
BRANCH   8  10
ATOM     10  C   UNL d   1     -46.890  12.841  22.779  0.00  0.00     0.089 C 
BRANCH  10  11
ATOM     11  C   UNL d   1     -46.192  13.247  22.951  0.00  0.00     0.213 C 
ATOM     12  O   UNL d   1     -46.080  13.576  23.698  0.00  0.00    -0.644 OA
ATOM     13  O   UNL d   1     -45.606  13.324  22.373  0.00  0.00    -0.644 OA
ENDBRANCH  10  11
ENDBRANCH   8  10
ENDBRANCH   1   8
TORSDOF 3
ENDMDL
MODEL 4
REMARK VINA RESULT:      -5.9      2.070      3.234
REMARK  3 active torsions:
REMARK  status: ('A' for Active; 'I' for Inactive)
REMARK    1  A    between atoms: C_6  and  N_1 
REMARK    2  A    between atoms: C_7  and  C_6 
REMARK    3  A    between atoms: C_8  and  C_7 
ROOT
ATOM      1  N   UNL d   1     -47.421  12.867  22.865  0.00  0.00    -0.211 N 
ATOM      2  N   UNL d   1     -46.197  12.756  23.393  0.00  0.00    -0.206 NA
ATOM      3  C   UNL d   1     -46.739  13.284  23.058  0.00  0.00     0.166 A 
ATOM      4  N   UNL d   1     -47.304  12.069  23.082  0.00  0.00    -0.144 NA
ATOM      5  C   UNL d   1     -46.542  12.001  23.410  0.00  0.00     0.184 A 
ATOM      6  C   UNL d   1     -46.608  14.089  22.941  0.00  0.00     0.042 C 
ATOM      7  C   UNL d   1     -46.200  11.310  23.698  0.00  0.00     0.044 C 
ENDROOT
BRANCH   1   8
ATOM      8  C   UNL d   1     -48.110  13.173  22.516  0.00  0.00     0.091 C 
ATOM      9  C   UNL d   1     -48.573  13.708  22.944  0.00  0.00     0.021 C 
BRANCH   8  10
ATOM     10  C   UNL d   1     -48.329  12.950  21.756  0.00  0.00     0.089 C 
BRANCH  10  11
ATOM     11  C   UNL d   1     -49.104  13.068  21.496  0.00  0.00     0.213 C 
ATOM     12  O   UNL d   1     -49.680  12.499  21.643  0.00  0.00    -0.644 OA
ATOM     13  O   UNL d   1     -49.300  13.760  21.087  0.00  0.00    -0.644 OA
ENDBRANCH  10  11
ENDBRANCH   8  10
ENDBRANCH   1   8
TORSDOF 3
ENDMDL
MODEL 5
REMARK VINA RESULT:      -5.8      1.983      2.959
REMARK  3 active torsions:
REMARK  status: ('A' for Active; 'I' for Inactive)
REMARK    1  A    between atoms: C_6  and  N_1 
REMARK    2  A    between atoms: C_7  and  C_6 
REMARK    3  A    between atoms: C_8  and  C_7 
ROOT
ATOM      1  N   UNL d   1     -48.263  13.966  22.647  0.00  0.00    -0.211 N 
ATOM      2  N   UNL d   1     -47.326  13.171  22.118  0.00  0.00    -0.206 NA
ATOM      3  C   UNL d   1     -48.131  13.363  22.103  0.00  0.00     0.166 A 
ATOM      4  N   UNL d   1     -47.532  14.153  23.005  0.00  0.00    -0.144 NA
ATOM      5  C   UNL d   1     -46.950  13.658  22.675  0.00  0.00     0.184 A 
ATOM      6  C   UNL d   1     -48.695  13.004  21.622  0.00  0.00     0.042 C 
ATOM      7  C   UNL d   1     -46.150  13.656  22.870  0.00  0.00     0.044 C 
ENDROOT
BRANCH   1   8
ATOM      8  C   UNL d   1     -48.989  14.331  22.817  0.00  0.00     0.091 C 
ATOM      9  C   UNL d   1     -49.590  13.885  23.170  0.00  0.00     0.021 C 
BRANCH   8  10
ATOM     10  C   UNL d   1     -49.111  15.124  22.639  0.00  0.00     0.089 C 
BRANCH  10  11
ATOM     11  C   UNL d   1     -49.775  15.518  22.932  0.00  0.00     0.213 C 
ATOM     12  O   UNL d   1     -50.446  15.600  22.463  0.00  0.00    -0.644 OA
ATOM     13  O   UNL d   1     -49.764  15.831  23.698  0.00  0.00    -0.644 OA
ENDBRANCH  10  11
ENDBRANCH   8  10
ENDBRANCH   1   8
TORSDOF 3
ENDMDL
MODEL 6
REMARK VINA RESULT:      -5.8      2.075      2.888
REMARK  3 active torsions:
REMARK  status: ('A' for Active; 'I' for Inactive)
REMARK    1  A    between atoms: C_6  and  N_1 
REMARK    2  A    between atoms: C_7  and  C_6 
REMARK    3  A    between atoms: C_8  and  C_7 
ROOT
ATOM      1  N   UNL d   1     -48.447  13.313  22.801  0.00  0.00    -0.211 N 
ATOM      2  N   UNL d   1     -47.713  14.432  22.779  0.00  0.00    -0.206 NA
ATOM      3  C   UNL d   1     -48.481  14.131  22.716  0.00  0.00     0.166 A 
ATOM      4  N   UNL d   1     -47.648  13.101  22.919  0.00  0.00    -0.144 NA
ATOM      5  C   UNL d   1     -47.192  13.798  22.905  0.00  0.00     0.184 A 
ATOM      6  C   UNL d   1     -49.159  14.582  22.590  0.00  0.00     0.042 C 
ATOM      7  C   UNL d   1     -46.376  13.843  22.998  0.00  0.00     0.044 C 
ENDROOT
BRANCH   1   8
ATOM      8  C   UNL d   1     -49.086  12.783  22.777  0.00  0.00     0.091 C 
ATOM      9  C   UNL d   1     -49.384  12.547  22.042  0.00  0.00     0.021 C 
BRANCH   8  10
ATOM     10  C   UNL d   1     -49.419  12.496  23.472  0.00  0.00     0.089 C 
BRANCH  10  11
ATOM     11  C   UNL d   1     -49.895  11.822  23.456  0.00  0.00     0.213 C 
ATOM     12  O   UNL d   1     -50.708  11.894  23.346  0.00  0.00    -0.644 OA
ATOM     13  O   UNL d   1     -49.555  11.075  23.551  0.00  0.00    -0.644 OA
ENDBRANCH  10  11
ENDBRANCH   8  10
ENDBRANCH   1   8
TORSDOF 3
ENDMDL
