MODEL 1
REMARK VINA RESULT:      -7.1      0.000      0.000
REMARK  9 active torsions:
REMARK  status: ('A' for Active; 'I' for Inactive)
REMARK    1  A    between atoms: C_17  and  N_4 
REMARK    2  A    between atoms: S_16  and  C_7 
REMARK    3  A    between atoms: S_15  and  C_8 
REMARK    4  A    between atoms: C_10  and  C_19 
REMARK    5  A    between atoms: C_22  and  S_15 
REMARK    6  A    between atoms: C_19  and  S_16 
REMARK    7  A    between atoms: C_20  and  C_22 
REMARK    8  A    between atoms: O_24  and  C_20 
REMARK    9  A    between atoms: C_28  and  O_24 
ROOT
ATOM      1  N   UNL d   1      48.413  35.221  52.193  0.00  0.00    -0.269 N 
ATOM      2  C   UNL d   1      47.857  35.219  51.598  0.00  0.00     0.201 A 
ATOM      3  C   UNL d   1      49.107  34.817  51.952  0.00  0.00     0.177 A 
ATOM      4  N   UNL d   1      48.183  34.814  50.964  0.00  0.00    -0.121 NA
ATOM      5  N   UNL d   1      48.950  34.563  51.170  0.00  0.00    -0.127 NA
ENDROOT
BRANCH   3   6
ATOM      6  C   UNL d   1      49.758  34.733  52.439  0.00  0.00     0.078 C 
BRANCH   6   7
ATOM      7  S   UNL d   1      50.447  34.398  52.144  0.00  0.00    -0.045 SA
BRANCH   7   8
ATOM      8  C   UNL d   1      51.099  34.276  52.644  0.00  0.00     0.198 A 
ATOM      9  N   UNL d   1      51.441  34.915  53.112  0.00  0.00    -0.183 NA
ATOM     10  C   UNL d   1      52.089  34.789  53.608  0.00  0.00     0.283 A 
ATOM     11  C   UNL d   1      52.425  34.018  53.660  0.00  0.00     0.082 A 
ATOM     12  O   UNL d   1      52.411  35.410  54.055  0.00  0.00    -0.265 OA
ATOM     13  C   UNL d   1      52.095  33.393  53.206  0.00  0.00     0.117 A 
ATOM     14  C   UNL d   1      53.065  33.725  54.101  0.00  0.00     0.013 A 
ATOM     15  N   UNL d   1      51.444  33.519  52.707  0.00  0.00    -0.214 NA
ATOM     16  S   UNL d   1      52.549  32.717  53.382  0.00  0.00    -0.068 SA
ATOM     17  C   UNL d   1      53.146  32.929  53.935  0.00  0.00     0.031 A 
ATOM     18  C   UNL d   1      53.727  32.451  54.274  0.00  0.00     0.006 A 
ATOM     19  C   UNL d   1      54.262  32.808  54.818  0.00  0.00     0.001 A 
ATOM     20  C   UNL d   1      54.181  33.622  54.989  0.00  0.00     0.000 A 
ATOM     21  C   UNL d   1      53.582  34.080  54.630  0.00  0.00     0.001 A 
ENDBRANCH   7   8
ENDBRANCH   6   7
ENDBRANCH   3   6
BRANCH   1  22
ATOM     22  C   UNL d   1      48.292  35.580  52.935  0.00  0.00     0.067 A 
ATOM     23  C   UNL d   1      47.934  35.154  53.548  0.00  0.00     0.018 A 
ATOM     24  C   UNL d   1      47.814  35.503  54.276  0.00  0.00     0.002 A 
ATOM     25  C   UNL d   1      48.047  36.280  54.409  0.00  0.00     0.000 A 
ATOM     26  C   UNL d   1      48.399  36.708  53.819  0.00  0.00     0.002 A 
ATOM     27  C   UNL d   1      48.523  36.358  53.077  0.00  0.00     0.018 A 
ENDBRANCH   1  22
BRANCH   2  28
ATOM     28  S   UNL d   1      47.101  35.557  51.615  0.00  0.00    -0.042 SA
BRANCH  28  29
ATOM     29  C   UNL d   1      46.574  35.399  51.029  0.00  0.00     0.107 C 
BRANCH  29  30
ATOM     30  C   UNL d   1      45.777  35.577  51.123  0.00  0.00     0.307 C 
ATOM     31  O   UNL d   1      45.510  36.342  50.964  0.00  0.00    -0.258 OA
BRANCH  30  32
ATOM     32  O   UNL d   1      45.235  35.018  51.371  0.00  0.00    -0.271 OA
BRANCH  32  33
ATOM     33  C   UNL d   1      44.557  35.210  51.777  0.00  0.00     0.126 C 
ATOM     34  C   UNL d   1      44.314  34.828  52.429  0.00  0.00     0.029 C 
ENDBRANCH  32  33
ENDBRANCH  30  32
ENDBRANCH  29  30
ENDBRANCH  28  29
ENDBRANCH   2  28
TORSDOF 9
ENDMDL
MODEL 2
REMARK VINA RESULT:      -6.9      1.729      6.354
REMARK  9 active torsions:
REMARK  status: ('A' for Active; 'I' for Inactive)
REMARK    1  A    between atoms: C_17  and  N_4 
REMARK    2  A    between atoms: S_16  and  C_7 
REMARK    3  A    between atoms: S_15  and  C_8 
REMARK    4  A    between atoms: C_10  and  C_19 
REMARK    5  A    between atoms: C_22  and  S_15 
REMARK    6  A    between atoms: C_19  and  S_16 
REMARK    7  A    between atoms: C_20  and  C_22 
REMARK    8  A    between atoms: O_24  and  C_20 
REMARK    9  A    between atoms: C_28  and  O_24 
ROOT
ATOM      1  N   UNL d   1      51.860  33.553  53.153  0.00  0.00    -0.269 N 
ATOM      2  C   UNL d   1      52.137  32.789  53.111  0.00  0.00     0.201 A 
ATOM      3  C   UNL d   1      51.098  33.613  52.808  0.00  0.00     0.177 A 
ATOM      4  N   UNL d   1      51.558  32.343  52.737  0.00  0.00    -0.121 NA
ATOM      5  N   UNL d   1      50.917  32.838  52.547  0.00  0.00    -0.127 NA
ENDROOT
BRANCH   3   6
ATOM      6  C   UNL d   1      50.686  34.317  52.772  0.00  0.00     0.078 C 
BRANCH   6   7
ATOM      7  S   UNL d   1      50.163  34.453  52.154  0.00  0.00    -0.045 SA
BRANCH   7   8
ATOM      8  C   UNL d   1      49.447  34.852  52.293  0.00  0.00     0.198 A 
ATOM      9  N   UNL d   1      49.313  35.311  53.010  0.00  0.00    -0.183 NA
ATOM     10  C   UNL d   1      48.600  35.706  53.144  0.00  0.00     0.283 A 
ATOM     11  C   UNL d   1      47.988  35.659  52.566  0.00  0.00     0.082 A 
ATOM     12  O   UNL d   1      48.479  36.146  53.837  0.00  0.00    -0.265 OA
ATOM     13  C   UNL d   1      48.115  35.213  51.866  0.00  0.00     0.117 A 
ATOM     14  C   UNL d   1      47.226  35.989  52.543  0.00  0.00     0.013 A 
ATOM     15  N   UNL d   1      48.832  34.816  51.731  0.00  0.00    -0.214 NA
ATOM     16  S   UNL d   1      47.415  35.280  51.421  0.00  0.00    -0.068 SA
ATOM     17  C   UNL d   1      46.870  35.761  51.845  0.00  0.00     0.031 A 
ATOM     18  C   UNL d   1      46.105  35.985  51.630  0.00  0.00     0.006 A 
ATOM     19  C   UNL d   1      45.674  36.475  52.164  0.00  0.00     0.001 A 
ATOM     20  C   UNL d   1      46.038  36.709  52.878  0.00  0.00     0.000 A 
ATOM     21  C   UNL d   1      46.813  36.466  53.068  0.00  0.00     0.001 A 
ENDBRANCH   7   8
ENDBRANCH   6   7
ENDBRANCH   3   6
BRANCH   1  22
ATOM     22  C   UNL d   1      52.288  34.180  53.497  0.00  0.00     0.067 A 
ATOM     23  C   UNL d   1      52.800  34.635  53.032  0.00  0.00     0.018 A 
ATOM     24  C   UNL d   1      53.221  35.250  53.366  0.00  0.00     0.002 A 
ATOM     25  C   UNL d   1      53.143  35.423  54.165  0.00  0.00     0.000 A 
ATOM     26  C   UNL d   1      52.646  34.985  54.632  0.00  0.00     0.002 A 
ATOM     27  C   UNL d   1      52.215  34.360  54.298  0.00  0.00     0.018 A 
ENDBRANCH   1  22
BRANCH   2  28
ATOM     28  S   UNL d   1      52.862  32.500  53.388  0.00  0.00    -0.042 SA
BRANCH  28  29
ATOM     29  C   UNL d   1      53.045  31.722  53.308  0.00  0.00     0.107 C 
BRANCH  29  30
ATOM     30  C   UNL d   1      53.704  31.405  53.683  0.00  0.00     0.307 C 
ATOM     31  O   UNL d   1      54.429  31.797  53.630  0.00  0.00    -0.258 OA
BRANCH  30  32
ATOM     32  O   UNL d   1      53.668  30.710  54.110  0.00  0.00    -0.271 OA
BRANCH  32  33
ATOM     33  C   UNL d   1      53.659  29.976  53.760  0.00  0.00     0.126 C 
ATOM     34  C   UNL d   1      53.345  29.332  54.101  0.00  0.00     0.029 C 
ENDBRANCH  32  33
ENDBRANCH  30  32
ENDBRANCH  29  30
ENDBRANCH  28  29
ENDBRANCH   2  28
TORSDOF 9
ENDMDL
MODEL 3
REMARK VINA RESULT:      -6.3      2.088      6.489
REMARK  9 active torsions:
REMARK  status: ('A' for Active; 'I' for Inactive)
REMARK    1  A    between atoms: C_17  and  N_4 
REMARK    2  A    between atoms: S_16  and  C_7 
REMARK    3  A    between atoms: S_15  and  C_8 
REMARK    4  A    between atoms: C_10  and  C_19 
REMARK    5  A    between atoms: C_22  and  S_15 
REMARK    6  A    between atoms: C_19  and  S_16 
REMARK    7  A    between atoms: C_20  and  C_22 
REMARK    8  A    between atoms: O_24  and  C_20 
REMARK    9  A    between atoms: C_28  and  O_24 
ROOT
ATOM      1  N   UNL d   1      52.580  32.617  53.204  0.00  0.00    -0.269 N 
ATOM      2  C   UNL d   1      52.677  31.822  53.053  0.00  0.00     0.201 A 
ATOM      3  C   UNL d   1      51.933  32.924  52.768  0.00  0.00     0.177 A 
ATOM      4  N   UNL d   1      52.095  31.605  52.518  0.00  0.00    -0.121 NA
ATOM      5  N   UNL d   1      51.632  32.273  52.337  0.00  0.00    -0.127 NA
ENDROOT
BRANCH   3   6
ATOM      6  C   UNL d   1      51.707  33.708  52.812  0.00  0.00     0.078 C 
BRANCH   6   7
ATOM      7  S   UNL d   1      51.305  34.053  52.184  0.00  0.00    -0.045 SA
BRANCH   7   8
ATOM      8  C   UNL d   1      50.579  34.436  52.313  0.00  0.00     0.198 A 
ATOM      9  N   UNL d   1      50.414  34.865  53.043  0.00  0.00    -0.183 NA
ATOM     10  C   UNL d   1      49.691  35.245  53.166  0.00  0.00     0.283 A 
ATOM     11  C   UNL d   1      49.100  35.213  52.566  0.00  0.00     0.082 A 
ATOM     12  O   UNL d   1      49.540  35.656  53.872  0.00  0.00    -0.265 OA
ATOM     13  C   UNL d   1      49.258  34.796  51.854  0.00  0.00     0.117 A 
ATOM     14  C   UNL d   1      48.334  35.534  52.529  0.00  0.00     0.013 A 
ATOM     15  N   UNL d   1      49.985  34.415  51.729  0.00  0.00    -0.214 NA
ATOM     16  S   UNL d   1      48.572  34.871  51.387  0.00  0.00    -0.068 SA
ATOM     17  C   UNL d   1      48.006  35.328  51.811  0.00  0.00     0.031 A 
ATOM     18  C   UNL d   1      47.247  35.550  51.578  0.00  0.00     0.006 A 
ATOM     19  C   UNL d   1      46.790  36.013  52.114  0.00  0.00     0.001 A 
ATOM     20  C   UNL d   1      47.125  36.224  52.850  0.00  0.00     0.000 A 
ATOM     21  C   UNL d   1      47.897  35.984  53.057  0.00  0.00     0.001 A 
ENDBRANCH   7   8
ENDBRANCH   6   7
ENDBRANCH   3   6
BRANCH   1  22
ATOM     22  C   UNL d   1      53.067  33.050  53.723  0.00  0.00     0.067 A 
ATOM     23  C   UNL d   1      53.784  33.363  53.453  0.00  0.00     0.018 A 
ATOM     24  C   UNL d   1      54.263  33.789  53.959  0.00  0.00     0.002 A 
ATOM     25  C   UNL d   1      54.040  33.910  54.741  0.00  0.00     0.000 A 
ATOM     26  C   UNL d   1      53.341  33.608  55.018  0.00  0.00     0.002 A 
ATOM     27  C   UNL d   1      52.850  33.176  54.508  0.00  0.00     0.018 A 
ENDBRANCH   1  22
BRANCH   2  28
ATOM     28  S   UNL d   1      53.251  31.316  53.371  0.00  0.00    -0.042 SA
BRANCH  28  29
ATOM     29  C   UNL d   1      53.181  30.521  53.284  0.00  0.00     0.107 C 
BRANCH  29  30
ATOM     30  C   UNL d   1      53.635  30.008  53.738  0.00  0.00     0.307 C 
ATOM     31  O   UNL d   1      54.445  29.940  53.589  0.00  0.00    -0.258 OA
BRANCH  30  32
ATOM     32  O   UNL d   1      53.311  29.558  54.338  0.00  0.00    -0.271 OA
BRANCH  32  33
ATOM     33  C   UNL d   1      53.592  28.822  54.540  0.00  0.00     0.126 C 
ATOM     34  C   UNL d   1      53.392  28.446  55.209  0.00  0.00     0.029 C 
ENDBRANCH  32  33
ENDBRANCH  30  32
ENDBRANCH  29  30
ENDBRANCH  28  29
ENDBRANCH   2  28
TORSDOF 9
ENDMDL
MODEL 4
REMARK VINA RESULT:      -5.1     10.644     11.779
REMARK  9 active torsions:
REMARK  status: ('A' for Active; 'I' for Inactive)
REMARK    1  A    between atoms: C_17  and  N_4 
REMARK    2  A    between atoms: S_16  and  C_7 
REMARK    3  A    between atoms: S_15  and  C_8 
REMARK    4  A    between atoms: C_10  and  C_19 
REMARK    5  A    between atoms: C_22  and  S_15 
REMARK    6  A    between atoms: C_19  and  S_16 
REMARK    7  A    between atoms: C_20  and  C_22 
REMARK    8  A    between atoms: O_24  and  C_20 
REMARK    9  A    between atoms: C_28  and  O_24 
ROOT
ATOM      1  N   UNL d   1      44.714  26.262  57.847  0.00  0.00    -0.269 N 
ATOM      2  C   UNL d   1      44.647  25.522  57.515  0.00  0.00     0.201 A 
ATOM      3  C   UNL d   1      44.545  26.236  58.668  0.00  0.00     0.177 A 
ATOM      4  N   UNL d   1      44.434  25.006  58.116  0.00  0.00    -0.121 NA
ATOM      5  N   UNL d   1      44.368  25.434  58.828  0.00  0.00    -0.127 NA
ENDROOT
BRANCH   3   6
ATOM      6  C   UNL d   1      44.569  26.901  59.143  0.00  0.00     0.078 C 
BRANCH   6   7
ATOM      7  S   UNL d   1      44.393  26.837  59.943  0.00  0.00    -0.045 SA
BRANCH   7   8
ATOM      8  C   UNL d   1      44.395  27.514  60.425  0.00  0.00     0.198 A 
ATOM      9  N   UNL d   1      44.429  27.460  61.285  0.00  0.00    -0.183 NA
ATOM     10  C   UNL d   1      44.430  28.135  61.761  0.00  0.00     0.283 A 
ATOM     11  C   UNL d   1      44.397  28.896  61.398  0.00  0.00     0.082 A 
ATOM     12  O   UNL d   1      44.464  28.075  62.588  0.00  0.00    -0.265 OA
ATOM     13  C   UNL d   1      44.364  28.951  60.560  0.00  0.00     0.117 A 
ATOM     14  C   UNL d   1      44.391  29.661  61.722  0.00  0.00     0.013 A 
ATOM     15  N   UNL d   1      44.362  28.273  60.082  0.00  0.00    -0.214 NA
ATOM     16  S   UNL d   1      44.337  29.765  60.385  0.00  0.00    -0.068 SA
ATOM     17  C   UNL d   1      44.354  30.197  61.107  0.00  0.00     0.031 A 
ATOM     18  C   UNL d   1      44.337  31.015  61.218  0.00  0.00     0.006 A 
ATOM     19  C   UNL d   1      44.360  31.305  62.009  0.00  0.00     0.001 A 
ATOM     20  C   UNL d   1      44.398  30.757  62.639  0.00  0.00     0.000 A 
ATOM     21  C   UNL d   1      44.414  29.935  62.495  0.00  0.00     0.001 A 
ENDBRANCH   7   8
ENDBRANCH   6   7
ENDBRANCH   3   6
BRANCH   1  22
ATOM     22  C   UNL d   1      44.923  26.944  57.415  0.00  0.00     0.067 A 
ATOM     23  C   UNL d   1      45.720  27.148  57.325  0.00  0.00     0.018 A 
ATOM     24  C   UNL d   1      45.929  27.814  56.902  0.00  0.00     0.002 A 
ATOM     25  C   UNL d   1      45.351  28.290  56.562  0.00  0.00     0.000 A 
ATOM     26  C   UNL d   1      44.567  28.102  56.642  0.00  0.00     0.002 A 
ATOM     27  C   UNL d   1      44.350  27.425  57.071  0.00  0.00     0.018 A 
ENDBRANCH   1  22
BRANCH   2  28
ATOM     28  S   UNL d   1      44.767  25.313  56.723  0.00  0.00    -0.042 SA
BRANCH  28  29
ATOM     29  C   UNL d   1      44.609  24.566  56.473  0.00  0.00     0.107 C 
BRANCH  29  30
ATOM     30  C   UNL d   1      44.757  24.344  55.696  0.00  0.00     0.307 C 
ATOM     31  O   UNL d   1      44.577  24.866  55.082  0.00  0.00    -0.258 OA
BRANCH  30  32
ATOM     32  O   UNL d   1      45.079  23.617  55.506  0.00  0.00    -0.271 OA
BRANCH  32  33
ATOM     33  C   UNL d   1      45.391  23.449  54.775  0.00  0.00     0.126 C 
ATOM     34  C   UNL d   1      45.294  22.752  54.407  0.00  0.00     0.029 C 
ENDBRANCH  32  33
ENDBRANCH  30  32
ENDBRANCH  29  30
ENDBRANCH  28  29
ENDBRANCH   2  28
TORSDOF 9
ENDMDL
MODEL 5
REMARK VINA RESULT:      -4.4     10.960     12.137
REMARK  9 active torsions:
REMARK  status: ('A' for Active; 'I' for Inactive)
REMARK    1  A    between atoms: C_17  and  N_4 
REMARK    2  A    between atoms: S_16  and  C_7 
REMARK    3  A    between atoms: S_15  and  C_8 
REMARK    4  A    between atoms: C_10  and  C_19 
REMARK    5  A    between atoms: C_22  and  S_15 
REMARK    6  A    between atoms: C_19  and  S_16 
REMARK    7  A    between atoms: C_20  and  C_22 
REMARK    8  A    between atoms: O_24  and  C_20 
REMARK    9  A    between atoms: C_28  and  O_24 
ROOT
ATOM      1  N   UNL d   1      44.660  26.623  58.915  0.00  0.00    -0.269 N 
ATOM      2  C   UNL d   1      44.571  25.832  58.745  0.00  0.00     0.201 A 
ATOM      3  C   UNL d   1      44.506  26.772  59.726  0.00  0.00     0.177 A 
ATOM      4  N   UNL d   1      44.358  25.458  59.444  0.00  0.00    -0.121 NA
ATOM      5  N   UNL d   1      44.315  26.025  60.052  0.00  0.00    -0.127 NA
ENDROOT
BRANCH   3   6
ATOM      6  C   UNL d   1      44.554  27.520  60.052  0.00  0.00     0.078 C 
BRANCH   6   7
ATOM      7  S   UNL d   1      44.370  27.632  60.845  0.00  0.00    -0.045 SA
BRANCH   7   8
ATOM      8  C   UNL d   1      44.375  28.396  61.170  0.00  0.00     0.198 A 
ATOM      9  N   UNL d   1      44.415  29.102  60.675  0.00  0.00    -0.183 NA
ATOM     10  C   UNL d   1      44.420  29.860  61.003  0.00  0.00     0.283 A 
ATOM     11  C   UNL d   1      44.384  29.948  61.841  0.00  0.00     0.082 A 
ATOM     12  O   UNL d   1      44.459  30.534  60.520  0.00  0.00    -0.265 OA
ATOM     13  C   UNL d   1      44.344  29.262  62.326  0.00  0.00     0.117 A 
ATOM     14  C   UNL d   1      44.379  30.623  62.324  0.00  0.00     0.013 A 
ATOM     15  N   UNL d   1      44.339  28.500  61.996  0.00  0.00    -0.214 NA
ATOM     16  S   UNL d   1      44.315  29.538  63.111  0.00  0.00    -0.068 SA
ATOM     17  C   UNL d   1      44.337  30.379  63.103  0.00  0.00     0.031 A 
ATOM     18  C   UNL d   1      44.321  30.901  63.741  0.00  0.00     0.006 A 
ATOM     19  C   UNL d   1      44.349  31.727  63.577  0.00  0.00     0.001 A 
ATOM     20  C   UNL d   1      44.392  31.977  62.781  0.00  0.00     0.000 A 
ATOM     21  C   UNL d   1      44.407  31.425  62.155  0.00  0.00     0.001 A 
ENDBRANCH   7   8
ENDBRANCH   6   7
ENDBRANCH   3   6
BRANCH   1  22
ATOM     22  C   UNL d   1      44.876  27.194  58.348  0.00  0.00     0.067 A 
ATOM     23  C   UNL d   1      45.664  27.442  58.290  0.00  0.00     0.018 A 
ATOM     24  C   UNL d   1      45.879  28.001  57.735  0.00  0.00     0.002 A 
ATOM     25  C   UNL d   1      45.317  28.324  57.230  0.00  0.00     0.000 A 
ATOM     26  C   UNL d   1      44.543  28.091  57.276  0.00  0.00     0.002 A 
ATOM     27  C   UNL d   1      44.319  27.523  57.838  0.00  0.00     0.018 A 
ENDBRANCH   1  22
BRANCH   2  28
ATOM     28  S   UNL d   1      44.673  25.460  58.013  0.00  0.00    -0.042 SA
BRANCH  28  29
ATOM     29  C   UNL d   1      44.612  24.661  57.952  0.00  0.00     0.107 C 
BRANCH  29  30
ATOM     30  C   UNL d   1      44.977  24.257  57.337  0.00  0.00     0.307 C 
ATOM     31  O   UNL d   1      45.111  24.645  56.620  0.00  0.00    -0.258 OA
BRANCH  30  32
ATOM     32  O   UNL d   1      45.216  23.479  57.410  0.00  0.00    -0.271 OA
BRANCH  32  33
ATOM     33  C   UNL d   1      44.954  22.889  56.916  0.00  0.00     0.126 C 
ATOM     34  C   UNL d   1      45.325  22.193  56.831  0.00  0.00     0.029 C 
ENDBRANCH  32  33
ENDBRANCH  30  32
ENDBRANCH  29  30
ENDBRANCH  28  29
ENDBRANCH   2  28
TORSDOF 9
ENDMDL
MODEL 6
REMARK VINA RESULT:      -4.1     10.478     11.605
REMARK  9 active torsions:
REMARK  status: ('A' for Active; 'I' for Inactive)
REMARK    1  A    between atoms: C_17  and  N_4 
REMARK    2  A    between atoms: S_16  and  C_7 
REMARK    3  A    between atoms: S_15  and  C_8 
REMARK    4  A    between atoms: C_10  and  C_19 
REMARK    5  A    between atoms: C_22  and  S_15 
REMARK    6  A    between atoms: C_19  and  S_16 
REMARK    7  A    between atoms: C_20  and  C_22 
REMARK    8  A    between atoms: O_24  and  C_20 
REMARK    9  A    between atoms: C_28  and  O_24 
ROOT
ATOM      1  N   UNL d   1      44.794  27.786  58.430  0.00  0.00    -0.269 N 
ATOM      2  C   UNL d   1      44.745  28.202  59.128  0.00  0.00     0.201 A 
ATOM      3  C   UNL d   1      44.705  26.963  58.568  0.00  0.00     0.177 A 
ATOM      4  N   UNL d   1      44.623  27.655  59.727  0.00  0.00    -0.121 NA
ATOM      5  N   UNL d   1      44.596  26.892  59.395  0.00  0.00    -0.127 NA
ENDROOT
BRANCH   3   6
ATOM      6  C   UNL d   1      44.730  26.412  57.966  0.00  0.00     0.078 C 
BRANCH   6   7
ATOM      7  S   UNL d   1      44.679  25.611  58.144  0.00  0.00    -0.045 SA
BRANCH   7   8
ATOM      8  C   UNL d   1      44.623  25.051  57.532  0.00  0.00     0.198 A 
ATOM      9  N   UNL d   1      44.519  24.210  57.693  0.00  0.00    -0.183 NA
ATOM     10  C   UNL d   1      44.463  23.657  57.082  0.00  0.00     0.283 A 
ATOM     11  C   UNL d   1      44.510  23.919  56.282  0.00  0.00     0.082 A 
ATOM     12  O   UNL d   1      44.363  22.849  57.245  0.00  0.00    -0.265 OA
ATOM     13  C   UNL d   1      44.612  24.738  56.123  0.00  0.00     0.117 A 
ATOM     14  C   UNL d   1      44.474  23.504  55.563  0.00  0.00     0.013 A 
ATOM     15  N   UNL d   1      44.667  25.294  56.737  0.00  0.00    -0.214 NA
ATOM     16  S   UNL d   1      44.636  24.808  55.293  0.00  0.00    -0.068 SA
ATOM     17  C   UNL d   1      44.550  24.043  54.954  0.00  0.00     0.031 A 
ATOM     18  C   UNL d   1      44.539  23.831  54.157  0.00  0.00     0.006 A 
ATOM     19  C   UNL d   1      44.445  23.015  53.968  0.00  0.00     0.001 A 
ATOM     20  C   UNL d   1      44.366  22.464  54.590  0.00  0.00     0.000 A 
ATOM     21  C   UNL d   1      44.381  22.708  55.388  0.00  0.00     0.001 A 
ENDBRANCH   7   8
ENDBRANCH   6   7
ENDBRANCH   3   6
BRANCH   1  22
ATOM     22  C   UNL d   1      44.918  28.144  57.688  0.00  0.00     0.067 A 
ATOM     23  C   UNL d   1      44.314  28.590  57.339  0.00  0.00     0.018 A 
ATOM     24  C   UNL d   1      44.431  28.943  56.612  0.00  0.00     0.002 A 
ATOM     25  C   UNL d   1      45.148  28.858  56.219  0.00  0.00     0.000 A 
ATOM     26  C   UNL d   1      45.747  28.424  56.549  0.00  0.00     0.002 A 
ATOM     27  C   UNL d   1      45.633  28.064  57.288  0.00  0.00     0.018 A 
ENDBRANCH   1  22
BRANCH   2  28
ATOM     28  S   UNL d   1      44.805  29.022  59.230  0.00  0.00    -0.042 SA
BRANCH  28  29
ATOM     29  C   UNL d   1      44.765  29.342  59.966  0.00  0.00     0.107 C 
BRANCH  29  30
ATOM     30  C   UNL d   1      44.992  30.120  60.098  0.00  0.00     0.307 C 
ATOM     31  O   UNL d   1      45.711  30.391  59.794  0.00  0.00    -0.258 OA
BRANCH  30  32
ATOM     32  O   UNL d   1      44.527  30.642  60.523  0.00  0.00    -0.271 OA
BRANCH  32  33
ATOM     33  C   UNL d   1      44.791  31.026  61.189  0.00  0.00     0.126 C 
ATOM     34  C   UNL d   1      44.314  31.427  61.680  0.00  0.00     0.029 C 
ENDBRANCH  32  33
ENDBRANCH  30  32
ENDBRANCH  29  30
ENDBRANCH  28  29
ENDBRANCH   2  28
TORSDOF 9
ENDMDL
