MODEL 1
REMARK VINA RESULT:      18.5      0.000      0.000
REMARK  3 active torsions:
REMARK  status: ('A' for Active; 'I' for Inactive)
REMARK    1  A    between atoms: N_3  and  S_1 
REMARK    2  A    between atoms: C_9  and  S_1 
REMARK    3  A    between atoms: C_2  and  N_3 
ROOT
ATOM      1  C   UNL d   1      46.195 -17.995  43.588  0.00  0.00     0.157 A 
ATOM      2  C   UNL d   1      46.234 -18.582  44.160  0.00  0.00     0.102 A 
ATOM      3  C   UNL d   1      46.384 -19.360  43.931  0.00  0.00     0.110 A 
ATOM      4  C   UNL d   1      46.496 -19.552  43.131  0.00  0.00     0.207 A 
ATOM      5  C   UNL d   1      46.303 -18.172  42.806  0.00  0.00     0.035 A 
ATOM      6  C   UNL d   1      46.453 -18.950  42.578  0.00  0.00     0.042 A 
ATOM      7 CL   UNL d   1      46.126 -18.409  44.955  0.00  0.00    -0.079 Cl
ATOM      8 CL   UNL d   1      46.427 -19.966  44.498  0.00  0.00    -0.078 Cl
ATOM      9  O   UNL d   1      46.646 -20.330  42.903  0.00  0.00    -0.286 OA
ATOM     10  C   UNL d   1      46.264 -17.585  42.234  0.00  0.00     0.003 A 
ATOM     11  C   UNL d   1      46.564 -19.141  41.778  0.00  0.00     0.003 A 
ATOM     12  C   UNL d   1      46.522 -18.536  41.211  0.00  0.00     0.000 A 
ATOM     13  C   UNL d   1      46.372 -17.758  41.439  0.00  0.00     0.000 A 
ENDROOT
BRANCH   1  14
ATOM     14  N   UNL d   1      46.045 -17.216  43.816  0.00  0.00    -0.316 NA
BRANCH  14  15
ATOM     15  S   UNL d   1      45.895 -16.438  44.044  0.00  0.00     0.327 S 
ATOM     16  O   UNL d   1      45.158 -16.482  43.710  0.00  0.00    -0.186 OA
ATOM     17  O   UNL d   1      46.646 -16.397  44.383  0.00  0.00    -0.186 OA
BRANCH  15  18
ATOM     18  C   UNL d   1      45.746 -15.664  44.271  0.00  0.00     0.116 A 
ATOM     19  C   UNL d   1      46.260 -15.067  44.067  0.00  0.00     0.014 A 
ATOM     20  C   UNL d   1      46.110 -14.289  44.295  0.00  0.00     0.001 A 
ATOM     21  C   UNL d   1      45.434 -14.111  44.734  0.00  0.00     0.000 A 
ATOM     22  C   UNL d   1      44.908 -14.711  44.945  0.00  0.00     0.001 A 
ATOM     23  C   UNL d   1      45.299 -13.323  44.955  0.00  0.00     0.000 C 
ATOM     24  C   UNL d   1      45.060 -15.498  44.714  0.00  0.00     0.014 A 
ENDBRANCH  15  18
ENDBRANCH  14  15
ENDBRANCH   1  14
TORSDOF 3
ENDMDL
MODEL 2
REMARK VINA RESULT:      18.6      1.102      1.757
REMARK  3 active torsions:
REMARK  status: ('A' for Active; 'I' for Inactive)
REMARK    1  A    between atoms: N_3  and  S_1 
REMARK    2  A    between atoms: C_9  and  S_1 
REMARK    3  A    between atoms: C_2  and  N_3 
ROOT
ATOM      1  C   UNL d   1      46.220 -18.064  43.116  0.00  0.00     0.157 A 
ATOM      2  C   UNL d   1      46.220 -18.175  42.303  0.00  0.00     0.102 A 
ATOM      3  C   UNL d   1      46.362 -18.928  41.997  0.00  0.00     0.110 A 
ATOM      4  C   UNL d   1      46.503 -19.569  42.504  0.00  0.00     0.207 A 
ATOM      5  C   UNL d   1      46.356 -18.683  43.617  0.00  0.00     0.035 A 
ATOM      6  C   UNL d   1      46.498 -19.436  43.312  0.00  0.00     0.042 A 
ATOM      7 CL   UNL d   1      46.082 -17.550  41.788  0.00  0.00    -0.079 Cl
ATOM      8 CL   UNL d   1      46.366 -19.056  41.177  0.00  0.00    -0.078 Cl
ATOM      9  O   UNL d   1      46.645 -20.322  42.198  0.00  0.00    -0.286 OA
ATOM     10  C   UNL d   1      46.356 -18.572  44.431  0.00  0.00     0.003 A 
ATOM     11  C   UNL d   1      46.640 -20.078  43.819  0.00  0.00     0.003 A 
ATOM     12  C   UNL d   1      46.636 -19.949  44.639  0.00  0.00     0.000 A 
ATOM     13  C   UNL d   1      46.494 -19.196  44.945  0.00  0.00     0.000 A 
ENDROOT
BRANCH   1  14
ATOM     14  N   UNL d   1      46.078 -17.311  43.422  0.00  0.00    -0.316 NA
BRANCH  14  15
ATOM     15  S   UNL d   1      45.936 -16.558  43.728  0.00  0.00     0.327 S 
ATOM     16  O   UNL d   1      45.268 -16.833  44.096  0.00  0.00    -0.186 OA
ATOM     17  O   UNL d   1      46.616 -16.282  43.351  0.00  0.00    -0.186 OA
BRANCH  15  18
ATOM     18  C   UNL d   1      45.794 -15.809  44.032  0.00  0.00     0.116 A 
ATOM     19  C   UNL d   1      46.241 -15.174  43.789  0.00  0.00     0.014 A 
ATOM     20  C   UNL d   1      46.100 -14.421  44.095  0.00  0.00     0.001 A 
ATOM     21  C   UNL d   1      45.500 -14.309  44.651  0.00  0.00     0.000 A 
ATOM     22  C   UNL d   1      45.043 -14.948  44.902  0.00  0.00     0.001 A 
ATOM     23  C   UNL d   1      45.371 -13.544  44.948  0.00  0.00     0.000 C 
ATOM     24  C   UNL d   1      45.186 -15.709  44.593  0.00  0.00     0.014 A 
ENDBRANCH  15  18
ENDBRANCH  14  15
ENDBRANCH   1  14
TORSDOF 3
ENDMDL
