MODEL 1
REMARK VINA RESULT:      -6.4      0.000      0.000
REMARK  4 active torsions:
REMARK  status: ('A' for Active; 'I' for Inactive)
REMARK    1  A    between atoms: C_3  and  N_1 
REMARK       I    between atoms: C_2  and  N_5 
REMARK       I    between atoms: N_4  and  C_2 
REMARK    2  A    between atoms: C_17  and  N_4 
REMARK    3  A    between atoms: N_5  and  C_16 
REMARK    4  A    between atoms: C_8  and  C_9 
ROOT
ATOM      1  C   UNL d   1     -47.230  13.286  22.946  0.00  0.00     0.369 C 
ATOM      2  N   UNL d   1     -47.951  13.472  23.344  0.00  0.00    -0.191 NA
ATOM      3  N   UNL d   1     -46.561  13.124  23.362  0.00  0.00    -0.191 NA
ATOM      4  O   UNL d   1     -47.246  13.279  22.127  0.00  0.00    -0.242 OA
ENDROOT
BRANCH   3   5
ATOM      5  C   UNL d   1     -45.857  12.942  22.925  0.00  0.00     0.086 A 
ATOM      6  C   UNL d   1     -45.574  12.165  22.895  0.00  0.00     0.021 A 
ATOM      7  C   UNL d   1     -44.890  11.973  22.474  0.00  0.00     0.025 A 
ATOM      8  C   UNL d   1     -44.508  12.587  22.089  0.00  0.00     0.127 A 
ATOM      9  C   UNL d   1     -44.767  13.391  22.097  0.00  0.00     0.025 A 
ATOM     10  C   UNL d   1     -45.455  13.536  22.531  0.00  0.00     0.021 A 
BRANCH   8  11
ATOM     11  N   UNL d   1     -43.781  12.380  21.642  0.00  0.00    -0.114 N 
ATOM     12  O   UNL d   1     -43.169  11.990  22.034  0.00  0.00    -0.532 OA
ATOM     13  O   UNL d   1     -43.716  12.575  20.839  0.00  0.00    -0.532 OA
ENDBRANCH   8  11
ENDBRANCH   3   5
BRANCH   2  14
ATOM     14  C   UNL d   1     -48.643  13.640  22.932  0.00  0.00     0.086 A 
ATOM     15  C   UNL d   1     -49.130  13.024  22.678  0.00  0.00     0.019 A 
ATOM     16  C   UNL d   1     -49.811  13.188  22.272  0.00  0.00     0.005 A 
ATOM     17  C   UNL d   1     -50.043  13.983  22.097  0.00  0.00     0.039 A 
ATOM     18  C   UNL d   1     -49.548  14.582  22.355  0.00  0.00     0.005 A 
ATOM     19  C   UNL d   1     -48.852  14.412  22.771  0.00  0.00     0.019 A 
BRANCH  17  20
ATOM     20  C   UNL d   1     -50.711  14.169  21.697  0.00  0.00     0.196 C 
ATOM     21  O   UNL d   1     -51.062  14.885  21.802  0.00  0.00    -0.287 OA
ATOM     22  C   UNL d   1     -51.050  13.638  21.175  0.00  0.00     0.045 C 
ENDBRANCH  17  20
ENDBRANCH   2  14
TORSDOF 4
ENDMDL
MODEL 2
REMARK VINA RESULT:      -5.9      8.240      9.614
REMARK  4 active torsions:
REMARK  status: ('A' for Active; 'I' for Inactive)
REMARK    1  A    between atoms: C_3  and  N_1 
REMARK       I    between atoms: C_2  and  N_5 
REMARK       I    between atoms: N_4  and  C_2 
REMARK    2  A    between atoms: C_17  and  N_4 
REMARK    3  A    between atoms: N_5  and  C_16 
REMARK    4  A    between atoms: C_8  and  C_9 
ROOT
ATOM      1  C   UNL d   1     -39.790  14.418  19.270  0.00  0.00     0.369 C 
ATOM      2  N   UNL d   1     -40.087  14.090  18.550  0.00  0.00    -0.191 NA
ATOM      3  N   UNL d   1     -40.244  14.428  19.934  0.00  0.00    -0.191 NA
ATOM      4  O   UNL d   1     -39.030  14.721  19.258  0.00  0.00    -0.242 OA
ENDROOT
BRANCH   3   5
ATOM      5  C   UNL d   1     -39.911  14.767  20.636  0.00  0.00     0.086 A 
ATOM      6  C   UNL d   1     -39.478  14.297  21.161  0.00  0.00     0.021 A 
ATOM      7  C   UNL d   1     -39.147  14.613  21.849  0.00  0.00     0.025 A 
ATOM      8  C   UNL d   1     -39.270  15.412  21.985  0.00  0.00     0.127 A 
ATOM      9  C   UNL d   1     -39.706  15.922  21.472  0.00  0.00     0.025 A 
ATOM     10  C   UNL d   1     -40.018  15.563  20.797  0.00  0.00     0.021 A 
BRANCH   8  11
ATOM     11  N   UNL d   1     -38.917  15.745  22.717  0.00  0.00    -0.114 N 
ATOM     12  O   UNL d   1     -39.412  15.922  23.352  0.00  0.00    -0.532 OA
ATOM     13  O   UNL d   1     -38.100  15.878  22.763  0.00  0.00    -0.532 OA
ENDBRANCH   8  11
ENDBRANCH   3   5
BRANCH   2  14
ATOM     14  C   UNL d   1     -39.634  14.073  17.863  0.00  0.00     0.086 A 
ATOM     15  C   UNL d   1     -39.127  13.437  17.720  0.00  0.00     0.019 A 
ATOM     16  C   UNL d   1     -38.681  13.419  17.045  0.00  0.00     0.005 A 
ATOM     17  C   UNL d   1     -38.718  14.041  16.472  0.00  0.00     0.039 A 
ATOM     18  C   UNL d   1     -39.226  14.664  16.629  0.00  0.00     0.005 A 
ATOM     19  C   UNL d   1     -39.682  14.681  17.321  0.00  0.00     0.019 A 
BRANCH  17  20
ATOM     20  C   UNL d   1     -38.287  14.045  15.797  0.00  0.00     0.196 C 
ATOM     21  O   UNL d   1     -38.142  13.360  15.402  0.00  0.00    -0.287 OA
ATOM     22  C   UNL d   1     -37.986  14.744  15.497  0.00  0.00     0.045 C 
ENDBRANCH  17  20
ENDBRANCH   2  14
TORSDOF 4
ENDMDL
MODEL 3
REMARK VINA RESULT:      -5.3      8.555      9.023
REMARK  4 active torsions:
REMARK  status: ('A' for Active; 'I' for Inactive)
REMARK    1  A    between atoms: C_3  and  N_1 
REMARK       I    between atoms: C_2  and  N_5 
REMARK       I    between atoms: N_4  and  C_2 
REMARK    2  A    between atoms: C_17  and  N_4 
REMARK    3  A    between atoms: N_5  and  C_16 
REMARK    4  A    between atoms: C_8  and  C_9 
ROOT
ATOM      1  C   UNL d   1     -38.581  14.515  19.703  0.00  0.00     0.369 C 
ATOM      2  N   UNL d   1     -38.483  14.811  18.917  0.00  0.00    -0.191 NA
ATOM      3  N   UNL d   1     -37.941  14.348  20.160  0.00  0.00    -0.191 NA
ATOM      4  O   UNL d   1     -39.347  14.409  19.970  0.00  0.00    -0.242 OA
ENDROOT
BRANCH   3   5
ATOM      5  C   UNL d   1     -38.080  14.052  20.943  0.00  0.00     0.086 A 
ATOM      6  C   UNL d   1     -37.999  13.245  21.105  0.00  0.00     0.021 A 
ATOM      7  C   UNL d   1     -38.131  12.943  21.862  0.00  0.00     0.025 A 
ATOM      8  C   UNL d   1     -38.346  13.480  22.442  0.00  0.00     0.127 A 
ATOM      9  C   UNL d   1     -38.439  14.310  22.314  0.00  0.00     0.025 A 
ATOM     10  C   UNL d   1     -38.296  14.567  21.542  0.00  0.00     0.021 A 
BRANCH   8  11
ATOM     11  N   UNL d   1     -38.486  13.157  23.246  0.00  0.00    -0.114 N 
ATOM     12  O   UNL d   1     -39.168  13.380  23.653  0.00  0.00    -0.532 OA
ATOM     13  O   UNL d   1     -37.940  12.635  23.587  0.00  0.00    -0.532 OA
ENDBRANCH   8  11
ENDBRANCH   3   5
BRANCH   2  14
ATOM     14  C   UNL d   1     -39.129  14.987  18.438  0.00  0.00     0.086 A 
ATOM     15  C   UNL d   1     -39.417  14.420  17.912  0.00  0.00     0.019 A 
ATOM     16  C   UNL d   1     -40.052  14.591  17.440  0.00  0.00     0.005 A 
ATOM     17  C   UNL d   1     -40.435  15.345  17.469  0.00  0.00     0.039 A 
ATOM     18  C   UNL d   1     -40.137  15.897  17.995  0.00  0.00     0.005 A 
ATOM     19  C   UNL d   1     -39.487  15.719  18.478  0.00  0.00     0.019 A 
BRANCH  17  20
ATOM     20  C   UNL d   1     -41.064  15.538  17.012  0.00  0.00     0.196 C 
ATOM     21  O   UNL d   1     -41.813  15.450  17.291  0.00  0.00    -0.287 OA
ATOM     22  C   UNL d   1     -40.959  15.827  16.254  0.00  0.00     0.045 C 
ENDBRANCH  17  20
ENDBRANCH   2  14
TORSDOF 4
ENDMDL
