MODEL 1
REMARK VINA RESULT:      -4.1      0.000      0.000
REMARK  2 active torsions:
REMARK  status: ('A' for Active; 'I' for Inactive)
REMARK    1  A    between atoms: C_8  and  C_6 
REMARK    2  A    between atoms: C_9  and  C_8 
ROOT
ATOM      1  N   UNL d   1      57.927   0.552  32.305  0.00  0.00    -0.207 NA
ATOM      2  N   UNL d   1      57.102  -0.549  31.354  0.00  0.00    -0.240 NA
ATOM      3  C   UNL d   1      58.017   0.317  31.522  0.00  0.00     0.297 A 
ATOM      4  C   UNL d   1      57.378   0.297  32.863  0.00  0.00     0.086 A 
ATOM      5  C   UNL d   1      56.672  -0.646  32.048  0.00  0.00     0.083 A 
ATOM      6  C   UNL d   1      57.737  -0.050  31.215  0.00  0.00     0.144 A 
ATOM      7  C   UNL d   1      56.775  -0.265  32.774  0.00  0.00     0.035 A 
ATOM      8  O   UNL d   1      58.600   0.681  31.163  0.00  0.00    -0.264 OA
ATOM      9  C   UNL d   1      56.281  -0.442  33.406  0.00  0.00     0.003 A 
ATOM     10  C   UNL d   1      56.075  -1.203  31.957  0.00  0.00     0.019 A 
ATOM     11  C   UNL d   1      57.481   0.680  33.593  0.00  0.00     0.019 A 
ATOM     12  C   UNL d   1      56.981   0.499  34.228  0.00  0.00     0.002 A 
ATOM     13  C   UNL d   1      55.581  -1.381  32.588  0.00  0.00     0.002 A 
ATOM     14  C   UNL d   1      55.684  -0.999  33.315  0.00  0.00     0.000 A 
ATOM     15  C   UNL d   1      56.383  -0.062  34.129  0.00  0.00     0.000 A 
ENDROOT
BRANCH   6  16
ATOM     16  C   UNL d   1      58.235   0.129  30.581  0.00  0.00     0.088 C 
BRANCH  16  17
ATOM     17  C   UNL d   1      58.159  -0.269  29.851  0.00  0.00     0.299 C 
ATOM     18  O   UNL d   1      57.758   0.097  29.235  0.00  0.00    -0.264 OA
ATOM     19  N   UNL d   1      58.482  -1.025  29.746  0.00  0.00    -0.102 N 
ENDBRANCH  16  17
ENDBRANCH   6  16
TORSDOF 2
ENDMDL
MODEL 2
REMARK VINA RESULT:      -3.8      0.843      1.832
REMARK  2 active torsions:
REMARK  status: ('A' for Active; 'I' for Inactive)
REMARK    1  A    between atoms: C_8  and  C_6 
REMARK    2  A    between atoms: C_9  and  C_8 
ROOT
ATOM      1  N   UNL d   1      56.944  -1.305  31.203  0.00  0.00    -0.207 NA
ATOM      2  N   UNL d   1      57.884   0.033  31.555  0.00  0.00    -0.240 NA
ATOM      3  C   UNL d   1      57.531  -0.912  30.782  0.00  0.00     0.297 A 
ATOM      4  C   UNL d   1      56.644  -1.139  31.951  0.00  0.00     0.086 A 
ATOM      5  C   UNL d   1      57.449   0.007  32.252  0.00  0.00     0.083 A 
ATOM      6  C   UNL d   1      57.838  -0.468  30.908  0.00  0.00     0.144 A 
ATOM      7  C   UNL d   1      56.859  -0.530  32.470  0.00  0.00     0.035 A 
ATOM      8  O   UNL d   1      57.670  -1.230  30.087  0.00  0.00    -0.264 OA
ATOM      9  C   UNL d   1      56.487  -0.460  33.199  0.00  0.00     0.003 A 
ATOM     10  C   UNL d   1      57.664   0.611  32.765  0.00  0.00     0.019 A 
ATOM     11  C   UNL d   1      56.051  -1.679  32.170  0.00  0.00     0.019 A 
ATOM     12  C   UNL d   1      55.678  -1.605  32.906  0.00  0.00     0.002 A 
ATOM     13  C   UNL d   1      57.293   0.682  33.494  0.00  0.00     0.002 A 
ATOM     14  C   UNL d   1      56.703   0.145  33.712  0.00  0.00     0.000 A 
ATOM     15  C   UNL d   1      55.900  -0.994  33.416  0.00  0.00     0.000 A 
ENDROOT
BRANCH   6  16
ATOM     16  C   UNL d   1      58.210  -0.540  30.175  0.00  0.00     0.088 C 
BRANCH  16  17
ATOM     17  C   UNL d   1      58.757   0.035  29.914  0.00  0.00     0.299 C 
ATOM     18  O   UNL d   1      59.550  -0.047  30.113  0.00  0.00    -0.264 OA
ATOM     19  N   UNL d   1      58.507   0.682  29.460  0.00  0.00    -0.102 N 
ENDBRANCH  16  17
ENDBRANCH   6  16
TORSDOF 2
ENDMDL
MODEL 3
REMARK VINA RESULT:      -3.8      1.538      4.035
REMARK  2 active torsions:
REMARK  status: ('A' for Active; 'I' for Inactive)
REMARK    1  A    between atoms: C_8  and  C_6 
REMARK    2  A    between atoms: C_9  and  C_8 
ROOT
ATOM      1  N   UNL d   1      57.760  -1.576  30.399  0.00  0.00    -0.207 NA
ATOM      2  N   UNL d   1      57.982   0.068  30.609  0.00  0.00    -0.240 NA
ATOM      3  C   UNL d   1      57.450  -1.038  30.937  0.00  0.00     0.297 A 
ATOM      4  C   UNL d   1      58.292  -1.446  29.784  0.00  0.00     0.086 A 
ATOM      5  C   UNL d   1      58.481  -0.037  29.965  0.00  0.00     0.083 A 
ATOM      6  C   UNL d   1      57.530  -0.493  30.999  0.00  0.00     0.144 A 
ATOM      7  C   UNL d   1      58.650  -0.735  29.553  0.00  0.00     0.035 A 
ATOM      8  O   UNL d   1      56.960  -1.366  31.443  0.00  0.00    -0.264 OA
ATOM      9  C   UNL d   1      59.171  -0.723  28.918  0.00  0.00     0.003 A 
ATOM     10  C   UNL d   1      58.834   0.669  29.738  0.00  0.00     0.019 A 
ATOM     11  C   UNL d   1      58.462  -2.147  29.371  0.00  0.00     0.019 A 
ATOM     12  C   UNL d   1      58.987  -2.130  28.730  0.00  0.00     0.002 A 
ATOM     13  C   UNL d   1      59.355   0.682  29.103  0.00  0.00     0.002 A 
ATOM     14  C   UNL d   1      59.523  -0.016  28.692  0.00  0.00     0.000 A 
ATOM     15  C   UNL d   1      59.338  -1.417  28.509  0.00  0.00     0.000 A 
ENDROOT
BRANCH   6  16
ATOM     16  C   UNL d   1      57.006  -0.507  31.637  0.00  0.00     0.088 C 
BRANCH  16  17
ATOM     17  C   UNL d   1      56.872   0.177  32.097  0.00  0.00     0.299 C 
ATOM     18  O   UNL d   1      56.257   0.682  31.893  0.00  0.00    -0.264 OA
ATOM     19  N   UNL d   1      57.352   0.349  32.750  0.00  0.00    -0.102 N 
ENDBRANCH  16  17
ENDBRANCH   6  16
TORSDOF 2
ENDMDL
MODEL 4
REMARK VINA RESULT:      -3.3      1.526      3.742
REMARK  2 active torsions:
REMARK  status: ('A' for Active; 'I' for Inactive)
REMARK    1  A    between atoms: C_8  and  C_6 
REMARK    2  A    between atoms: C_9  and  C_8 
ROOT
ATOM      1  N   UNL d   1      57.837   0.485  30.238  0.00  0.00    -0.207 NA
ATOM      2  N   UNL d   1      57.625  -1.105  30.713  0.00  0.00    -0.240 NA
ATOM      3  C   UNL d   1      57.401   0.139  30.844  0.00  0.00     0.297 A 
ATOM      4  C   UNL d   1      58.313   0.124  29.671  0.00  0.00     0.086 A 
ATOM      5  C   UNL d   1      58.131  -1.237  30.078  0.00  0.00     0.083 A 
ATOM      6  C   UNL d   1      57.337  -0.391  30.993  0.00  0.00     0.144 A 
ATOM      7  C   UNL d   1      58.473  -0.682  29.569  0.00  0.00     0.035 A 
ATOM      8  O   UNL d   1      57.016   0.659  31.273  0.00  0.00    -0.264 OA
ATOM      9  C   UNL d   1      58.969  -0.930  28.962  0.00  0.00     0.003 A 
ATOM     10  C   UNL d   1      58.288  -2.037  29.979  0.00  0.00     0.019 A 
ATOM     11  C   UNL d   1      58.656   0.682  29.159  0.00  0.00     0.019 A 
ATOM     12  C   UNL d   1      59.156   0.428  28.549  0.00  0.00     0.002 A 
ATOM     13  C   UNL d   1      58.783  -2.286  29.373  0.00  0.00     0.002 A 
ATOM     14  C   UNL d   1      59.124  -1.731  28.864  0.00  0.00     0.000 A 
ATOM     15  C   UNL d   1      59.308  -0.378  28.455  0.00  0.00     0.000 A 
ENDROOT
BRANCH   6  16
ATOM     16  C   UNL d   1      56.839  -0.140  31.602  0.00  0.00     0.088 C 
BRANCH  16  17
ATOM     17  C   UNL d   1      56.641  -0.651  32.231  0.00  0.00     0.299 C 
ATOM     18  O   UNL d   1      56.182  -1.316  32.078  0.00  0.00    -0.264 OA
ATOM     19  N   UNL d   1      56.901  -0.494  33.002  0.00  0.00    -0.102 N 
ENDBRANCH  16  17
ENDBRANCH   6  16
TORSDOF 2
ENDMDL
MODEL 5
REMARK VINA RESULT:      -3.0      1.217      1.626
REMARK  2 active torsions:
REMARK  status: ('A' for Active; 'I' for Inactive)
REMARK    1  A    between atoms: C_8  and  C_6 
REMARK    2  A    between atoms: C_9  and  C_8 
ROOT
ATOM      1  N   UNL d   1      57.592   0.659  33.501  0.00  0.00    -0.207 NA
ATOM      2  N   UNL d   1      56.282   0.577  32.465  0.00  0.00    -0.240 NA
ATOM      3  C   UNL d   1      57.533   0.635  32.681  0.00  0.00     0.297 A 
ATOM      4  C   UNL d   1      56.992   0.649  34.064  0.00  0.00     0.086 A 
ATOM      5  C   UNL d   1      55.870   0.579  33.176  0.00  0.00     0.083 A 
ATOM      6  C   UNL d   1      57.092   0.608  32.346  0.00  0.00     0.144 A 
ATOM      7  C   UNL d   1      56.173   0.612  33.945  0.00  0.00     0.035 A 
ATOM      8  O   UNL d   1      58.224   0.654  32.328  0.00  0.00    -0.264 OA
ATOM      9  C   UNL d   1      55.663   0.608  34.589  0.00  0.00     0.003 A 
ATOM     10  C   UNL d   1      55.059   0.542  33.055  0.00  0.00     0.019 A 
ATOM     11  C   UNL d   1      57.296   0.682  34.837  0.00  0.00     0.019 A 
ATOM     12  C   UNL d   1      56.779   0.677  35.484  0.00  0.00     0.002 A 
ATOM     13  C   UNL d   1      54.548   0.538  33.698  0.00  0.00     0.002 A 
ATOM     14  C   UNL d   1      54.851   0.571  34.467  0.00  0.00     0.000 A 
ATOM     15  C   UNL d   1      55.964   0.640  35.355  0.00  0.00     0.000 A 
ENDROOT
BRANCH   6  16
ATOM     16  C   UNL d   1      57.606   0.612  31.700  0.00  0.00     0.088 C 
BRANCH  16  17
ATOM     17  C   UNL d   1      57.397   0.237  30.984  0.00  0.00     0.299 C 
ATOM     18  O   UNL d   1      57.033   0.676  30.393  0.00  0.00    -0.264 OA
ATOM     19  N   UNL d   1      57.554  -0.568  30.867  0.00  0.00    -0.102 N 
ENDBRANCH  16  17
ENDBRANCH   6  16
TORSDOF 2
ENDMDL
MODEL 6
REMARK VINA RESULT:      -2.8      3.655      4.934
REMARK  2 active torsions:
REMARK  status: ('A' for Active; 'I' for Inactive)
REMARK    1  A    between atoms: C_8  and  C_6 
REMARK    2  A    between atoms: C_9  and  C_8 
ROOT
ATOM      1  N   UNL d   1      58.847  -1.772  29.279  0.00  0.00    -0.207 NA
ATOM      2  N   UNL d   1      60.491  -1.837  28.980  0.00  0.00    -0.240 NA
ATOM      3  C   UNL d   1      59.376  -2.398  29.220  0.00  0.00     0.297 A 
ATOM      4  C   UNL d   1      58.989  -0.964  29.203  0.00  0.00     0.086 A 
ATOM      5  C   UNL d   1      60.397  -1.021  28.947  0.00  0.00     0.083 A 
ATOM      6  C   UNL d   1      59.921  -2.410  29.120  0.00  0.00     0.144 A 
ATOM      7  C   UNL d   1      59.706  -0.579  29.047  0.00  0.00     0.035 A 
ATOM      8  O   UNL d   1      59.039  -3.089  29.325  0.00  0.00    -0.264 OA
ATOM      9  C   UNL d   1      59.729   0.241  28.992  0.00  0.00     0.003 A 
ATOM     10  C   UNL d   1      61.109  -0.642  28.792  0.00  0.00     0.019 A 
ATOM     11  C   UNL d   1      58.294  -0.520  29.304  0.00  0.00     0.019 A 
ATOM     12  C   UNL d   1      58.322   0.307  29.248  0.00  0.00     0.002 A 
ATOM     13  C   UNL d   1      61.133   0.177  28.737  0.00  0.00     0.002 A 
ATOM     14  C   UNL d   1      60.442   0.619  28.837  0.00  0.00     0.000 A 
ATOM     15  C   UNL d   1      59.041   0.681  29.092  0.00  0.00     0.000 A 
ENDROOT
BRANCH   6  16
ATOM     16  C   UNL d   1      59.895  -3.233  29.176  0.00  0.00     0.088 C 
BRANCH  16  17
ATOM     17  C   UNL d   1      60.597  -3.685  29.167  0.00  0.00     0.299 C 
ATOM     18  O   UNL d   1      61.038  -3.756  29.857  0.00  0.00    -0.264 OA
ATOM     19  N   UNL d   1      60.851  -4.059  28.472  0.00  0.00    -0.102 N 
ENDBRANCH  16  17
ENDBRANCH   6  16
TORSDOF 2
ENDMDL
MODEL 7
REMARK VINA RESULT:      -2.5      1.583      3.942
REMARK  2 active torsions:
REMARK  status: ('A' for Active; 'I' for Inactive)
REMARK    1  A    between atoms: C_8  and  C_6 
REMARK    2  A    between atoms: C_9  and  C_8 
ROOT
ATOM      1  N   UNL d   1      57.431   0.611  30.112  0.00  0.00    -0.207 NA
ATOM      2  N   UNL d   1      58.381   0.615  31.489  0.00  0.00    -0.240 NA
ATOM      3  C   UNL d   1      57.248   0.596  30.914  0.00  0.00     0.297 A 
ATOM      4  C   UNL d   1      58.170   0.634  29.750  0.00  0.00     0.086 A 
ATOM      5  C   UNL d   1      58.983   0.637  30.930  0.00  0.00     0.083 A 
ATOM      6  C   UNL d   1      57.571   0.597  31.364  0.00  0.00     0.144 A 
ATOM      7  C   UNL d   1      58.919   0.647  30.105  0.00  0.00     0.035 A 
ATOM      8  O   UNL d   1      56.483   0.576  31.048  0.00  0.00    -0.264 OA
ATOM      9  C   UNL d   1      59.595   0.669  29.640  0.00  0.00     0.003 A 
ATOM     10  C   UNL d   1      59.723   0.649  31.285  0.00  0.00     0.019 A 
ATOM     11  C   UNL d   1      58.106   0.644  28.922  0.00  0.00     0.019 A 
ATOM     12  C   UNL d   1      58.790   0.667  28.455  0.00  0.00     0.002 A 
ATOM     13  C   UNL d   1      60.400   0.672  30.820  0.00  0.00     0.002 A 
ATOM     14  C   UNL d   1      60.336   0.682  29.995  0.00  0.00     0.000 A 
ATOM     15  C   UNL d   1      59.532   0.679  28.819  0.00  0.00     0.000 A 
ENDROOT
BRANCH   6  16
ATOM     16  C   UNL d   1      56.890   0.575  31.830  0.00  0.00     0.088 C 
BRANCH  16  17
ATOM     17  C   UNL d   1      56.891   0.190  32.571  0.00  0.00     0.299 C 
ATOM     18  O   UNL d   1      56.720  -0.613  32.606  0.00  0.00    -0.264 OA
ATOM     19  N   UNL d   1      57.062   0.609  33.265  0.00  0.00    -0.102 N 
ENDBRANCH  16  17
ENDBRANCH   6  16
TORSDOF 2
ENDMDL
MODEL 8
REMARK VINA RESULT:      -2.1      1.666      3.362
REMARK  2 active torsions:
REMARK  status: ('A' for Active; 'I' for Inactive)
REMARK    1  A    between atoms: C_8  and  C_6 
REMARK    2  A    between atoms: C_9  and  C_8 
ROOT
ATOM      1  N   UNL d   1      58.557   0.630  32.558  0.00  0.00    -0.207 NA
ATOM      2  N   UNL d   1      57.157   0.610  31.644  0.00  0.00    -0.240 NA
ATOM      3  C   UNL d   1      57.761   0.610  32.762  0.00  0.00     0.297 A 
ATOM      4  C   UNL d   1      58.900   0.646  31.810  0.00  0.00     0.086 A 
ATOM      5  C   UNL d   1      57.700   0.628  31.028  0.00  0.00     0.083 A 
ATOM      6  C   UNL d   1      57.302   0.603  32.451  0.00  0.00     0.144 A 
ATOM      7  C   UNL d   1      58.526   0.646  31.071  0.00  0.00     0.035 A 
ATOM      8  O   UNL d   1      57.646   0.599  33.530  0.00  0.00    -0.264 OA
ATOM      9  C   UNL d   1      58.974   0.664  30.382  0.00  0.00     0.003 A 
ATOM     10  C   UNL d   1      57.327   0.629  30.297  0.00  0.00     0.019 A 
ATOM     11  C   UNL d   1      59.730   0.663  31.853  0.00  0.00     0.019 A 
ATOM     12  C   UNL d   1      60.179   0.681  31.157  0.00  0.00     0.002 A 
ATOM     13  C   UNL d   1      57.774   0.646  29.608  0.00  0.00     0.002 A 
ATOM     14  C   UNL d   1      58.600   0.664  29.651  0.00  0.00     0.000 A 
ATOM     15  C   UNL d   1      59.796   0.681  30.425  0.00  0.00     0.000 A 
ENDROOT
BRANCH   6  16
ATOM     16  C   UNL d   1      56.854   0.586  33.144  0.00  0.00     0.088 C 
BRANCH  16  17
ATOM     17  C   UNL d   1      56.102   0.224  33.157  0.00  0.00     0.299 C 
ATOM     18  O   UNL d   1      56.051  -0.594  33.221  0.00  0.00    -0.264 OA
ATOM     19  N   UNL d   1      55.412   0.680  33.108  0.00  0.00    -0.102 N 
ENDBRANCH  16  17
ENDBRANCH   6  16
TORSDOF 2
ENDMDL
MODEL 9
REMARK VINA RESULT:      -1.6      8.750      9.428
REMARK  2 active torsions:
REMARK  status: ('A' for Active; 'I' for Inactive)
REMARK    1  A    between atoms: C_8  and  C_6 
REMARK    2  A    between atoms: C_9  and  C_8 
ROOT
ATOM      1  N   UNL d   1      58.816  -8.207  35.231  0.00  0.00    -0.207 NA
ATOM      2  N   UNL d   1      60.474  -8.011  35.131  0.00  0.00    -0.240 NA
ATOM      3  C   UNL d   1      59.347  -7.742  35.653  0.00  0.00     0.297 A 
ATOM      4  C   UNL d   1      58.963  -8.730  34.613  0.00  0.00     0.086 A 
ATOM      5  C   UNL d   1      60.383  -8.561  34.528  0.00  0.00     0.083 A 
ATOM      6  C   UNL d   1      59.897  -7.683  35.612  0.00  0.00     0.144 A 
ATOM      7  C   UNL d   1      59.688  -8.919  34.259  0.00  0.00     0.035 A 
ATOM      8  O   UNL d   1      59.003  -7.314  36.202  0.00  0.00    -0.264 OA
ATOM      9  C   UNL d   1      59.716  -9.462  33.642  0.00  0.00     0.003 A 
ATOM     10  C   UNL d   1      61.103  -8.747  34.179  0.00  0.00     0.019 A 
ATOM     11  C   UNL d   1      58.265  -9.090  34.342  0.00  0.00     0.019 A 
ATOM     12  C   UNL d   1      58.297  -9.636  33.720  0.00  0.00     0.002 A 
ATOM     13  C   UNL d   1      61.132  -9.289  33.562  0.00  0.00     0.002 A 
ATOM     14  C   UNL d   1      60.437  -9.647  33.293  0.00  0.00     0.000 A 
ATOM     15  C   UNL d   1      59.024  -9.818  33.374  0.00  0.00     0.000 A 
ENDROOT
BRANCH   6  16
ATOM     16  C   UNL d   1      59.867  -7.139  36.232  0.00  0.00     0.088 C 
BRANCH  16  17
ATOM     17  C   UNL d   1      60.306  -6.430  36.200  0.00  0.00     0.299 C 
ATOM     18  O   UNL d   1      59.908  -5.715  36.119  0.00  0.00    -0.264 OA
ATOM     19  N   UNL d   1      61.133  -6.441  36.249  0.00  0.00    -0.102 N 
ENDBRANCH  16  17
ENDBRANCH   6  16
TORSDOF 2
ENDMDL
