MODEL 1
REMARK VINA RESULT:      -5.3      0.000      0.000
REMARK  1 active torsions:
REMARK  status: ('A' for Active; 'I' for Inactive)
REMARK    1  A    between atoms: C_4  and  C_1 
ROOT
ATOM      1  C   UNL d   1     -41.647-122.561 -53.564  0.00  0.00     0.024 A 
ATOM      2  C   UNL d   1     -42.172-121.939 -53.694  0.00  0.00     0.002 A 
ATOM      3  C   UNL d   1     -41.294-122.949 -54.198  0.00  0.00     0.002 A 
ATOM      4  C   UNL d   1     -42.345-121.703 -54.457  0.00  0.00     0.000 A 
ATOM      5  C   UNL d   1     -41.467-122.713 -54.970  0.00  0.00     0.000 A 
ATOM      6  C   UNL d   1     -41.993-122.090 -55.095  0.00  0.00     0.000 A 
ATOM      7  C   UNL d   1     -42.170-121.849 -55.869  0.00  0.00     0.000 C 
ENDROOT
BRANCH   1   8
ATOM      8  C   UNL d   1     -41.474-122.797 -52.791  0.00  0.00     0.111 A 
ATOM      9  N   UNL d   1     -41.480-123.598 -52.593  0.00  0.00    -0.237 NA
ATOM     10  C   UNL d   1     -41.129-123.267 -51.247  0.00  0.00     0.106 A 
ATOM     11  C   UNL d   1     -41.123-122.466 -51.445  0.00  0.00     0.058 A 
ATOM     12  S   UNL d   1     -41.295-122.230 -52.218  0.00  0.00    -0.066 SA
ENDBRANCH   1   8
TORSDOF 1
ENDMDL
MODEL 2
REMARK VINA RESULT:      -4.8      1.006      3.199
REMARK  1 active torsions:
REMARK  status: ('A' for Active; 'I' for Inactive)
REMARK    1  A    between atoms: C_4  and  C_1 
ROOT
ATOM      1  C   UNL d   1     -41.378-122.649 -52.480  0.00  0.00     0.024 A 
ATOM      2  C   UNL d   1     -41.462-122.002 -51.975  0.00  0.00     0.002 A 
ATOM      3  C   UNL d   1     -41.208-123.395 -52.176  0.00  0.00     0.002 A 
ATOM      4  C   UNL d   1     -41.378-122.100 -51.168  0.00  0.00     0.000 A 
ATOM      5  C   UNL d   1     -41.123-123.497 -51.361  0.00  0.00     0.000 A 
ATOM      6  C   UNL d   1     -41.208-122.846 -50.862  0.00  0.00     0.000 A 
ATOM      7  C   UNL d   1     -41.123-122.942 -50.041  0.00  0.00     0.000 C 
ENDROOT
BRANCH   1   8
ATOM      8  C   UNL d   1     -41.464-122.547 -53.295  0.00  0.00     0.111 A 
ATOM      9  N   UNL d   1     -41.868-121.891 -53.588  0.00  0.00    -0.237 NA
ATOM     10  C   UNL d   1     -41.635-122.344 -54.924  0.00  0.00     0.106 A 
ATOM     11  C   UNL d   1     -41.231-123.001 -54.631  0.00  0.00     0.058 A 
ATOM     12  S   UNL d   1     -41.145-123.103 -53.816  0.00  0.00    -0.066 SA
ENDBRANCH   1   8
TORSDOF 1
ENDMDL
MODEL 3
REMARK VINA RESULT:      -4.2      2.107      3.288
REMARK  1 active torsions:
REMARK  status: ('A' for Active; 'I' for Inactive)
REMARK    1  A    between atoms: C_4  and  C_1 
ROOT
ATOM      1  C   UNL d   1     -41.592-122.963 -50.501  0.00  0.00     0.024 A 
ATOM      2  C   UNL d   1     -41.385-123.618 -50.958  0.00  0.00     0.002 A 
ATOM      3  C   UNL d   1     -41.644-122.217 -50.842  0.00  0.00     0.002 A 
ATOM      4  C   UNL d   1     -41.230-123.527 -51.756  0.00  0.00     0.000 A 
ATOM      5  C   UNL d   1     -41.488-122.122 -51.647  0.00  0.00     0.000 A 
ATOM      6  C   UNL d   1     -41.281-122.780 -52.100  0.00  0.00     0.000 A 
ATOM      7  C   UNL d   1     -41.123-122.690 -52.910  0.00  0.00     0.000 C 
ENDROOT
BRANCH   1   8
ATOM      8  C   UNL d   1     -41.749-123.059 -49.696  0.00  0.00     0.111 A 
ATOM      9  N   UNL d   1     -41.126-123.148 -49.163  0.00  0.00    -0.237 NA
ATOM     10  C   UNL d   1     -42.062-123.250 -48.086  0.00  0.00     0.106 A 
ATOM     11  C   UNL d   1     -42.685-123.160 -48.620  0.00  0.00     0.058 A 
ATOM     12  S   UNL d   1     -42.529-123.065 -49.425  0.00  0.00    -0.066 SA
ENDBRANCH   1   8
TORSDOF 1
ENDMDL
MODEL 4
REMARK VINA RESULT:      -3.5      1.030      3.102
REMARK  1 active torsions:
REMARK  status: ('A' for Active; 'I' for Inactive)
REMARK    1  A    between atoms: C_4  and  C_1 
ROOT
ATOM      1  C   UNL d   1     -41.613-122.775 -53.105  0.00  0.00     0.024 A 
ATOM      2  C   UNL d   1     -41.655-123.564 -52.870  0.00  0.00     0.002 A 
ATOM      3  C   UNL d   1     -41.427-122.188 -52.559  0.00  0.00     0.002 A 
ATOM      4  C   UNL d   1     -41.512-123.768 -52.091  0.00  0.00     0.000 A 
ATOM      5  C   UNL d   1     -41.282-122.389 -51.772  0.00  0.00     0.000 A 
ATOM      6  C   UNL d   1     -41.325-123.181 -51.543  0.00  0.00     0.000 A 
ATOM      7  C   UNL d   1     -41.180-123.390 -50.752  0.00  0.00     0.000 C 
ENDROOT
BRANCH   1   8
ATOM      8  C   UNL d   1     -41.758-122.573 -53.892  0.00  0.00     0.111 A 
ATOM      9  N   UNL d   1     -42.459-122.812 -54.257  0.00  0.00    -0.237 NA
ATOM     10  C   UNL d   1     -42.048-122.169 -55.466  0.00  0.00     0.106 A 
ATOM     11  C   UNL d   1     -41.348-121.930 -55.102  0.00  0.00     0.058 A 
ATOM     12  S   UNL d   1     -41.203-122.132 -54.314  0.00  0.00    -0.066 SA
ENDBRANCH   1   8
TORSDOF 1
ENDMDL
