MODEL 1
REMARK VINA RESULT:      21.0      0.000      0.000
REMARK  2 active torsions:
REMARK  status: ('A' for Active; 'I' for Inactive)
REMARK    1  A    between atoms: C_2  and  N_1 
REMARK    2  A    between atoms: C_5  and  C_7 
ROOT
ATOM      1  C   UNL d   1     -54.857-101.270 -37.462  0.00  0.00     0.070 A 
ATOM      2  C   UNL d   1     -55.052-101.937 -37.913  0.00  0.00     0.024 A 
ATOM      3  C   UNL d   1     -55.107-101.881 -38.727  0.00  0.00     0.066 A 
ATOM      4  C   UNL d   1     -54.715-100.546 -37.826  0.00  0.00     0.018 A 
ATOM      5  C   UNL d   1     -54.965-101.152 -39.097  0.00  0.00     0.006 A 
ATOM      6  C   UNL d   1     -54.769-100.484 -38.647  0.00  0.00     0.002 A 
ENDROOT
BRANCH   1   7
ATOM      7  N   UNL d   1     -54.801-101.323 -36.642  0.00  0.00    -0.242 N 
ATOM      8  C   UNL d   1     -54.769-102.011 -36.182  0.00  0.00     0.267 A 
ATOM      9  C   UNL d   1     -54.715-101.799 -35.392  0.00  0.00     0.066 A 
ATOM     10  O   UNL d   1     -54.785-102.808 -36.434  0.00  0.00    -0.267 OA
ATOM     11  C   UNL d   1     -54.713-100.972 -35.346  0.00  0.00     0.066 A 
ATOM     12  C   UNL d   1     -54.766-100.680 -36.116  0.00  0.00     0.267 A 
ATOM     13  O   UNL d   1     -54.779 -99.869 -36.290  0.00  0.00    -0.267 OA
ENDBRANCH   1   7
BRANCH   3  14
ATOM     14  C   UNL d   1     -55.299-102.534 -39.184  0.00  0.00     0.211 C 
ATOM     15  O   UNL d   1     -54.762-102.846 -39.718  0.00  0.00    -0.644 OA
ATOM     16  O   UNL d   1     -56.050-102.878 -39.100  0.00  0.00    -0.644 OA
ENDBRANCH   3  14
TORSDOF 2
ENDMDL
MODEL 2
REMARK VINA RESULT:      22.8      6.861      7.605
REMARK  2 active torsions:
REMARK  status: ('A' for Active; 'I' for Inactive)
REMARK    1  A    between atoms: C_2  and  N_1 
REMARK    2  A    between atoms: C_5  and  C_7 
ROOT
ATOM      1  C   UNL d   1     -56.369 -99.333 -44.382  0.00  0.00     0.070 A 
ATOM      2  C   UNL d   1     -56.158-100.131 -44.312  0.00  0.00     0.024 A 
ATOM      3  C   UNL d   1     -55.371-100.351 -44.346  0.00  0.00     0.066 A 
ATOM      4  C   UNL d   1     -55.793 -98.755 -44.486  0.00  0.00     0.018 A 
ATOM      5  C   UNL d   1     -54.787 -99.771 -44.450  0.00  0.00     0.006 A 
ATOM      6  C   UNL d   1     -54.998 -98.973 -44.521  0.00  0.00     0.002 A 
ENDROOT
BRANCH   1   7
ATOM      7  N   UNL d   1     -57.161 -99.107 -44.349  0.00  0.00    -0.242 N 
ATOM      8  C   UNL d   1     -57.618 -98.971 -43.671  0.00  0.00     0.267 A 
ATOM      9  C   UNL d   1     -58.375 -98.757 -43.903  0.00  0.00     0.066 A 
ATOM     10  O   UNL d   1     -57.392 -99.028 -42.869  0.00  0.00    -0.267 OA
ATOM     11  C   UNL d   1     -58.402 -98.756 -44.731  0.00  0.00     0.066 A 
ATOM     12  C   UNL d   1     -57.654 -98.972 -45.003  0.00  0.00     0.267 A 
ATOM     13  O   UNL d   1     -57.470 -99.031 -45.811  0.00  0.00    -0.267 OA
ENDBRANCH   1   7
BRANCH   3  14
ATOM     14  C   UNL d   1     -55.149-101.138 -44.277  0.00  0.00     0.211 C 
ATOM     15  O   UNL d   1     -55.069-101.611 -44.942  0.00  0.00    -0.644 OA
ATOM     16  O   UNL d   1     -55.004-101.453 -43.523  0.00  0.00    -0.644 OA
ENDBRANCH   3  14
TORSDOF 2
ENDMDL
