MODEL 1
REMARK VINA RESULT:      15.0      0.000      0.000
REMARK  3 active torsions:
REMARK  status: ('A' for Active; 'I' for Inactive)
REMARK    1  A    between atoms: C_9  and  C_4 
REMARK    2  A    between atoms: C_10  and  C_7 
REMARK    3  A    between atoms: C_17  and  C_10 
ROOT
ATOM      1  C   UNL d   1      45.416 -16.076  44.631  0.00  0.00     0.179 A 
ATOM      2  N   UNL d   1      46.164 -15.854  44.344  0.00  0.00    -0.282 N 
ATOM      3  N   UNL d   1      45.341 -16.894  44.545  0.00  0.00    -0.221 NA
ATOM      4  C   UNL d   1      46.044 -17.181  44.203  0.00  0.00     0.101 A 
ATOM      5  S   UNL d   1      45.031 -15.397  44.894  0.00  0.00    -0.048 SA
ATOM      6  C   UNL d   1      46.542 -16.539  44.084  0.00  0.00     0.101 A 
ATOM      7  C   UNL d   1      45.542 -14.757  44.768  0.00  0.00     0.050 A 
ATOM      8  C   UNL d   1      46.228 -15.040  44.435  0.00  0.00     0.089 A 
ENDROOT
BRANCH   4   9
ATOM      9  C   UNL d   1      46.198 -17.962  44.025  0.00  0.00     0.019 A 
ATOM     10  C   UNL d   1      46.355 -18.496  44.634  0.00  0.00     0.004 A 
ATOM     11  C   UNL d   1      46.512 -19.289  44.467  0.00  0.00     0.030 A 
ATOM     12  C   UNL d   1      46.511 -19.544  43.679  0.00  0.00     0.140 A 
ATOM     13  C   UNL d   1      46.356 -19.017  43.070  0.00  0.00     0.030 A 
ATOM     14  F   UNL d   1      46.647 -20.289  43.341  0.00  0.00    -0.204 F 
ATOM     15  C   UNL d   1      46.199 -18.226  43.238  0.00  0.00     0.004 A 
ENDBRANCH   4   9
BRANCH   7  16
ATOM     16  C   UNL d   1      45.371 -13.972  44.955  0.00  0.00     0.008 C 
BRANCH  16  17
ATOM     17  C   UNL d   1      45.315 -13.400  44.365  0.00  0.00     0.001 A 
ATOM     18  C   UNL d   1      44.702 -13.419  43.818  0.00  0.00     0.000 A 
ATOM     19  C   UNL d   1      44.648 -12.841  43.224  0.00  0.00     0.000 A 
ATOM     20  C   UNL d   1      45.216 -12.243  43.184  0.00  0.00     0.000 A 
ATOM     21  C   UNL d   1      45.833 -12.220  43.730  0.00  0.00     0.000 A 
ATOM     22  C   UNL d   1      45.887 -12.797  44.323  0.00  0.00     0.000 A 
ENDBRANCH  16  17
ENDBRANCH   7  16
TORSDOF 3
ENDMDL
MODEL 2
REMARK VINA RESULT:      16.7      1.967      5.160
REMARK  3 active torsions:
REMARK  status: ('A' for Active; 'I' for Inactive)
REMARK    1  A    between atoms: C_9  and  C_4 
REMARK    2  A    between atoms: C_10  and  C_7 
REMARK    3  A    between atoms: C_17  and  C_10 
ROOT
ATOM      1  C   UNL d   1      46.243 -16.644  44.165  0.00  0.00     0.179 A 
ATOM      2  N   UNL d   1      45.678 -16.750  44.766  0.00  0.00    -0.282 N 
ATOM      3  N   UNL d   1      46.280 -15.837  43.988  0.00  0.00    -0.221 NA
ATOM      4  C   UNL d   1      45.738 -15.442  44.480  0.00  0.00     0.101 A 
ATOM      5  S   UNL d   1      46.552 -17.382  43.971  0.00  0.00    -0.048 SA
ATOM      6  C   UNL d   1      45.374 -16.006  44.953  0.00  0.00     0.101 A 
ATOM      7  C   UNL d   1      46.178 -17.942  44.453  0.00  0.00     0.050 A 
ATOM      8  C   UNL d   1      45.649 -17.554  44.933  0.00  0.00     0.089 A 
ENDROOT
BRANCH   4   9
ATOM      9  C   UNL d   1      45.602 -14.637  44.484  0.00  0.00     0.019 A 
ATOM     10  C   UNL d   1      44.999 -14.325  44.014  0.00  0.00     0.004 A 
ATOM     11  C   UNL d   1      44.851 -13.512  44.009  0.00  0.00     0.030 A 
ATOM     12  C   UNL d   1      45.315 -13.014  44.480  0.00  0.00     0.140 A 
ATOM     13  C   UNL d   1      45.914 -13.320  44.947  0.00  0.00     0.030 A 
ATOM     14  F   UNL d   1      45.301 -12.192  44.591  0.00  0.00    -0.204 F 
ATOM     15  C   UNL d   1      46.062 -14.130  44.953  0.00  0.00     0.004 A 
ENDBRANCH   4   9
BRANCH   7  16
ATOM     16  C   UNL d   1      46.327 -18.753  44.438  0.00  0.00     0.008 C 
BRANCH  16  17
ATOM     17  C   UNL d   1      46.293 -19.176  43.732  0.00  0.00     0.001 A 
ATOM     18  C   UNL d   1      45.916 -19.904  43.696  0.00  0.00     0.000 A 
ATOM     19  C   UNL d   1      45.882 -20.329  42.983  0.00  0.00     0.000 A 
ATOM     20  C   UNL d   1      46.232 -20.014  42.304  0.00  0.00     0.000 A 
ATOM     21  C   UNL d   1      46.611 -19.283  42.335  0.00  0.00     0.000 A 
ATOM     22  C   UNL d   1      46.645 -18.859  43.047  0.00  0.00     0.000 A 
ENDBRANCH  16  17
ENDBRANCH   7  16
TORSDOF 3
ENDMDL
