MODEL 1
REMARK VINA RESULT:      82.0      0.000      0.000
REMARK  4 active torsions:
REMARK  status: ('A' for Active; 'I' for Inactive)
REMARK    1  A    between atoms: S_5  and  C_3 
REMARK    2  A    between atoms: C_12  and  S_5 
REMARK    3  A    between atoms: C_23  and  N_6 
REMARK    4  A    between atoms: C_28  and  C_23 
ROOT
ATOM      1  C   UNL d   1     -54.900-101.226 -41.773  0.00  0.00     0.155 A 
ATOM      2  C   UNL d   1     -54.855-100.584 -41.271  0.00  0.00     0.092 A 
ATOM      3  C   UNL d   1     -54.847-101.453 -40.156  0.00  0.00     0.124 A 
ATOM      4  N   UNL d   1     -54.927-101.110 -42.589  0.00  0.00    -0.210 NA
ATOM      5  N   UNL d   1     -54.919-101.978 -41.473  0.00  0.00    -0.273 N 
ATOM      6  C   UNL d   1     -54.892-102.102 -40.662  0.00  0.00     0.181 A 
ATOM      7  C   UNL d   1     -54.837 -99.822 -41.576  0.00  0.00     0.269 A 
ATOM      8  N   UNL d   1     -54.864 -99.709 -42.388  0.00  0.00    -0.258 N 
ATOM      9  C   UNL d   1     -54.829-100.694 -40.463  0.00  0.00     0.022 A 
ATOM     10  C   UNL d   1     -54.909-100.361 -42.892  0.00  0.00     0.152 A 
ATOM     11  N   UNL d   1     -54.912-102.874 -40.360  0.00  0.00    -0.128 N 
ATOM     12  C   UNL d   1     -54.846 -98.949 -42.705  0.00  0.00     0.084 A 
ATOM     13  O   UNL d   1     -54.791 -99.163 -41.066  0.00  0.00    -0.266 OA
ATOM     14  C   UNL d   1     -54.935-100.245 -43.707  0.00  0.00     0.038 A 
ATOM     15  C   UNL d   1     -54.872 -98.838 -43.514  0.00  0.00     0.019 A 
ATOM     16  C   UNL d   1     -54.917 -99.490 -44.018  0.00  0.00     0.005 A 
ENDROOT
BRANCH   3  17
ATOM     17  S   UNL d   1     -54.821-101.572 -39.336  0.00  0.00     0.213 S 
ATOM     18  O   UNL d   1     -54.838-100.748 -39.204  0.00  0.00    -0.217 OA
ATOM     19  O   UNL d   1     -54.803-102.391 -39.455  0.00  0.00    -0.217 OA
BRANCH  17  20
ATOM     20  C   UNL d   1     -54.793-101.703 -38.512  0.00  0.00     0.088 A 
ATOM     21  C   UNL d   1     -54.784-102.476 -38.214  0.00  0.00     0.014 A 
ATOM     22  C   UNL d   1     -54.757-102.607 -37.390  0.00  0.00     0.030 A 
ATOM     23  C   UNL d   1     -54.739-101.964 -36.868  0.00  0.00     0.140 A 
ATOM     24  C   UNL d   1     -54.749-101.183 -37.176  0.00  0.00     0.030 A 
ATOM     25  F   UNL d   1     -54.712-102.087 -36.048  0.00  0.00    -0.204 F 
ATOM     26  C   UNL d   1     -54.776-101.053 -37.996  0.00  0.00     0.014 A 
ENDBRANCH  17  20
ENDBRANCH   3  17
BRANCH   5  27
ATOM     27  C   UNL d   1     -54.965-102.639 -41.988  0.00  0.00     0.083 C 
BRANCH  27  28
ATOM     28  C   UNL d   1     -55.517-102.633 -42.616  0.00  0.00     0.019 C 
ATOM     29  C   UNL d   1     -55.259-102.681 -43.408  0.00  0.00     0.002 C 
ENDBRANCH  27  28
ENDBRANCH   5  27
TORSDOF 4
ENDMDL
