MODEL 1
REMARK VINA RESULT:      -8.1      0.000      0.000
REMARK  3 active torsions:
REMARK  status: ('A' for Active; 'I' for Inactive)
REMARK    1  A    between atoms: S_4  and  C_1 
REMARK    2  A    between atoms: C_8  and  S_4 
REMARK    3  A    between atoms: C_10  and  C_8 
ROOT
ATOM      1  C   UNL d   1     -48.950  14.305  22.567  0.00  0.00     0.114 A 
ATOM      2  C   UNL d   1     -49.654  14.093  22.198  0.00  0.00     0.042 A 
ATOM      3  N   UNL d   1     -48.892  15.035  22.946  0.00  0.00    -0.217 NA
ATOM      4  N   UNL d   1     -50.243  15.336  22.584  0.00  0.00    -0.224 NA
ATOM      5  C   UNL d   1     -49.538  15.551  22.955  0.00  0.00     0.200 A 
ATOM      6  C   UNL d   1     -50.300  14.609  22.207  0.00  0.00     0.085 A 
ATOM      7  C   UNL d   1     -49.712  13.362  21.819  0.00  0.00     0.004 A 
ATOM      8  C   UNL d   1     -51.005  14.394  21.837  0.00  0.00     0.019 A 
ATOM      9  C   UNL d   1     -50.418  13.148  21.449  0.00  0.00     0.000 A 
ATOM     10  C   UNL d   1     -51.064  13.664  21.457  0.00  0.00     0.002 A 
ENDROOT
BRANCH   1  11
ATOM     11  S   UNL d   1     -48.305  13.789  22.558  0.00  0.00    -0.067 SA
BRANCH  11  12
ATOM     12  C   UNL d   1     -47.613  13.986  22.948  0.00  0.00     0.037 C 
BRANCH  12  13
ATOM     13  C   UNL d   1     -46.978  13.469  22.950  0.00  0.00     0.007 A 
ATOM     14  C   UNL d   1     -47.016  12.747  23.362  0.00  0.00     0.003 A 
ATOM     15  C   UNL d   1     -46.378  12.238  23.357  0.00  0.00     0.030 A 
ATOM     16  C   UNL d   1     -45.699  12.437  22.947  0.00  0.00     0.140 A 
ATOM     17  C   UNL d   1     -45.653  13.145  22.540  0.00  0.00     0.030 A 
ATOM     18  F   UNL d   1     -45.050  11.916  22.944  0.00  0.00    -0.204 F 
ATOM     19  C   UNL d   1     -46.291  13.670  22.536  0.00  0.00     0.003 A 
ENDBRANCH  12  13
ENDBRANCH  11  12
ENDBRANCH   1  11
TORSDOF 3
ENDMDL
MODEL 2
REMARK VINA RESULT:      -7.4      1.497      1.870
REMARK  3 active torsions:
REMARK  status: ('A' for Active; 'I' for Inactive)
REMARK    1  A    between atoms: S_4  and  C_1 
REMARK    2  A    between atoms: C_8  and  S_4 
REMARK    3  A    between atoms: C_10  and  C_8 
ROOT
ATOM      1  C   UNL d   1     -48.957  12.638  22.915  0.00  0.00     0.114 A 
ATOM      2  C   UNL d   1     -49.652  12.860  22.536  0.00  0.00     0.042 A 
ATOM      3  N   UNL d   1     -48.978  12.053  23.497  0.00  0.00    -0.217 NA
ATOM      4  N   UNL d   1     -50.390  11.916  23.314  0.00  0.00    -0.224 NA
ATOM      5  C   UNL d   1     -49.694  11.692  23.696  0.00  0.00     0.200 A 
ATOM      6  C   UNL d   1     -50.368  12.498  22.735  0.00  0.00     0.085 A 
ATOM      7  C   UNL d   1     -49.631  13.445  21.954  0.00  0.00     0.004 A 
ATOM      8  C   UNL d   1     -51.064  12.722  22.353  0.00  0.00     0.019 A 
ATOM      9  C   UNL d   1     -50.328  13.668  21.572  0.00  0.00     0.000 A 
ATOM     10  C   UNL d   1     -51.045  13.307  21.772  0.00  0.00     0.002 A 
ENDROOT
BRANCH   1  11
ATOM     11  S   UNL d   1     -48.241  13.000  22.716  0.00  0.00    -0.067 SA
BRANCH  11  12
ATOM     12  C   UNL d   1     -47.554  12.806  23.116  0.00  0.00     0.037 C 
BRANCH  12  13
ATOM     13  C   UNL d   1     -46.831  13.085  22.854  0.00  0.00     0.007 A 
ATOM     14  C   UNL d   1     -46.637  13.892  22.912  0.00  0.00     0.003 A 
ATOM     15  C   UNL d   1     -45.913  14.160  22.648  0.00  0.00     0.030 A 
ATOM     16  C   UNL d   1     -45.375  13.636  22.324  0.00  0.00     0.140 A 
ATOM     17  C   UNL d   1     -45.558  12.840  22.263  0.00  0.00     0.030 A 
ATOM     18  F   UNL d   1     -44.638  13.912  22.055  0.00  0.00    -0.204 F 
ATOM     19  C   UNL d   1     -46.287  12.555  22.526  0.00  0.00     0.003 A 
ENDBRANCH  12  13
ENDBRANCH  11  12
ENDBRANCH   1  11
TORSDOF 3
ENDMDL
MODEL 3
REMARK VINA RESULT:      -6.9      2.136      4.366
REMARK  3 active torsions:
REMARK  status: ('A' for Active; 'I' for Inactive)
REMARK    1  A    between atoms: S_4  and  C_1 
REMARK    2  A    between atoms: C_8  and  S_4 
REMARK    3  A    between atoms: C_10  and  C_8 
ROOT
ATOM      1  C   UNL d   1     -47.400  12.809  23.166  0.00  0.00     0.114 A 
ATOM      2  C   UNL d   1     -46.636  12.913  22.882  0.00  0.00     0.042 A 
ATOM      3  N   UNL d   1     -47.592  12.118  23.574  0.00  0.00    -0.217 NA
ATOM      4  N   UNL d   1     -46.253  11.642  23.410  0.00  0.00    -0.224 NA
ATOM      5  C   UNL d   1     -47.019  11.535  23.696  0.00  0.00     0.200 A 
ATOM      6  C   UNL d   1     -46.062  12.330  23.004  0.00  0.00     0.085 A 
ATOM      7  C   UNL d   1     -46.443  13.604  22.474  0.00  0.00     0.004 A 
ATOM      8  C   UNL d   1     -45.296  12.438  22.718  0.00  0.00     0.019 A 
ATOM      9  C   UNL d   1     -45.676  13.711  22.187  0.00  0.00     0.000 A 
ATOM     10  C   UNL d   1     -45.103  13.128  22.309  0.00  0.00     0.002 A 
ENDROOT
BRANCH   1  11
ATOM     11  S   UNL d   1     -47.972  13.391  23.044  0.00  0.00    -0.067 SA
BRANCH  11  12
ATOM     12  C   UNL d   1     -48.764  13.228  23.176  0.00  0.00     0.037 C 
BRANCH  12  13
ATOM     13  C   UNL d   1     -49.337  13.777  22.977  0.00  0.00     0.007 A 
ATOM     14  C   UNL d   1     -49.985  13.565  22.500  0.00  0.00     0.003 A 
ATOM     15  C   UNL d   1     -50.551  14.120  22.307  0.00  0.00     0.030 A 
ATOM     16  C   UNL d   1     -50.484  14.887  22.582  0.00  0.00     0.140 A 
ATOM     17  C   UNL d   1     -49.850  15.104  23.052  0.00  0.00     0.030 A 
ATOM     18  F   UNL d   1     -51.063  15.451  22.384  0.00  0.00    -0.204 F 
ATOM     19  C   UNL d   1     -49.269  14.553  23.255  0.00  0.00     0.003 A 
ENDBRANCH  12  13
ENDBRANCH  11  12
ENDBRANCH   1  11
TORSDOF 3
ENDMDL
MODEL 4
REMARK VINA RESULT:      -6.1      2.228      4.565
REMARK  3 active torsions:
REMARK  status: ('A' for Active; 'I' for Inactive)
REMARK    1  A    between atoms: S_4  and  C_1 
REMARK    2  A    between atoms: C_8  and  S_4 
REMARK    3  A    between atoms: C_10  and  C_8 
ROOT
ATOM      1  C   UNL d   1     -46.418  12.655  22.980  0.00  0.00     0.114 A 
ATOM      2  C   UNL d   1     -45.666  12.629  22.649  0.00  0.00     0.042 A 
ATOM      3  N   UNL d   1     -46.653  12.063  23.505  0.00  0.00    -0.217 NA
ATOM      4  N   UNL d   1     -45.381  11.425  23.362  0.00  0.00    -0.224 NA
ATOM      5  C   UNL d   1     -46.135  11.448  23.696  0.00  0.00     0.200 A 
ATOM      6  C   UNL d   1     -45.148  12.014  22.840  0.00  0.00     0.085 A 
ATOM      7  C   UNL d   1     -45.431  13.222  22.124  0.00  0.00     0.004 A 
ATOM      8  C   UNL d   1     -44.393  11.991  22.507  0.00  0.00     0.019 A 
ATOM      9  C   UNL d   1     -44.676  13.198  21.791  0.00  0.00     0.000 A 
ATOM     10  C   UNL d   1     -44.158  12.583  21.982  0.00  0.00     0.002 A 
ENDROOT
BRANCH   1  11
ATOM     11  S   UNL d   1     -46.936  13.269  22.789  0.00  0.00    -0.067 SA
BRANCH  11  12
ATOM     12  C   UNL d   1     -47.737  13.198  22.942  0.00  0.00     0.037 C 
BRANCH  12  13
ATOM     13  C   UNL d   1     -48.262  13.761  22.664  0.00  0.00     0.007 A 
ATOM     14  C   UNL d   1     -48.366  14.483  23.065  0.00  0.00     0.003 A 
ATOM     15  C   UNL d   1     -48.892  15.038  22.781  0.00  0.00     0.030 A 
ATOM     16  C   UNL d   1     -49.319  14.887  22.100  0.00  0.00     0.140 A 
ATOM     17  C   UNL d   1     -49.223  14.179  21.699  0.00  0.00     0.030 A 
ATOM     18  F   UNL d   1     -49.855  15.455  21.812  0.00  0.00    -0.204 F 
ATOM     19  C   UNL d   1     -48.694  13.609  21.976  0.00  0.00     0.003 A 
ENDBRANCH  12  13
ENDBRANCH  11  12
ENDBRANCH   1  11
TORSDOF 3
ENDMDL
MODEL 5
REMARK VINA RESULT:      -5.9      1.309      1.876
REMARK  3 active torsions:
REMARK  status: ('A' for Active; 'I' for Inactive)
REMARK    1  A    between atoms: S_4  and  C_1 
REMARK    2  A    between atoms: C_8  and  S_4 
REMARK    3  A    between atoms: C_10  and  C_8 
ROOT
ATOM      1  C   UNL d   1     -48.026  12.904  22.843  0.00  0.00     0.114 A 
ATOM      2  C   UNL d   1     -48.782  12.732  22.573  0.00  0.00     0.042 A 
ATOM      3  N   UNL d   1     -47.832  13.681  23.046  0.00  0.00    -0.217 NA
ATOM      4  N   UNL d   1     -49.155  14.105  22.707  0.00  0.00    -0.224 NA
ATOM      5  C   UNL d   1     -48.397  14.281  22.977  0.00  0.00     0.200 A 
ATOM      6  C   UNL d   1     -49.347  13.332  22.505  0.00  0.00     0.085 A 
ATOM      7  C   UNL d   1     -48.976  11.955  22.371  0.00  0.00     0.004 A 
ATOM      8  C   UNL d   1     -50.106  13.156  22.234  0.00  0.00     0.019 A 
ATOM      9  C   UNL d   1     -49.736  11.780  22.100  0.00  0.00     0.000 A 
ATOM     10  C   UNL d   1     -50.301  12.380  22.032  0.00  0.00     0.002 A 
ENDROOT
BRANCH   1  11
ATOM     11  S   UNL d   1     -47.461  12.305  22.911  0.00  0.00    -0.067 SA
BRANCH  11  12
ATOM     12  C   UNL d   1     -46.753  12.445  23.297  0.00  0.00     0.037 C 
BRANCH  12  13
ATOM     13  C   UNL d   1     -46.176  11.865  23.325  0.00  0.00     0.007 A 
ATOM     14  C   UNL d   1     -45.418  12.001  23.011  0.00  0.00     0.003 A 
ATOM     15  C   UNL d   1     -44.850  11.416  23.044  0.00  0.00     0.030 A 
ATOM     16  C   UNL d   1     -45.024  10.693  23.385  0.00  0.00     0.140 A 
ATOM     17  C   UNL d   1     -45.768  10.551  23.695  0.00  0.00     0.030 A 
ATOM     18  F   UNL d   1     -44.443  10.099  23.416  0.00  0.00    -0.204 F 
ATOM     19  C   UNL d   1     -46.353  11.134  23.669  0.00  0.00     0.003 A 
ENDBRANCH  12  13
ENDBRANCH  11  12
ENDBRANCH   1  11
TORSDOF 3
ENDMDL
MODEL 6
REMARK VINA RESULT:      -5.6      8.561     10.455
REMARK  3 active torsions:
REMARK  status: ('A' for Active; 'I' for Inactive)
REMARK    1  A    between atoms: S_4  and  C_1 
REMARK    2  A    between atoms: C_8  and  S_4 
REMARK    3  A    between atoms: C_10  and  C_8 
ROOT
ATOM      1  C   UNL d   1     -39.188  14.968  17.707  0.00  0.00     0.114 A 
ATOM      2  C   UNL d   1     -38.873  14.261  17.430  0.00  0.00     0.042 A 
ATOM      3  N   UNL d   1     -39.256  15.613  17.197  0.00  0.00    -0.217 NA
ATOM      4  N   UNL d   1     -38.691  14.837  16.135  0.00  0.00    -0.224 NA
ATOM      5  C   UNL d   1     -39.007  15.548  16.411  0.00  0.00     0.200 A 
ATOM      6  C   UNL d   1     -38.625  14.196  16.644  0.00  0.00     0.085 A 
ATOM      7  C   UNL d   1     -38.805  13.617  17.941  0.00  0.00     0.004 A 
ATOM      8  C   UNL d   1     -38.309  13.486  16.369  0.00  0.00     0.019 A 
ATOM      9  C   UNL d   1     -38.489  12.906  17.664  0.00  0.00     0.000 A 
ATOM     10  C   UNL d   1     -38.241  12.841  16.878  0.00  0.00     0.002 A 
ENDROOT
BRANCH   1  11
ATOM     11  S   UNL d   1     -39.436  15.033  18.492  0.00  0.00    -0.067 SA
BRANCH  11  12
ATOM     12  C   UNL d   1     -39.853  15.693  18.741  0.00  0.00     0.037 C 
BRANCH  12  13
ATOM     13  C   UNL d   1     -40.110  15.750  19.517  0.00  0.00     0.007 A 
ATOM     14  C   UNL d   1     -39.568  15.848  20.140  0.00  0.00     0.003 A 
ATOM     15  C   UNL d   1     -39.835  15.904  20.910  0.00  0.00     0.030 A 
ATOM     16  C   UNL d   1     -40.636  15.864  21.070  0.00  0.00     0.140 A 
ATOM     17  C   UNL d   1     -41.175  15.768  20.462  0.00  0.00     0.030 A 
ATOM     18  F   UNL d   1     -40.904  15.922  21.856  0.00  0.00    -0.204 F 
ATOM     19  C   UNL d   1     -40.920  15.709  19.679  0.00  0.00     0.003 A 
ENDBRANCH  12  13
ENDBRANCH  11  12
ENDBRANCH   1  11
TORSDOF 3
ENDMDL
MODEL 7
REMARK VINA RESULT:      -5.6      8.160      9.988
REMARK  3 active torsions:
REMARK  status: ('A' for Active; 'I' for Inactive)
REMARK    1  A    between atoms: S_4  and  C_1 
REMARK    2  A    between atoms: C_8  and  S_4 
REMARK    3  A    between atoms: C_10  and  C_8 
ROOT
ATOM      1  C   UNL d   1     -40.018  14.690  19.758  0.00  0.00     0.114 A 
ATOM      2  C   UNL d   1     -39.698  15.099  20.395  0.00  0.00     0.042 A 
ATOM      3  N   UNL d   1     -40.783  14.384  19.811  0.00  0.00    -0.217 NA
ATOM      4  N   UNL d   1     -40.901  14.900  21.141  0.00  0.00    -0.224 NA
ATOM      5  C   UNL d   1     -41.224  14.489  20.503  0.00  0.00     0.200 A 
ATOM      6  C   UNL d   1     -40.140  15.204  21.086  0.00  0.00     0.085 A 
ATOM      7  C   UNL d   1     -38.934  15.405  20.341  0.00  0.00     0.004 A 
ATOM      8  C   UNL d   1     -39.816  15.615  21.724  0.00  0.00     0.019 A 
ATOM      9  C   UNL d   1     -38.611  15.816  20.980  0.00  0.00     0.000 A 
ATOM     10  C   UNL d   1     -39.052  15.921  21.671  0.00  0.00     0.002 A 
ENDROOT
BRANCH   1  11
ATOM     11  S   UNL d   1     -39.577  14.585  19.067  0.00  0.00    -0.067 SA
BRANCH  11  12
ATOM     12  C   UNL d   1     -39.885  14.159  18.440  0.00  0.00     0.037 C 
BRANCH  12  13
ATOM     13  C   UNL d   1     -39.437  14.032  17.767  0.00  0.00     0.007 A 
ATOM     14  C   UNL d   1     -38.968  13.350  17.688  0.00  0.00     0.003 A 
ATOM     15  C   UNL d   1     -38.524  13.233  17.013  0.00  0.00     0.030 A 
ATOM     16  C   UNL d   1     -38.540  13.786  16.411  0.00  0.00     0.140 A 
ATOM     17  C   UNL d   1     -38.999  14.460  16.481  0.00  0.00     0.030 A 
ATOM     18  F   UNL d   1     -38.087  13.664  15.724  0.00  0.00    -0.204 F 
ATOM     19  C   UNL d   1     -39.453  14.592  17.158  0.00  0.00     0.003 A 
ENDBRANCH  12  13
ENDBRANCH  11  12
ENDBRANCH   1  11
TORSDOF 3
ENDMDL
MODEL 8
REMARK VINA RESULT:      -5.3      9.198      9.704
REMARK  3 active torsions:
REMARK  status: ('A' for Active; 'I' for Inactive)
REMARK    1  A    between atoms: S_4  and  C_1 
REMARK    2  A    between atoms: C_8  and  S_4 
REMARK    3  A    between atoms: C_10  and  C_8 
ROOT
ATOM      1  C   UNL d   1     -39.567  14.428  18.790  0.00  0.00     0.114 A 
ATOM      2  C   UNL d   1     -40.034  14.843  18.256  0.00  0.00     0.042 A 
ATOM      3  N   UNL d   1     -39.126  13.781  18.529  0.00  0.00    -0.217 NA
ATOM      4  N   UNL d   1     -39.624  13.970  17.201  0.00  0.00    -0.224 NA
ATOM      5  C   UNL d   1     -39.154  13.552  17.735  0.00  0.00     0.200 A 
ATOM      6  C   UNL d   1     -40.063  14.613  17.461  0.00  0.00     0.085 A 
ATOM      7  C   UNL d   1     -40.476  15.490  18.516  0.00  0.00     0.004 A 
ATOM      8  C   UNL d   1     -40.533  15.031  16.928  0.00  0.00     0.019 A 
ATOM      9  C   UNL d   1     -40.945  15.907  17.981  0.00  0.00     0.000 A 
ATOM     10  C   UNL d   1     -40.974  15.678  17.187  0.00  0.00     0.002 A 
ENDROOT
BRANCH   1  11
ATOM     11  S   UNL d   1     -39.539  14.657  19.583  0.00  0.00    -0.067 SA
BRANCH  11  12
ATOM     12  C   UNL d   1     -39.019  14.293  20.100  0.00  0.00     0.037 C 
BRANCH  12  13
ATOM     13  C   UNL d   1     -38.994  14.518  20.887  0.00  0.00     0.007 A 
ATOM     14  C   UNL d   1     -38.576  15.197  21.124  0.00  0.00     0.003 A 
ATOM     15  C   UNL d   1     -38.558  15.413  21.911  0.00  0.00     0.030 A 
ATOM     16  C   UNL d   1     -38.950  14.962  22.469  0.00  0.00     0.140 A 
ATOM     17  C   UNL d   1     -39.364  14.293  22.244  0.00  0.00     0.030 A 
ATOM     18  F   UNL d   1     -38.929  15.185  23.271  0.00  0.00    -0.204 F 
ATOM     19  C   UNL d   1     -39.391  14.063  21.451  0.00  0.00     0.003 A 
ENDBRANCH  12  13
ENDBRANCH  11  12
ENDBRANCH   1  11
TORSDOF 3
ENDMDL
MODEL 9
REMARK VINA RESULT:      -5.3      2.575      4.977
REMARK  3 active torsions:
REMARK  status: ('A' for Active; 'I' for Inactive)
REMARK    1  A    between atoms: S_4  and  C_1 
REMARK    2  A    between atoms: C_8  and  S_4 
REMARK    3  A    between atoms: C_10  and  C_8 
ROOT
ATOM      1  C   UNL d   1     -45.222  12.281  22.599  0.00  0.00     0.114 A 
ATOM      2  C   UNL d   1     -44.963  11.577  22.934  0.00  0.00     0.042 A 
ATOM      3  N   UNL d   1     -44.692  12.749  22.172  0.00  0.00    -0.217 NA
ATOM      4  N   UNL d   1     -43.649  11.802  22.420  0.00  0.00    -0.224 NA
ATOM      5  C   UNL d   1     -43.906  12.510  22.083  0.00  0.00     0.200 A 
ATOM      6  C   UNL d   1     -44.176  11.337  22.844  0.00  0.00     0.085 A 
ATOM      7  C   UNL d   1     -45.492  11.109  23.360  0.00  0.00     0.004 A 
ATOM      8  C   UNL d   1     -43.919  10.630  23.181  0.00  0.00     0.019 A 
ATOM      9  C   UNL d   1     -45.234  10.401  23.697  0.00  0.00     0.000 A 
ATOM     10  C   UNL d   1     -44.447  10.162  23.608  0.00  0.00     0.002 A 
ENDROOT
BRANCH   1  11
ATOM     11  S   UNL d   1     -46.007  12.521  22.688  0.00  0.00    -0.067 SA
BRANCH  11  12
ATOM     12  C   UNL d   1     -46.260  13.236  22.380  0.00  0.00     0.037 C 
BRANCH  12  13
ATOM     13  C   UNL d   1     -47.041  13.468  22.462  0.00  0.00     0.007 A 
ATOM     14  C   UNL d   1     -47.646  13.086  22.038  0.00  0.00     0.003 A 
ATOM     15  C   UNL d   1     -48.421  13.325  22.126  0.00  0.00     0.030 A 
ATOM     16  C   UNL d   1     -48.606  13.940  22.632  0.00  0.00     0.140 A 
ATOM     17  C   UNL d   1     -48.016  14.321  23.052  0.00  0.00     0.030 A 
ATOM     18  F   UNL d   1     -49.398  14.181  22.719  0.00  0.00    -0.204 F 
ATOM     19  C   UNL d   1     -47.227  14.090  22.973  0.00  0.00     0.003 A 
ENDBRANCH  12  13
ENDBRANCH  11  12
ENDBRANCH   1  11
TORSDOF 3
ENDMDL
