MODEL 1
REMARK VINA RESULT:      58.4      0.000      0.000
REMARK  6 active torsions:
REMARK  status: ('A' for Active; 'I' for Inactive)
REMARK    1  A    between atoms: N_3  and  C_1 
REMARK       I    between atoms: C_4  and  N_3 
REMARK       I    between atoms: N_10  and  C_4 
REMARK    2  A    between atoms: C_7  and  C_5 
REMARK    3  A    between atoms: C_9  and  C_7 
REMARK       I    between atoms: N_12  and  C_9 
REMARK    4  A    between atoms: C_14  and  N_10 
REMARK    5  A    between atoms: C_19  and  N_12 
REMARK    6  A    between atoms: C_17  and  C_19 
ROOT
ATOM      1  C   UNL d   1     -55.657-102.197 -40.301  0.00  0.00     0.199 A 
ATOM      2  N   UNL d   1     -54.988-102.036 -40.760  0.00  0.00    -0.220 NA
ATOM      3  C   UNL d   1     -55.221-101.546 -41.377  0.00  0.00     0.095 A 
ATOM      4  S   UNL d   1     -56.293-101.815 -40.626  0.00  0.00    -0.046 SA
ATOM      5  C   UNL d   1     -56.032-101.409 -41.294  0.00  0.00     0.058 A 
ENDROOT
BRANCH   1   6
ATOM      6  N   UNL d   1     -55.680-102.675 -39.614  0.00  0.00    -0.166 NA
ATOM      7  C   UNL d   1     -55.506-102.340 -38.869  0.00  0.00     0.370 C 
ATOM      8  N   UNL d   1     -55.526-102.803 -38.184  0.00  0.00    -0.191 NA
ATOM      9  O   UNL d   1     -55.311-101.534 -38.809  0.00  0.00    -0.242 OA
BRANCH   8  10
ATOM     10  C   UNL d   1     -55.357-102.481 -37.449  0.00  0.00     0.087 A 
ATOM     11  C   UNL d   1     -55.641-102.831 -36.759  0.00  0.00     0.031 A 
ATOM     12  C   UNL d   1     -55.475-102.514 -36.030  0.00  0.00     0.059 A 
ATOM     13 CL   UNL d   1     -55.764-102.871 -35.340  0.00  0.00    -0.082 Cl
ATOM     14  C   UNL d   1     -55.009-101.823 -35.978  0.00  0.00     0.011 A 
ATOM     15  C   UNL d   1     -54.725-101.474 -36.668  0.00  0.00     0.002 A 
ATOM     16  C   UNL d   1     -54.899-101.802 -37.406  0.00  0.00     0.019 A 
ENDBRANCH   8  10
ENDBRANCH   1   6
BRANCH   3  17
ATOM     17  C   UNL d   1     -54.728-101.246 -41.974  0.00  0.00     0.082 C 
BRANCH  17  18
ATOM     18  C   UNL d   1     -54.939-101.323 -42.783  0.00  0.00     0.281 C 
ATOM     19  N   UNL d   1     -55.153-100.663 -43.229  0.00  0.00    -0.205 NA
ATOM     20  O   UNL d   1     -54.926-102.076 -43.122  0.00  0.00    -0.265 OA
BRANCH  19  21
ATOM     21  C   UNL d   1     -55.357-100.749 -44.020  0.00  0.00     0.121 C 
BRANCH  21  22
ATOM     22  C   UNL d   1     -55.588-100.111 -44.460  0.00  0.00     0.101 A 
ATOM     23  N   UNL d   1     -56.399 -99.984 -44.626  0.00  0.00    -0.242 NA
ATOM     24  C   UNL d   1     -56.624 -99.332 -45.076  0.00  0.00     0.099 A 
ATOM     25  C   UNL d   1     -56.062 -98.804 -45.363  0.00  0.00     0.021 A 
ATOM     26  C   UNL d   1     -55.261 -98.928 -45.200  0.00  0.00     0.003 A 
ATOM     27  C   UNL d   1     -55.034 -99.586 -44.746  0.00  0.00     0.021 A 
ENDBRANCH  21  22
ENDBRANCH  19  21
ENDBRANCH  17  18
ENDBRANCH   3  17
TORSDOF 6
ENDMDL
