MODEL 1
REMARK VINA RESULT:      63.1      0.000      0.000
REMARK  4 active torsions:
REMARK  status: ('A' for Active; 'I' for Inactive)
REMARK    1  A    between atoms: C_11  and  C_3 
REMARK    2  A    between atoms: N_10  and  C_4 
REMARK    3  A    between atoms: C_15  and  N_10 
REMARK    4  A    between atoms: C_16  and  C_15 
ROOT
ATOM      1  C   UNL d   1     -57.213 -99.023 -44.315  0.00  0.00     0.167 A 
ATOM      2  N   UNL d   1     -56.716 -99.100 -43.631  0.00  0.00    -0.195 N 
ATOM      3  C   UNL d   1     -58.019 -99.057 -44.237  0.00  0.00     0.057 A 
ATOM      4  C   UNL d   1     -55.917 -99.064 -43.726  0.00  0.00     0.167 A 
ATOM      5  N   UNL d   1     -57.874 -99.241 -42.822  0.00  0.00    -0.161 NA
ATOM      6  N   UNL d   1     -56.878 -98.915 -45.049  0.00  0.00    -0.227 NA
ATOM      7  C   UNL d   1     -55.569 -98.955 -44.464  0.00  0.00     0.058 A 
ATOM      8  C   UNL d   1     -58.356 -99.167 -43.485  0.00  0.00     0.124 A 
ATOM      9  C   UNL d   1     -56.059 -98.880 -45.137  0.00  0.00     0.086 A 
ATOM     10  C   UNL d   1     -55.705 -98.766 -45.911  0.00  0.00     0.021 C 
ENDROOT
BRANCH   4  11
ATOM     11  N   UNL d   1     -55.411 -99.141 -43.037  0.00  0.00    -0.224 NA
BRANCH  11  12
ATOM     12  C   UNL d   1     -54.712 -99.552 -42.757  0.00  0.00     0.120 C 
BRANCH  12  13
ATOM     13  C   UNL d   1     -54.732-100.399 -42.637  0.00  0.00     0.101 A 
ATOM     14  N   UNL d   1     -54.767-100.920 -43.324  0.00  0.00    -0.242 NA
ATOM     15  C   UNL d   1     -54.787-101.767 -43.203  0.00  0.00     0.099 A 
ATOM     16  C   UNL d   1     -54.773-102.091 -42.407  0.00  0.00     0.021 A 
ATOM     17  C   UNL d   1     -54.739-101.568 -41.732  0.00  0.00     0.003 A 
ATOM     18  C   UNL d   1     -54.719-100.719 -41.853  0.00  0.00     0.021 A 
ENDBRANCH  12  13
ENDBRANCH  11  12
ENDBRANCH   4  11
BRANCH   3  19
ATOM     19  C   UNL d   1     -58.501 -98.982 -44.901  0.00  0.00     0.005 A 
ATOM     20  C   UNL d   1     -59.303 -98.887 -44.810  0.00  0.00     0.001 A 
ATOM     21  C   UNL d   1     -59.785 -98.812 -45.473  0.00  0.00     0.011 A 
ATOM     22  C   UNL d   1     -59.456 -98.834 -46.217  0.00  0.00     0.058 A 
ATOM     23  C   UNL d   1     -58.646 -98.931 -46.297  0.00  0.00     0.011 A 
ATOM     24 CL   UNL d   1     -59.961 -98.756 -46.911  0.00  0.00    -0.082 Cl
ATOM     25  C   UNL d   1     -58.172 -99.004 -45.645  0.00  0.00     0.001 A 
ENDBRANCH   3  19
TORSDOF 4
ENDMDL
