MODEL 1
REMARK VINA RESULT:       8.6      0.000      0.000
REMARK  8 active torsions:
REMARK  status: ('A' for Active; 'I' for Inactive)
REMARK    1  A    between atoms: C_11  and  N_1 
REMARK    2  A    between atoms: S_10  and  C_2 
REMARK    3  A    between atoms: N_8  and  C_9 
REMARK    4  A    between atoms: C_18  and  S_10 
REMARK    5  A    between atoms: C_19  and  C_11 
REMARK    6  A    between atoms: C_13  and  C_18 
REMARK    7  A    between atoms: O_20  and  C_13 
REMARK    8  A    between atoms: C_25  and  O_20 
ROOT
ATOM      1  N   UNL d   1     -41.890-121.668 -52.138  0.00  0.00    -0.253 N 
ATOM      2  C   UNL d   1     -41.507-122.261 -52.547  0.00  0.00     0.182 A 
ATOM      3  C   UNL d   1     -42.032-121.747 -51.319  0.00  0.00     0.268 A 
ATOM      4  C   UNL d   1     -41.774-122.449 -50.922  0.00  0.00     0.076 A 
ATOM      5  N   UNL d   1     -41.248-122.962 -52.148  0.00  0.00    -0.222 NA
ATOM      6  C   UNL d   1     -41.384-123.049 -51.341  0.00  0.00     0.088 A 
ATOM      7  C   UNL d   1     -41.918-122.523 -50.101  0.00  0.00     0.024 A 
ATOM      8  C   UNL d   1     -41.665-123.208 -49.716  0.00  0.00     0.065 A 
ATOM      9  O   UNL d   1     -42.420-121.150 -50.901  0.00  0.00    -0.267 OA
ATOM     10  C   UNL d   1     -41.139-123.723 -50.941  0.00  0.00     0.021 A 
ATOM     11  C   UNL d   1     -41.275-123.811 -50.131  0.00  0.00     0.019 A 
ENDROOT
BRANCH   1  12
ATOM     12  C   UNL d   1     -42.141-120.987 -52.525  0.00  0.00     0.085 C 
BRANCH  12  13
ATOM     13  C   UNL d   1     -41.799-120.260 -52.343  0.00  0.00     0.018 A 
ATOM     14  C   UNL d   1     -41.469-120.139 -51.603  0.00  0.00     0.002 A 
ATOM     15  C   UNL d   1     -41.128-119.407 -51.429  0.00  0.00     0.000 A 
ATOM     16  C   UNL d   1     -41.123-118.810 -51.993  0.00  0.00     0.000 A 
ATOM     17  C   UNL d   1     -41.454-118.933 -52.734  0.00  0.00     0.000 A 
ATOM     18  C   UNL d   1     -41.794-119.663 -52.908  0.00  0.00     0.002 A 
ENDBRANCH  12  13
ENDBRANCH   1  12
BRANCH   2  19
ATOM     19  S   UNL d   1     -41.367-122.184 -53.350  0.00  0.00    -0.044 SA
BRANCH  19  20
ATOM     20  C   UNL d   1     -41.699-122.715 -53.879  0.00  0.00     0.107 C 
BRANCH  20  21
ATOM     21  C   UNL d   1     -41.406-122.780 -54.654  0.00  0.00     0.307 C 
ATOM     22  O   UNL d   1     -41.126-123.497 -54.936  0.00  0.00    -0.258 OA
BRANCH  21  23
ATOM     23  O   UNL d   1     -41.399-122.118 -55.136  0.00  0.00    -0.271 OA
BRANCH  23  24
ATOM     24  C   UNL d   1     -41.771-122.141 -55.870  0.00  0.00     0.126 C 
ATOM     25  C   UNL d   1     -42.182-121.477 -56.151  0.00  0.00     0.029 C 
ENDBRANCH  23  24
ENDBRANCH  21  23
ENDBRANCH  20  21
ENDBRANCH  19  20
ENDBRANCH   2  19
BRANCH   8  26
ATOM     26  N   UNL d   1     -41.802-123.292 -48.909  0.00  0.00    -0.300 N 
ATOM     27  C   UNL d   1     -42.570-123.359 -48.625  0.00  0.00     0.107 A 
ATOM     28  C   UNL d   1     -42.707-123.443 -47.812  0.00  0.00     0.142 A 
ATOM     29  O   UNL d   1     -42.072-123.460 -47.290  0.00  0.00    -0.300 OA
ATOM     30  C   UNL d   1     -41.305-123.393 -47.573  0.00  0.00     0.142 A 
ATOM     31  C   UNL d   1     -41.167-123.310 -48.376  0.00  0.00     0.107 A 
ENDBRANCH   8  26
TORSDOF 8
ENDMDL
