MODEL 1
REMARK VINA RESULT:      15.6      0.000      0.000
REMARK  2 active torsions:
REMARK  status: ('A' for Active; 'I' for Inactive)
REMARK    1  A    between atoms: C_2  and  N_1 
REMARK    2  A    between atoms: O_12  and  C_10 
ROOT
ATOM      1  C   UNL d   1      58.920  49.707  50.474  0.00  0.00     0.072 A 
ATOM      2  C   UNL d   1      58.226  49.707  50.915  0.00  0.00     0.042 A 
ATOM      3  C   UNL d   1      57.504  49.707  50.518  0.00  0.00     0.096 A 
ATOM      4  C   UNL d   1      58.888  49.706  49.648  0.00  0.00     0.018 A 
ATOM      5  C   UNL d   1      58.186  49.706  49.257  0.00  0.00     0.004 A 
ATOM      6  C   UNL d   1      57.467  49.707  49.696  0.00  0.00     0.024 A 
ENDROOT
BRANCH   1   7
ATOM      7  N   UNL d   1      59.645  49.707  50.870  0.00  0.00    -0.242 N 
ATOM      8  C   UNL d   1      59.760  49.706  51.675  0.00  0.00     0.267 A 
ATOM      9  C   UNL d   1      60.571  49.706  51.828  0.00  0.00     0.066 A 
ATOM     10  O   UNL d   1      59.165  49.706  52.247  0.00  0.00    -0.267 OA
ATOM     11  C   UNL d   1      60.963  49.707  51.095  0.00  0.00     0.066 A 
ATOM     12  C   UNL d   1      60.392  49.707  50.493  0.00  0.00     0.267 A 
ATOM     13  O   UNL d   1      60.538  49.707  49.687  0.00  0.00    -0.267 OA
ENDBRANCH   1   7
BRANCH   3  14
ATOM     14  O   UNL d   1      56.796  49.708  50.961  0.00  0.00    -0.328 OA
ATOM     15  C   UNL d   1      56.088  49.688  50.564  0.00  0.00     0.181 C 
ENDBRANCH   3  14
TORSDOF 2
ENDMDL
