MODEL 1
REMARK VINA RESULT:      46.8      0.000      0.000
REMARK  3 active torsions:
REMARK  status: ('A' for Active; 'I' for Inactive)
REMARK    1  A    between atoms: C_9  and  N_1 
REMARK       I    between atoms: C_8  and  N_2 
REMARK    2  A    between atoms: C_3  and  C_9 
REMARK    3  A    between atoms: C_13  and  C_8 
ROOT
ATOM      1  N   UNL d   1      45.350 -15.762  44.045  0.00  0.00    -0.193 N 
ATOM      2  C   UNL d   1      45.477 -17.093  44.056  0.00  0.00     0.055 A 
ATOM      3  N   UNL d   1      46.000 -15.960  44.535  0.00  0.00    -0.163 NA
ATOM      4  C   UNL d   1      45.039 -16.462  43.758  0.00  0.00     0.089 A 
ATOM      5  C   UNL d   1      45.085 -14.999  43.890  0.00  0.00     0.303 C 
ATOM      6  C   UNL d   1      46.070 -16.785  44.535  0.00  0.00     0.104 A 
ATOM      7  O   UNL d   1      44.429 -14.895  43.388  0.00  0.00    -0.263 OA
ATOM      8  C   UNL d   1      44.388 -16.518  43.250  0.00  0.00     0.021 C 
ATOM      9  C   UNL d   1      46.642 -17.217  44.950  0.00  0.00     0.023 C 
ENDROOT
BRANCH   2  10
ATOM     10  C   UNL d   1      45.341 -17.900  43.898  0.00  0.00     0.089 C 
BRANCH  10  11
ATOM     11  N   UNL d   1      45.559 -18.223  43.169  0.00  0.00    -0.240 N 
ATOM     12  C   UNL d   1      46.143 -18.784  43.049  0.00  0.00     0.267 A 
ATOM     13  C   UNL d   1      46.169 -18.943  42.237  0.00  0.00     0.061 A 
ATOM     14  O   UNL d   1      46.616 -19.127  43.633  0.00  0.00    -0.267 OA
ATOM     15  C   UNL d   1      46.642 -19.454  41.800  0.00  0.00     0.005 A 
ATOM     16  C   UNL d   1      45.607 -18.483  41.862  0.00  0.00     0.061 A 
ATOM     17  C   UNL d   1      46.550 -19.504  40.984  0.00  0.00     0.000 A 
ATOM     18  C   UNL d   1      45.984 -19.041  40.603  0.00  0.00     0.000 A 
ATOM     19  C   UNL d   1      45.510 -18.528  41.041  0.00  0.00     0.005 A 
ATOM     20  C   UNL d   1      45.221 -18.030  42.435  0.00  0.00     0.267 A 
ATOM     21  O   UNL d   1      44.612 -17.486  42.300  0.00  0.00    -0.267 OA
ENDBRANCH  10  11
ENDBRANCH   2  10
BRANCH   5  22
ATOM     22  C   UNL d   1      45.468 -14.353  44.228  0.00  0.00     0.158 A 
ATOM     23  O   UNL d   1      46.282 -14.283  44.348  0.00  0.00    -0.300 OA
ATOM     24  C   UNL d   1      46.421 -13.551  44.701  0.00  0.00     0.123 A 
ATOM     25  C   UNL d   1      45.705 -13.172  44.798  0.00  0.00     0.029 A 
ATOM     26  C   UNL d   1      45.110 -13.669  44.505  0.00  0.00     0.032 A 
ENDBRANCH   5  22
TORSDOF 3
ENDMDL
