MODEL 1
REMARK VINA RESULT:      -3.7      0.000      0.000
REMARK  6 active torsions:
REMARK  status: ('A' for Active; 'I' for Inactive)
REMARK    1  A    between atoms: O_4  and  C_1 
REMARK    2  A    between atoms: C_9  and  C_2 
REMARK    3  A    between atoms: C_5  and  O_4 
REMARK    4  A    between atoms: C_11  and  C_5 
REMARK    5  A    between atoms: N_10  and  C_9 
REMARK    6  A    between atoms: O_19  and  C_17 
ROOT
ATOM      1  C   UNL d   1      59.033  -0.648  29.770  0.00  0.00     0.122 A 
ATOM      2  C   UNL d   1      59.084  -1.081  29.069  0.00  0.00     0.043 A 
ATOM      3  C   UNL d   1      59.679  -0.206  30.028  0.00  0.00     0.105 A 
ATOM      4  C   UNL d   1      60.375  -0.195  29.586  0.00  0.00     0.030 A 
ATOM      5  C   UNL d   1      60.417  -0.628  28.891  0.00  0.00     0.059 A 
ATOM      6  C   UNL d   1      59.779  -1.070  28.628  0.00  0.00     0.015 A 
ATOM      7  N   UNL d   1      59.625   0.222  30.723  0.00  0.00    -0.242 NA
ATOM      8 CL   UNL d   1      61.132  -0.602  28.460  0.00  0.00    -0.082 Cl
ATOM      9  C   UNL d   1      61.010   0.243  29.844  0.00  0.00     0.004 A 
ATOM     10  C   UNL d   1      60.272   0.665  30.981  0.00  0.00     0.099 A 
ATOM     11  C   UNL d   1      60.967   0.675  30.539  0.00  0.00     0.021 A 
ENDROOT
BRANCH   1  12
ATOM     12  O   UNL d   1      58.407  -0.651  30.178  0.00  0.00    -0.271 OA
BRANCH  12  13
ATOM     13  C   UNL d   1      57.654  -0.091  30.396  0.00  0.00     0.300 C 
ATOM     14  O   UNL d   1      57.382   0.535  29.659  0.00  0.00    -0.259 OA
BRANCH  13  15
ATOM     15  C   UNL d   1      57.282  -0.138  31.129  0.00  0.00     0.066 A 
ATOM     16  C   UNL d   1      56.980  -0.867  31.393  0.00  0.00     0.029 A 
ATOM     17  C   UNL d   1      56.604  -0.912  32.136  0.00  0.00     0.094 A 
ATOM     18  C   UNL d   1      56.529  -0.232  32.615  0.00  0.00     0.024 A 
ATOM     19  C   UNL d   1      56.831   0.493  32.347  0.00  0.00     0.002 A 
ATOM     20  C   UNL d   1      57.207   0.537  31.605  0.00  0.00     0.005 A 
BRANCH  17  21
ATOM     21  O   UNL d   1      56.331  -1.683  32.321  0.00  0.00    -0.328 OA
ATOM     22  C   UNL d   1      55.718  -1.492  32.871  0.00  0.00     0.181 C 
ENDBRANCH  17  21
ENDBRANCH  13  15
ENDBRANCH  12  13
ENDBRANCH   1  12
BRANCH   2  23
ATOM     23  C   UNL d   1      58.491  -1.616  28.634  0.00  0.00     0.082 C 
BRANCH  23  24
ATOM     24  N   UNL d   1      58.634  -2.423  28.586  0.00  0.00    -0.299 N 
ATOM     25  C   UNL d   1      59.396  -2.704  28.536  0.00  0.00     0.107 A 
ATOM     26  C   UNL d   1      59.542  -3.509  28.488  0.00  0.00     0.142 A 
ATOM     27  O   UNL d   1      58.904  -4.038  28.491  0.00  0.00    -0.300 OA
ATOM     28  C   UNL d   1      58.138  -3.762  28.540  0.00  0.00     0.142 A 
ATOM     29  C   UNL d   1      58.008  -2.947  28.588  0.00  0.00     0.107 A 
ENDBRANCH  23  24
ENDBRANCH   2  23
TORSDOF 6
ENDMDL
