MODEL 1
REMARK VINA RESULT:      37.5      0.000      0.000
REMARK  8 active torsions:
REMARK  status: ('A' for Active; 'I' for Inactive)
REMARK    1  A    between atoms: N_6  and  C_1 
REMARK    2  A    between atoms: N_2  and  C_3 
REMARK       I    between atoms: C_4  and  N_2 
REMARK    3  A    between atoms: C_3  and  N_6 
REMARK    4  A    between atoms: C_10  and  C_4 
REMARK    5  A    between atoms: C_9  and  C_7 
REMARK    6  A    between atoms: C_12  and  C_9 
REMARK    7  A    between atoms: O_17  and  C_12 
REMARK    8  A    between atoms: C_21  and  O_17 
ROOT
ATOM      1  C   UNL d   1     -55.988 -98.870 -44.701  0.00  0.00     0.225 C 
ATOM      2  S   UNL d   1     -55.450 -98.777 -45.320  0.00  0.00    -0.037 SA
ENDROOT
BRANCH   1   3
ATOM      3  N   UNL d   1     -56.831 -98.858 -44.854  0.00  0.00    -0.179 NA
ATOM      4  C   UNL d   1     -57.362 -98.802 -44.207  0.00  0.00     0.281 C 
ATOM      5  O   UNL d   1     -57.053 -98.760 -43.411  0.00  0.00    -0.265 OA
BRANCH   4   6
ATOM      6  C   UNL d   1     -58.168 -98.787 -44.309  0.00  0.00     0.058 A 
ATOM      7  C   UNL d   1     -58.675 -98.784 -43.683  0.00  0.00     0.005 A 
ATOM      8  C   UNL d   1     -58.372 -98.797 -42.918  0.00  0.00     0.000 C 
ATOM      9  C   UNL d   1     -59.479 -98.769 -43.808  0.00  0.00     0.000 A 
ATOM     10  C   UNL d   1     -59.780 -98.757 -44.586  0.00  0.00     0.000 A 
ATOM     11  C   UNL d   1     -59.281 -98.759 -45.251  0.00  0.00     0.000 A 
ATOM     12  C   UNL d   1     -58.452 -98.775 -45.122  0.00  0.00     0.005 A 
ENDBRANCH   4   6
ENDBRANCH   1   3
BRANCH   1  13
ATOM     13  N   UNL d   1     -55.745 -98.978 -43.920  0.00  0.00    -0.192 NA
BRANCH  13  14
ATOM     14  C   UNL d   1     -55.385 -99.706 -43.724  0.00  0.00     0.196 A 
ATOM     15  N   UNL d   1     -55.316-100.420 -44.159  0.00  0.00    -0.220 NA
ATOM     16  C   UNL d   1     -54.910-100.956 -43.703  0.00  0.00     0.095 A 
ATOM     17  C   UNL d   1     -54.711-100.594 -42.964  0.00  0.00     0.058 A 
ATOM     18  S   UNL d   1     -55.013 -99.824 -42.997  0.00  0.00    -0.046 SA
BRANCH  16  19
ATOM     19  C   UNL d   1     -54.713-101.731 -43.904  0.00  0.00     0.088 C 
BRANCH  19  20
ATOM     20  C   UNL d   1     -55.163-102.170 -44.421  0.00  0.00     0.302 C 
ATOM     21  O   UNL d   1     -55.966-102.278 -44.305  0.00  0.00    -0.259 OA
BRANCH  20  22
ATOM     22  O   UNL d   1     -54.810-102.522 -45.087  0.00  0.00    -0.271 OA
BRANCH  22  23
ATOM     23  C   UNL d   1     -55.337-102.783 -45.721  0.00  0.00     0.126 C 
ATOM     24  C   UNL d   1     -55.349-102.403 -46.322  0.00  0.00     0.029 C 
ENDBRANCH  22  23
ENDBRANCH  20  22
ENDBRANCH  19  20
ENDBRANCH  16  19
ENDBRANCH  13  14
ENDBRANCH   1  13
TORSDOF 8
ENDMDL
