MODEL 1
REMARK VINA RESULT:      -6.3      0.000      0.000
REMARK  5 active torsions:
REMARK  status: ('A' for Active; 'I' for Inactive)
REMARK    1  A    between atoms: S_2  and  C_1 
REMARK    2  A    between atoms: C_9  and  S_2 
REMARK    3  A    between atoms: N_14  and  C_10 
REMARK    4  A    between atoms: C_22  and  N_14 
REMARK    5  A    between atoms: C_23  and  N_14 
ROOT
ATOM      1  C   UNL d   1     -47.489  13.213  22.900  0.00  0.00     0.151 A 
ATOM      2  C   UNL d   1     -46.806  13.524  22.557  0.00  0.00     0.311 A 
ATOM      3  C   UNL d   1     -47.464  12.469  23.268  0.00  0.00     0.019 A 
ATOM      4  O   UNL d   1     -46.098  13.090  22.581  0.00  0.00    -0.272 OA
ATOM      5  C   UNL d   1     -46.078  12.352  22.945  0.00  0.00     0.105 A 
ATOM      6  C   UNL d   1     -46.761  12.042  23.289  0.00  0.00     0.024 A 
ATOM      7  C   UNL d   1     -45.374  11.925  22.967  0.00  0.00     0.042 A 
ATOM      8  C   UNL d   1     -45.354  11.188  23.332  0.00  0.00     0.066 A 
ATOM      9  O   UNL d   1     -46.829  14.265  22.191  0.00  0.00    -0.258 OA
ATOM     10  C   UNL d   1     -46.740  11.304  23.654  0.00  0.00     0.004 A 
ATOM     11  C   UNL d   1     -46.037  10.877  23.675  0.00  0.00     0.018 A 
ENDROOT
BRANCH   1  12
ATOM     12  S   UNL d   1     -48.201  13.641  22.881  0.00  0.00     0.215 S 
ATOM     13  O   UNL d   1     -48.301  13.443  22.074  0.00  0.00    -0.217 OA
ATOM     14  O   UNL d   1     -48.110  13.844  23.688  0.00  0.00    -0.217 OA
BRANCH  12  15
ATOM     15  C   UNL d   1     -48.922  14.073  22.861  0.00  0.00     0.088 A 
ATOM     16  C   UNL d   1     -48.969  14.802  23.240  0.00  0.00     0.011 A 
ATOM     17  C   UNL d   1     -49.672  15.230  23.223  0.00  0.00     0.001 A 
ATOM     18  C   UNL d   1     -50.330  14.926  22.827  0.00  0.00     0.000 A 
ATOM     19  C   UNL d   1     -50.281  14.193  22.447  0.00  0.00     0.001 A 
ATOM     20  C   UNL d   1     -51.048  15.355  22.806  0.00  0.00     0.000 C 
ATOM     21  C   UNL d   1     -49.577  13.766  22.464  0.00  0.00     0.011 A 
ENDBRANCH  12  15
ENDBRANCH   1  12
BRANCH   8  22
ATOM     22  N   UNL d   1     -44.644  10.750  23.357  0.00  0.00    -0.304 N 
BRANCH  22  23
ATOM     23  C   UNL d   1     -44.638   9.994  23.695  0.00  0.00     0.080 C 
ATOM     24  C   UNL d   1     -43.944   9.549  23.698  0.00  0.00     0.021 C 
ENDBRANCH  22  23
BRANCH  22  25
ATOM     25  C   UNL d   1     -43.954  11.075  23.044  0.00  0.00     0.080 C 
ATOM     26  C   UNL d   1     -43.218  10.820  23.314  0.00  0.00     0.021 C 
ENDBRANCH  22  25
ENDBRANCH   8  22
TORSDOF 5
ENDMDL
MODEL 2
REMARK VINA RESULT:      -6.3      1.943      5.086
REMARK  5 active torsions:
REMARK  status: ('A' for Active; 'I' for Inactive)
REMARK    1  A    between atoms: S_2  and  C_1 
REMARK    2  A    between atoms: C_9  and  S_2 
REMARK    3  A    between atoms: N_14  and  C_10 
REMARK    4  A    between atoms: C_22  and  N_14 
REMARK    5  A    between atoms: C_23  and  N_14 
ROOT
ATOM      1  C   UNL d   1     -46.380  13.088  22.526  0.00  0.00     0.151 A 
ATOM      2  C   UNL d   1     -46.577  13.633  23.114  0.00  0.00     0.311 A 
ATOM      3  C   UNL d   1     -46.979  12.654  22.149  0.00  0.00     0.019 A 
ATOM      4  O   UNL d   1     -47.372  13.742  23.324  0.00  0.00    -0.272 OA
ATOM      5  C   UNL d   1     -47.963  13.310  22.949  0.00  0.00     0.105 A 
ATOM      6  C   UNL d   1     -47.766  12.766  22.361  0.00  0.00     0.024 A 
ATOM      7  C   UNL d   1     -48.751  13.422  23.160  0.00  0.00     0.042 A 
ATOM      8  C   UNL d   1     -49.342  12.990  22.784  0.00  0.00     0.066 A 
ATOM      9  O   UNL d   1     -45.981  14.066  23.490  0.00  0.00    -0.258 OA
ATOM     10  C   UNL d   1     -48.358  12.333  21.984  0.00  0.00     0.004 A 
ATOM     11  C   UNL d   1     -49.145  12.445  22.197  0.00  0.00     0.018 A 
ENDROOT
BRANCH   1  12
ATOM     12  S   UNL d   1     -45.586  12.972  22.309  0.00  0.00     0.215 S 
ATOM     13  O   UNL d   1     -45.624  13.640  21.806  0.00  0.00    -0.217 OA
ATOM     14  O   UNL d   1     -45.539  12.303  22.808  0.00  0.00    -0.217 OA
BRANCH  12  15
ATOM     15  C   UNL d   1     -44.783  12.855  22.088  0.00  0.00     0.088 A 
ATOM     16  C   UNL d   1     -44.355  12.239  22.427  0.00  0.00     0.011 A 
ATOM     17  C   UNL d   1     -43.569  12.121  22.215  0.00  0.00     0.001 A 
ATOM     18  C   UNL d   1     -43.210  12.618  21.663  0.00  0.00     0.000 A 
ATOM     19  C   UNL d   1     -43.642  13.237  21.323  0.00  0.00     0.001 A 
ATOM     20  C   UNL d   1     -42.411  12.503  21.442  0.00  0.00     0.000 C 
ATOM     21  C   UNL d   1     -44.429  13.355  21.536  0.00  0.00     0.011 A 
ENDBRANCH  12  15
ENDBRANCH   1  12
BRANCH   8  22
ATOM     22  N   UNL d   1     -50.141  13.098  22.995  0.00  0.00    -0.304 N 
BRANCH  22  23
ATOM     23  C   UNL d   1     -50.642  13.532  22.498  0.00  0.00     0.080 C 
ATOM     24  C   UNL d   1     -51.021  14.207  22.782  0.00  0.00     0.021 C 
ENDBRANCH  22  23
BRANCH  22  25
ATOM     25  C   UNL d   1     -50.426  12.772  23.697  0.00  0.00     0.080 C 
ATOM     26  C   UNL d   1     -51.064  12.250  23.681  0.00  0.00     0.021 C 
ENDBRANCH  22  25
ENDBRANCH   8  22
TORSDOF 5
ENDMDL
MODEL 3
REMARK VINA RESULT:      -5.2      8.659     10.321
REMARK  5 active torsions:
REMARK  status: ('A' for Active; 'I' for Inactive)
REMARK    1  A    between atoms: S_2  and  C_1 
REMARK    2  A    between atoms: C_9  and  S_2 
REMARK    3  A    between atoms: N_14  and  C_10 
REMARK    4  A    between atoms: C_22  and  N_14 
REMARK    5  A    between atoms: C_23  and  N_14 
ROOT
ATOM      1  C   UNL d   1     -38.878  14.282  18.222  0.00  0.00     0.151 A 
ATOM      2  C   UNL d   1     -39.617  14.057  18.512  0.00  0.00     0.311 A 
ATOM      3  C   UNL d   1     -38.317  14.618  18.735  0.00  0.00     0.019 A 
ATOM      4  O   UNL d   1     -39.794  14.167  19.316  0.00  0.00    -0.272 OA
ATOM      5  C   UNL d   1     -39.237  14.500  19.821  0.00  0.00     0.105 A 
ATOM      6  C   UNL d   1     -38.498  14.725  19.531  0.00  0.00     0.024 A 
ATOM      7  C   UNL d   1     -39.417  14.607  20.618  0.00  0.00     0.042 A 
ATOM      8  C   UNL d   1     -38.859  14.940  21.123  0.00  0.00     0.066 A 
ATOM      9  O   UNL d   1     -40.176  13.723  18.003  0.00  0.00    -0.258 OA
ATOM     10  C   UNL d   1     -37.940  15.058  20.036  0.00  0.00     0.004 A 
ATOM     11  C   UNL d   1     -38.121  15.165  20.832  0.00  0.00     0.018 A 
ENDROOT
BRANCH   1  12
ATOM     12  S   UNL d   1     -38.691  14.175  17.419  0.00  0.00     0.215 S 
ATOM     13  O   UNL d   1     -39.000  14.934  17.245  0.00  0.00    -0.217 OA
ATOM     14  O   UNL d   1     -38.381  13.416  17.584  0.00  0.00    -0.217 OA
BRANCH  12  15
ATOM     15  C   UNL d   1     -38.503  14.068  16.607  0.00  0.00     0.088 A 
ATOM     16  C   UNL d   1     -38.540  14.710  16.093  0.00  0.00     0.011 A 
ATOM     17  C   UNL d   1     -38.356  14.610  15.297  0.00  0.00     0.001 A 
ATOM     18  C   UNL d   1     -38.135  13.867  15.015  0.00  0.00     0.000 A 
ATOM     19  C   UNL d   1     -38.098  13.222  15.532  0.00  0.00     0.001 A 
ATOM     20  C   UNL d   1     -37.947  13.758  14.206  0.00  0.00     0.000 C 
ATOM     21  C   UNL d   1     -38.282  13.323  16.329  0.00  0.00     0.011 A 
ENDBRANCH  12  15
ENDBRANCH   1  12
BRANCH   8  22
ATOM     22  N   UNL d   1     -39.036  15.052  21.930  0.00  0.00    -0.304 N 
BRANCH  22  23
ATOM     23  C   UNL d   1     -39.039  14.403  22.444  0.00  0.00     0.080 C 
ATOM     24  C   UNL d   1     -38.610  14.432  23.149  0.00  0.00     0.021 C 
ENDBRANCH  22  23
BRANCH  22  25
ATOM     25  C   UNL d   1     -39.206  15.809  22.209  0.00  0.00     0.080 C 
ATOM     26  C   UNL d   1     -39.445  15.917  22.990  0.00  0.00     0.021 C 
ENDBRANCH  22  25
ENDBRANCH   8  22
TORSDOF 5
ENDMDL
MODEL 4
REMARK VINA RESULT:      -4.8      1.609      5.286
REMARK  5 active torsions:
REMARK  status: ('A' for Active; 'I' for Inactive)
REMARK    1  A    between atoms: S_2  and  C_1 
REMARK    2  A    between atoms: C_9  and  S_2 
REMARK    3  A    between atoms: N_14  and  C_10 
REMARK    4  A    between atoms: C_22  and  N_14 
REMARK    5  A    between atoms: C_23  and  N_14 
ROOT
ATOM      1  C   UNL d   1     -46.997  12.502  22.982  0.00  0.00     0.151 A 
ATOM      2  C   UNL d   1     -46.900  13.130  22.456  0.00  0.00     0.311 A 
ATOM      3  C   UNL d   1     -47.723  12.399  23.373  0.00  0.00     0.019 A 
ATOM      4  O   UNL d   1     -47.528  13.656  22.322  0.00  0.00    -0.272 OA
ATOM      5  C   UNL d   1     -48.246  13.551  22.711  0.00  0.00     0.105 A 
ATOM      6  C   UNL d   1     -48.343  12.923  23.237  0.00  0.00     0.024 A 
ATOM      7  C   UNL d   1     -48.867  14.075  22.576  0.00  0.00     0.042 A 
ATOM      8  C   UNL d   1     -49.584  13.970  22.965  0.00  0.00     0.066 A 
ATOM      9  O   UNL d   1     -46.178  13.233  22.066  0.00  0.00    -0.258 OA
ATOM     10  C   UNL d   1     -49.061  12.818  23.627  0.00  0.00     0.004 A 
ATOM     11  C   UNL d   1     -49.681  13.342  23.491  0.00  0.00     0.018 A 
ENDROOT
BRANCH   1  12
ATOM     12  S   UNL d   1     -46.373  11.970  23.123  0.00  0.00     0.215 S 
ATOM     13  O   UNL d   1     -46.000  12.536  23.613  0.00  0.00    -0.217 OA
ATOM     14  O   UNL d   1     -46.740  11.399  22.634  0.00  0.00    -0.217 OA
BRANCH  12  15
ATOM     15  C   UNL d   1     -45.742  11.434  23.265  0.00  0.00     0.088 A 
ATOM     16  C   UNL d   1     -44.968  11.667  23.113  0.00  0.00     0.011 A 
ATOM     17  C   UNL d   1     -44.347  11.145  23.252  0.00  0.00     0.001 A 
ATOM     18  C   UNL d   1     -44.501  10.388  23.542  0.00  0.00     0.000 A 
ATOM     19  C   UNL d   1     -45.280  10.154  23.694  0.00  0.00     0.001 A 
ATOM     20  C   UNL d   1     -43.874   9.852  23.684  0.00  0.00     0.000 C 
ATOM     21  C   UNL d   1     -45.901  10.678  23.555  0.00  0.00     0.011 A 
ENDBRANCH  12  15
ENDBRANCH   1  12
BRANCH   8  22
ATOM     22  N   UNL d   1     -50.216  14.497  22.831  0.00  0.00    -0.304 N 
BRANCH  22  23
ATOM     23  C   UNL d   1     -50.764  14.340  22.231  0.00  0.00     0.080 C 
ATOM     24  C   UNL d   1     -51.065  14.958  21.774  0.00  0.00     0.021 C 
ENDBRANCH  22  23
BRANCH  22  25
ATOM     25  C   UNL d   1     -50.290  15.172  23.300  0.00  0.00     0.080 C 
ATOM     26  C   UNL d   1     -51.002  15.333  23.683  0.00  0.00     0.021 C 
ENDBRANCH  22  25
ENDBRANCH   8  22
TORSDOF 5
ENDMDL
MODEL 5
REMARK VINA RESULT:      -4.0      8.373     10.496
REMARK  5 active torsions:
REMARK  status: ('A' for Active; 'I' for Inactive)
REMARK    1  A    between atoms: S_2  and  C_1 
REMARK    2  A    between atoms: C_9  and  S_2 
REMARK    3  A    between atoms: N_14  and  C_10 
REMARK    4  A    between atoms: C_22  and  N_14 
REMARK    5  A    between atoms: C_23  and  N_14 
ROOT
ATOM      1  C   UNL d   1     -38.890  14.270  17.695  0.00  0.00     0.151 A 
ATOM      2  C   UNL d   1     -38.656  13.740  18.282  0.00  0.00     0.311 A 
ATOM      3  C   UNL d   1     -39.318  14.952  17.900  0.00  0.00     0.019 A 
ATOM      4  O   UNL d   1     -38.851  13.892  19.075  0.00  0.00    -0.272 OA
ATOM      5  C   UNL d   1     -39.275  14.568  19.275  0.00  0.00     0.105 A 
ATOM      6  C   UNL d   1     -39.508  15.098  18.688  0.00  0.00     0.024 A 
ATOM      7  C   UNL d   1     -39.466  14.715  20.062  0.00  0.00     0.042 A 
ATOM      8  C   UNL d   1     -39.889  15.391  20.262  0.00  0.00     0.066 A 
ATOM      9  O   UNL d   1     -38.231  13.061  18.079  0.00  0.00    -0.258 OA
ATOM     10  C   UNL d   1     -39.933  15.775  18.888  0.00  0.00     0.004 A 
ATOM     11  C   UNL d   1     -40.123  15.921  19.675  0.00  0.00     0.018 A 
ENDROOT
BRANCH   1  12
ATOM     12  S   UNL d   1     -38.700  14.126  16.898  0.00  0.00     0.215 S 
ATOM     13  O   UNL d   1     -38.014  14.600  16.975  0.00  0.00    -0.217 OA
ATOM     14  O   UNL d   1     -39.383  13.652  16.813  0.00  0.00    -0.217 OA
BRANCH  12  15
ATOM     15  C   UNL d   1     -38.507  13.981  16.093  0.00  0.00     0.088 A 
ATOM     16  C   UNL d   1     -38.697  14.543  15.523  0.00  0.00     0.011 A 
ATOM     17  C   UNL d   1     -38.510  14.405  14.733  0.00  0.00     0.001 A 
ATOM     18  C   UNL d   1     -38.133  13.705  14.513  0.00  0.00     0.000 A 
ATOM     19  C   UNL d   1     -37.943  13.141  15.088  0.00  0.00     0.001 A 
ATOM     20  C   UNL d   1     -37.940  13.559  13.712  0.00  0.00     0.000 C 
ATOM     21  C   UNL d   1     -38.130  13.280  15.879  0.00  0.00     0.011 A 
ENDBRANCH  12  15
ENDBRANCH   1  12
BRANCH   8  22
ATOM     22  N   UNL d   1     -40.086  15.545  21.058  0.00  0.00    -0.304 N 
BRANCH  22  23
ATOM     23  C   UNL d   1     -39.532  15.908  21.556  0.00  0.00     0.080 C 
ATOM     24  C   UNL d   1     -39.602  15.832  22.375  0.00  0.00     0.021 C 
ENDBRANCH  22  23
BRANCH  22  25
ATOM     25  C   UNL d   1     -40.831  15.335  21.342  0.00  0.00     0.080 C 
ATOM     26  C   UNL d   1     -41.377  15.919  21.540  0.00  0.00     0.021 C 
ENDBRANCH  22  25
ENDBRANCH   8  22
TORSDOF 5
ENDMDL
MODEL 6
REMARK VINA RESULT:      -3.7      7.928      9.504
REMARK  5 active torsions:
REMARK  status: ('A' for Active; 'I' for Inactive)
REMARK    1  A    between atoms: S_2  and  C_1 
REMARK    2  A    between atoms: C_9  and  S_2 
REMARK    3  A    between atoms: N_14  and  C_10 
REMARK    4  A    between atoms: C_22  and  N_14 
REMARK    5  A    between atoms: C_23  and  N_14 
ROOT
ATOM      1  C   UNL d   1     -39.816  14.340  20.082  0.00  0.00     0.151 A 
ATOM      2  C   UNL d   1     -40.547  14.005  19.895  0.00  0.00     0.311 A 
ATOM      3  C   UNL d   1     -39.450  14.857  19.544  0.00  0.00     0.019 A 
ATOM      4  O   UNL d   1     -40.911  14.187  19.172  0.00  0.00    -0.272 OA
ATOM      5  C   UNL d   1     -40.546  14.700  18.642  0.00  0.00     0.105 A 
ATOM      6  C   UNL d   1     -39.816  15.035  18.828  0.00  0.00     0.024 A 
ATOM      7  C   UNL d   1     -40.911  14.878  17.926  0.00  0.00     0.042 A 
ATOM      8  C   UNL d   1     -40.546  15.391  17.396  0.00  0.00     0.066 A 
ATOM      9  O   UNL d   1     -40.912  13.490  20.430  0.00  0.00    -0.258 OA
ATOM     10  C   UNL d   1     -39.450  15.548  18.298  0.00  0.00     0.004 A 
ATOM     11  C   UNL d   1     -39.815  15.726  17.582  0.00  0.00     0.018 A 
ENDROOT
BRANCH   1  12
ATOM     12  S   UNL d   1     -39.444  14.163  20.804  0.00  0.00     0.215 S 
ATOM     13  O   UNL d   1     -38.940  13.622  20.413  0.00  0.00    -0.217 OA
ATOM     14  O   UNL d   1     -39.944  14.702  21.202  0.00  0.00    -0.217 OA
BRANCH  12  15
ATOM     15  C   UNL d   1     -39.067  13.984  21.533  0.00  0.00     0.088 A 
ATOM     16  C   UNL d   1     -38.425  13.470  21.543  0.00  0.00     0.011 A 
ATOM     17  C   UNL d   1     -38.052  13.292  22.255  0.00  0.00     0.001 A 
ATOM     18  C   UNL d   1     -38.323  13.628  22.958  0.00  0.00     0.000 A 
ATOM     19  C   UNL d   1     -38.970  14.144  22.947  0.00  0.00     0.001 A 
ATOM     20  C   UNL d   1     -37.949  13.451  23.686  0.00  0.00     0.000 C 
ATOM     21  C   UNL d   1     -39.342  14.323  22.234  0.00  0.00     0.011 A 
ENDBRANCH  12  15
ENDBRANCH   1  12
BRANCH   8  22
ATOM     22  N   UNL d   1     -40.910  15.575  16.669  0.00  0.00    -0.304 N 
BRANCH  22  23
ATOM     23  C   UNL d   1     -41.662  15.921  16.661  0.00  0.00     0.080 C 
ATOM     24  C   UNL d   1     -42.128  15.882  15.981  0.00  0.00     0.021 C 
ENDBRANCH  22  23
BRANCH  22  25
ATOM     25  C   UNL d   1     -40.517  15.411  15.963  0.00  0.00     0.080 C 
ATOM     26  C   UNL d   1     -40.629  15.894  15.305  0.00  0.00     0.021 C 
ENDBRANCH  22  25
ENDBRANCH   8  22
TORSDOF 5
ENDMDL
MODEL 7
REMARK VINA RESULT:      -3.5      8.533     10.586
REMARK  5 active torsions:
REMARK  status: ('A' for Active; 'I' for Inactive)
REMARK    1  A    between atoms: S_2  and  C_1 
REMARK    2  A    between atoms: C_9  and  S_2 
REMARK    3  A    between atoms: N_14  and  C_10 
REMARK    4  A    between atoms: C_22  and  N_14 
REMARK    5  A    between atoms: C_23  and  N_14 
ROOT
ATOM      1  C   UNL d   1     -38.449  14.557  19.311  0.00  0.00     0.151 A 
ATOM      2  C   UNL d   1     -38.242  15.324  19.090  0.00  0.00     0.311 A 
ATOM      3  C   UNL d   1     -38.526  13.967  18.731  0.00  0.00     0.019 A 
ATOM      4  O   UNL d   1     -38.114  15.502  18.289  0.00  0.00    -0.272 OA
ATOM      5  C   UNL d   1     -38.191  14.915  17.717  0.00  0.00     0.105 A 
ATOM      6  C   UNL d   1     -38.398  14.148  17.938  0.00  0.00     0.024 A 
ATOM      7  C   UNL d   1     -38.063  15.095  16.924  0.00  0.00     0.042 A 
ATOM      8  C   UNL d   1     -38.140  14.509  16.353  0.00  0.00     0.066 A 
ATOM      9  O   UNL d   1     -38.165  15.912  19.666  0.00  0.00    -0.258 OA
ATOM     10  C   UNL d   1     -38.476  13.560  17.366  0.00  0.00     0.004 A 
ATOM     11  C   UNL d   1     -38.347  13.741  16.574  0.00  0.00     0.018 A 
ENDROOT
BRANCH   1  12
ATOM     12  S   UNL d   1     -38.580  14.369  20.110  0.00  0.00     0.215 S 
ATOM     13  O   UNL d   1     -38.091  13.694  20.034  0.00  0.00    -0.217 OA
ATOM     14  O   UNL d   1     -39.069  15.042  20.195  0.00  0.00    -0.217 OA
BRANCH  12  15
ATOM     15  C   UNL d   1     -38.712  14.180  20.918  0.00  0.00     0.088 A 
ATOM     16  C   UNL d   1     -38.070  14.023  21.409  0.00  0.00     0.011 A 
ATOM     17  C   UNL d   1     -38.194  13.837  22.201  0.00  0.00     0.001 A 
ATOM     18  C   UNL d   1     -38.961  13.807  22.503  0.00  0.00     0.000 A 
ATOM     19  C   UNL d   1     -39.606  13.965  22.008  0.00  0.00     0.001 A 
ATOM     20  C   UNL d   1     -39.095  13.618  23.307  0.00  0.00     0.000 C 
ATOM     21  C   UNL d   1     -39.481  14.151  21.216  0.00  0.00     0.011 A 
ENDBRANCH  12  15
ENDBRANCH   1  12
BRANCH   8  22
ATOM     22  N   UNL d   1     -38.012  14.685  15.548  0.00  0.00    -0.304 N 
BRANCH  22  23
ATOM     23  C   UNL d   1     -37.957  14.071  14.995  0.00  0.00     0.080 C 
ATOM     24  C   UNL d   1     -38.085  14.224  14.195  0.00  0.00     0.021 C 
ENDBRANCH  22  23
BRANCH  22  25
ATOM     25  C   UNL d   1     -37.940  15.472  15.310  0.00  0.00     0.080 C 
ATOM     26  C   UNL d   1     -38.004  15.669  14.512  0.00  0.00     0.021 C 
ENDBRANCH  22  25
ENDBRANCH   8  22
TORSDOF 5
ENDMDL
