MODEL 1
REMARK VINA RESULT:       7.5      0.000      0.000
REMARK  7 active torsions:
REMARK  status: ('A' for Active; 'I' for Inactive)
REMARK    1  A    between atoms: C_3  and  C_1 
REMARK    2  A    between atoms: O_13  and  C_1 
REMARK       I    between atoms: C_2  and  N_7 
REMARK    3  A    between atoms: C_4  and  C_2 
REMARK    4  A    between atoms: C_6  and  C_4 
REMARK    5  A    between atoms: C_5  and  C_6 
REMARK    6  A    between atoms: O_14  and  C_5 
REMARK    7  A    between atoms: N_7  and  C_9 
ROOT
ATOM      1  C   UNL d   1      45.505 -14.000  44.396  0.00  0.00     0.063 A 
ATOM      2  C   UNL d   1      45.951 -14.699  44.391  0.00  0.00     0.023 A 
ATOM      3  C   UNL d   1      45.614 -15.395  44.670  0.00  0.00     0.059 A 
ATOM      4  C   UNL d   1      44.730 -13.998  44.678  0.00  0.00     0.006 A 
ATOM      5  C   UNL d   1      44.399 -14.694  44.954  0.00  0.00     0.002 A 
ATOM      6  C   UNL d   1      44.839 -15.393  44.951  0.00  0.00     0.017 A 
ENDROOT
BRANCH   3   7
ATOM      7  N   UNL d   1      46.048 -16.095  44.669  0.00  0.00    -0.321 N 
ATOM      8  C   UNL d   1      45.886 -16.681  44.127  0.00  0.00     0.258 C 
ATOM      9  O   UNL d   1      45.284 -16.562  43.584  0.00  0.00    -0.267 OA
ATOM     10  H   UNL d   1      46.648 -16.203  45.216  0.00  0.00     0.169 HD
BRANCH   8  11
ATOM     11  C   UNL d   1      46.317 -17.369  44.131  0.00  0.00     0.067 C 
BRANCH  11  12
ATOM     12  C   UNL d   1      46.148 -17.956  43.588  0.00  0.00     0.072 C 
BRANCH  12  13
ATOM     13  C   UNL d   1      46.468 -18.712  43.677  0.00  0.00     0.178 C 
ATOM     14  O   UNL d   1      46.647 -19.158  43.009  0.00  0.00    -0.646 OA
BRANCH  13  15
ATOM     15  O   UNL d   1      46.609 -19.023  44.429  0.00  0.00    -0.773 OA
ATOM     16  H   UNL d   1      46.524 -18.533  45.091  0.00  0.00     0.167 HD
ENDBRANCH  13  15
ENDBRANCH  12  13
ENDBRANCH  11  12
ENDBRANCH   8  11
ENDBRANCH   3   7
BRANCH   1  17
ATOM     17  C   UNL d   1      45.847 -13.303  44.115  0.00  0.00     0.178 C 
ATOM     18  O   UNL d   1      46.153 -12.745  44.640  0.00  0.00    -0.646 OA
BRANCH  17  19
ATOM     19  O   UNL d   1      45.881 -13.165  43.302  0.00  0.00    -0.773 OA
ATOM     20  H   UNL d   1      45.308 -12.701  42.934  0.00  0.00     0.167 HD
ENDBRANCH  17  19
ENDBRANCH   1  17
TORSDOF 7
ENDMDL
