MODEL 1
REMARK VINA RESULT:       4.8      0.000      0.000
REMARK  6 active torsions:
REMARK  status: ('A' for Active; 'I' for Inactive)
REMARK    1  A    between atoms: C_2  and  S_1 
REMARK    2  A    between atoms: C_13  and  S_1 
REMARK    3  A    between atoms: C_5  and  C_3 
REMARK    4  A    between atoms: C_19  and  C_5 
REMARK    5  A    between atoms: O_25  and  C_22 
REMARK    6  A    between atoms: C_30  and  O_25 
ROOT
ATOM      1  C   UNL d   1      32.681  21.664 -21.875  0.00  0.00     0.094 A 
ATOM      2  C   UNL d   1      32.531  22.223 -22.470  0.00  0.00     0.069 A 
ATOM      3  C   UNL d   1      32.765  21.904 -21.093  0.00  0.00     0.031 A 
ATOM      4  C   UNL d   1      32.699  22.703 -20.896  0.00  0.00     0.084 A 
ATOM      5  C   UNL d   1      32.914  21.346 -20.505  0.00  0.00     0.029 A 
ATOM      6  N   UNL d   1      32.551  23.261 -21.483  0.00  0.00    -0.244 NA
ATOM      7  C   UNL d   1      32.465  23.023 -22.274  0.00  0.00     0.103 A 
ATOM      8  C   UNL d   1      32.783  22.943 -20.113  0.00  0.00     0.046 A 
ATOM      9  C   UNL d   1      32.997  21.586 -19.723  0.00  0.00     0.123 A 
ATOM     10  C   UNL d   1      32.932  22.386 -19.527  0.00  0.00     0.124 A 
ATOM     11  O   UNL d   1      33.146  21.029 -19.136  0.00  0.00    -0.301 OA
ATOM     12  O   UNL d   1      33.016  22.626 -18.744  0.00  0.00    -0.301 OA
ATOM     13  C   UNL d   1      33.166  22.067 -18.152  0.00  0.00     0.149 A 
ATOM     14  C   UNL d   1      33.231  21.268 -18.349  0.00  0.00     0.149 A 
ENDROOT
BRANCH   1  15
ATOM     15  S   UNL d   1      32.748  20.862 -22.060  0.00  0.00     0.210 S 
ATOM     16  O   UNL d   1      33.235  21.039 -22.702  0.00  0.00    -0.217 OA
ATOM     17  O   UNL d   1      32.261  20.686 -21.417  0.00  0.00    -0.217 OA
BRANCH  15  18
ATOM     18  C   UNL d   1      32.808  20.058 -22.235  0.00  0.00     0.088 A 
ATOM     19  C   UNL d   1      33.178  19.820 -22.936  0.00  0.00     0.013 A 
ATOM     20  C   UNL d   1      33.238  19.011 -23.112  0.00  0.00     0.025 A 
ATOM     21  C   UNL d   1      32.932  18.452 -22.593  0.00  0.00     0.100 A 
ATOM     22  C   UNL d   1      32.562  18.686 -21.892  0.00  0.00     0.025 A 
ATOM     23  C   UNL d   1      32.501  19.499 -21.714  0.00  0.00     0.013 A 
BRANCH  21  24
ATOM     24  O   UNL d   1      32.988  17.639 -22.763  0.00  0.00    -0.305 OA
BRANCH  24  25
ATOM     25  C   UNL d   1      32.347  17.230 -23.079  0.00  0.00     0.123 C 
ATOM     26  C   UNL d   1      32.474  16.549 -23.523  0.00  0.00     0.029 C 
ENDBRANCH  24  25
ENDBRANCH  21  24
ENDBRANCH  15  18
ENDBRANCH   1  15
BRANCH   2  27
ATOM     27  C   UNL d   1      32.446  21.984 -23.257  0.00  0.00     0.198 C 
ATOM     28  O   UNL d   1      32.369  21.184 -23.445  0.00  0.00    -0.286 OA
BRANCH  27  29
ATOM     29  C   UNL d   1      32.439  22.549 -23.858  0.00  0.00     0.039 A 
ATOM     30  C   UNL d   1      33.119  22.689 -24.313  0.00  0.00     0.003 A 
ATOM     31  C   UNL d   1      33.114  23.254 -24.915  0.00  0.00     0.000 A 
ATOM     32  C   UNL d   1      32.429  23.687 -25.072  0.00  0.00     0.000 A 
ATOM     33  C   UNL d   1      31.744  23.548 -24.615  0.00  0.00     0.000 A 
ATOM     34  C   UNL d   1      31.747  22.985 -24.014  0.00  0.00     0.003 A 
ENDBRANCH  27  29
ENDBRANCH   2  27
TORSDOF 6
ENDMDL
MODEL 2
REMARK VINA RESULT:       6.3      1.050      3.895
REMARK  6 active torsions:
REMARK  status: ('A' for Active; 'I' for Inactive)
REMARK    1  A    between atoms: C_2  and  S_1 
REMARK    2  A    between atoms: C_13  and  S_1 
REMARK    3  A    between atoms: C_5  and  C_3 
REMARK    4  A    between atoms: C_19  and  C_5 
REMARK    5  A    between atoms: O_25  and  C_22 
REMARK    6  A    between atoms: C_30  and  O_25 
ROOT
ATOM      1  C   UNL d   1      32.943  20.901 -22.771  0.00  0.00     0.094 A 
ATOM      2  C   UNL d   1      32.875  21.420 -23.415  0.00  0.00     0.069 A 
ATOM      3  C   UNL d   1      32.998  20.089 -22.897  0.00  0.00     0.031 A 
ATOM      4  C   UNL d   1      32.986  19.789 -23.666  0.00  0.00     0.084 A 
ATOM      5  C   UNL d   1      33.064  19.578 -22.255  0.00  0.00     0.029 A 
ATOM      6  N   UNL d   1      32.920  20.299 -24.307  0.00  0.00    -0.244 NA
ATOM      7  C   UNL d   1      32.864  21.119 -24.184  0.00  0.00     0.103 A 
ATOM      8  C   UNL d   1      33.041  18.977 -23.791  0.00  0.00     0.046 A 
ATOM      9  C   UNL d   1      33.119  18.767 -22.381  0.00  0.00     0.123 A 
ATOM     10  C   UNL d   1      33.108  18.466 -23.150  0.00  0.00     0.124 A 
ATOM     11  O   UNL d   1      33.185  18.255 -21.739  0.00  0.00    -0.301 OA
ATOM     12  O   UNL d   1      33.163  17.654 -23.276  0.00  0.00    -0.301 OA
ATOM     13  C   UNL d   1      33.230  17.138 -22.632  0.00  0.00     0.149 A 
ATOM     14  C   UNL d   1      33.241  17.439 -21.863  0.00  0.00     0.149 A 
ENDROOT
BRANCH   1  15
ATOM     15  S   UNL d   1      32.955  21.190 -21.998  0.00  0.00     0.210 S 
ATOM     16  O   UNL d   1      33.241  21.917 -22.262  0.00  0.00    -0.217 OA
ATOM     17  O   UNL d   1      32.669  20.463 -21.734  0.00  0.00    -0.217 OA
BRANCH  15  18
ATOM     18  C   UNL d   1      32.963  21.469 -21.222  0.00  0.00     0.088 A 
ATOM     19  C   UNL d   1      32.711  20.974 -20.608  0.00  0.00     0.013 A 
ATOM     20  C   UNL d   1      32.719  21.255 -19.827  0.00  0.00     0.025 A 
ATOM     21  C   UNL d   1      32.976  22.019 -19.666  0.00  0.00     0.100 A 
ATOM     22  C   UNL d   1      33.229  22.516 -20.277  0.00  0.00     0.025 A 
ATOM     23  C   UNL d   1      33.221  22.234 -21.062  0.00  0.00     0.013 A 
BRANCH  21  24
ATOM     24  O   UNL d   1      32.988  22.308 -18.885  0.00  0.00    -0.305 OA
BRANCH  24  25
ATOM     25  C   UNL d   1      32.985  23.119 -18.737  0.00  0.00     0.123 C 
ATOM     26  C   UNL d   1      32.787  23.397 -17.988  0.00  0.00     0.029 C 
ENDBRANCH  24  25
ENDBRANCH  21  24
ENDBRANCH  15  18
ENDBRANCH   1  15
BRANCH   2  27
ATOM     27  C   UNL d   1      32.820  22.235 -23.291  0.00  0.00     0.198 C 
ATOM     28  O   UNL d   1      33.055  22.566 -22.573  0.00  0.00    -0.286 OA
BRANCH  27  29
ATOM     29  C   UNL d   1      32.527  22.722 -23.890  0.00  0.00     0.039 A 
ATOM     30  C   UNL d   1      31.716  22.888 -23.939  0.00  0.00     0.003 A 
ATOM     31  C   UNL d   1      31.421  23.374 -24.538  0.00  0.00     0.000 A 
ATOM     32  C   UNL d   1      31.933  23.702 -25.096  0.00  0.00     0.000 A 
ATOM     33  C   UNL d   1      32.750  23.536 -25.047  0.00  0.00     0.000 A 
ATOM     34  C   UNL d   1      33.047  23.051 -24.452  0.00  0.00     0.003 A 
ENDBRANCH  27  29
ENDBRANCH   2  27
TORSDOF 6
ENDMDL
