MODEL 1
REMARK VINA RESULT:      -2.9      0.000      0.000
REMARK  1 active torsions:
REMARK  status: ('A' for Active; 'I' for Inactive)
REMARK    1  A    between atoms: C_6  and  C_1 
ROOT
ATOM      1  C   UNL d   1      45.328 -12.550  43.680  0.00  0.00     0.168 A 
ATOM      2  N   UNL d   1      45.892 -12.082  44.098  0.00  0.00    -0.142 NA
ATOM      3  C   UNL d   1      45.326 -13.302  44.000  0.00  0.00     0.045 A 
ATOM      4  N   UNL d   1      46.236 -12.573  44.686  0.00  0.00    -0.148 NA
ATOM      5  C   UNL d   1      45.889 -13.328  44.629  0.00  0.00     0.105 A 
ATOM      6  C   UNL d   1      44.987 -14.048  43.947  0.00  0.00     0.003 A 
ATOM      7  C   UNL d   1      45.887 -14.094  44.955  0.00  0.00     0.021 A 
ATOM      8  C   UNL d   1      45.308 -14.548  44.513  0.00  0.00     0.002 A 
ENDROOT
BRANCH   1   9
ATOM      9  C   UNL d   1      44.866 -12.294  43.063  0.00  0.00     0.231 C 
ATOM     10  O   UNL d   1      45.175 -12.221  42.302  0.00  0.00    -0.643 OA
ATOM     11  O   UNL d   1      44.065 -12.089  43.143  0.00  0.00    -0.643 OA
ENDBRANCH   1   9
TORSDOF 1
ENDMDL
