MODEL 1
REMARK VINA RESULT:      20.0      0.000      0.000
REMARK  3 active torsions:
REMARK  status: ('A' for Active; 'I' for Inactive)
REMARK    1  A    between atoms: C_6  and  C_2 
REMARK    2  A    between atoms: O_7  and  C_6 
REMARK    3  A    between atoms: C_8  and  O_7 
ROOT
ATOM      1  N   UNL d   1      13.061  11.779  -3.733  0.00  0.00    -0.224 NA
ATOM      2  C   UNL d   1      13.133  12.236  -3.044  0.00  0.00     0.188 A 
ATOM      3  N   UNL d   1      13.263  13.015  -3.295  0.00  0.00    -0.224 NA
ATOM      4  C   UNL d   1      13.144  12.264  -4.380  0.00  0.00     0.101 A 
ATOM      5  C   UNL d   1      13.270  13.034  -4.107  0.00  0.00     0.101 A 
ATOM      6  C   UNL d   1      13.126  12.137  -5.190  0.00  0.00     0.021 A 
ATOM      7  C   UNL d   1      13.375  13.657  -4.650  0.00  0.00     0.021 A 
ATOM      8  C   UNL d   1      13.351  13.493  -5.436  0.00  0.00     0.002 A 
ATOM      9  C   UNL d   1      13.225  12.722  -5.710  0.00  0.00     0.002 A 
ENDROOT
BRANCH   2  10
ATOM     10  C   UNL d   1      13.055  11.779  -2.387  0.00  0.00     0.161 C 
BRANCH  10  11
ATOM     11  O   UNL d   1      13.132  12.117  -1.624  0.00  0.00    -0.302 OA
BRANCH  11  12
ATOM     12  C   UNL d   1      13.860  12.101  -1.220  0.00  0.00     0.100 A 
ATOM     13  C   UNL d   1      13.909  12.395  -0.457  0.00  0.00     0.025 A 
ATOM     14  C   UNL d   1      14.619  12.391  -0.035  0.00  0.00     0.002 A 
ATOM     15  C   UNL d   1      15.278  12.077  -0.418  0.00  0.00     0.000 A 
ATOM     16  C   UNL d   1      15.232  11.781  -1.184  0.00  0.00     0.002 A 
ATOM     17  C   UNL d   1      16.006  12.061  -0.014  0.00  0.00     0.000 C 
ATOM     18  C   UNL d   1      14.523  11.787  -1.599  0.00  0.00     0.025 A 
ENDBRANCH  11  12
ENDBRANCH  10  11
ENDBRANCH   2  10
TORSDOF 3
ENDMDL
