MODEL 1
REMARK VINA RESULT:      42.4      0.000      0.000
REMARK  4 active torsions:
REMARK  status: ('A' for Active; 'I' for Inactive)
REMARK    1  A    between atoms: C_7  and  C_5 
REMARK    2  A    between atoms: C_8  and  C_7 
REMARK    3  A    between atoms: C_10  and  C_8 
REMARK    4  A    between atoms: O_18  and  C_11 
ROOT
ATOM      1  C   UNL d   1      57.755  49.697  51.217  0.00  0.00     0.303 A 
ATOM      2  N   UNL d   1      58.514  49.708  49.749  0.00  0.00    -0.222 NA
ATOM      3  O   UNL d   1      58.580  49.700  51.178  0.00  0.00    -0.255 OA
ATOM      4  C   UNL d   1      57.309  49.700  50.521  0.00  0.00     0.081 A 
ATOM      5  C   UNL d   1      58.957  49.705  50.449  0.00  0.00     0.186 A 
ATOM      6  C   UNL d   1      57.686  49.705  49.792  0.00  0.00     0.089 A 
ATOM      7  O   UNL d   1      57.375  49.692  51.954  0.00  0.00    -0.259 OA
ATOM      8  C   UNL d   1      56.490  49.698  50.564  0.00  0.00     0.007 A 
ATOM      9  C   UNL d   1      57.249  49.708  49.095  0.00  0.00     0.019 A 
ATOM     10  C   UNL d   1      56.045  49.700  49.868  0.00  0.00     0.000 A 
ATOM     11  C   UNL d   1      56.422  49.705  49.138  0.00  0.00     0.002 A 
ENDROOT
BRANCH   5  12
ATOM     12  C   UNL d   1      59.803  49.708  50.397  0.00  0.00     0.045 C 
BRANCH  12  13
ATOM     13  C   UNL d   1      60.244  49.313  50.971  0.00  0.00     0.004 C 
BRANCH  13  14
ATOM     14  C   UNL d   1      60.692  48.650  50.770  0.00  0.00     0.000 A 
ATOM     15  C   UNL d   1      60.761  48.023  51.295  0.00  0.00     0.002 A 
ATOM     16  C   UNL d   1      61.209  47.360  51.094  0.00  0.00     0.024 A 
ATOM     17  C   UNL d   1      61.591  47.329  50.359  0.00  0.00     0.094 A 
ATOM     18  C   UNL d   1      61.521  47.960  49.832  0.00  0.00     0.024 A 
ATOM     19  C   UNL d   1      61.075  48.619  50.035  0.00  0.00     0.002 A 
BRANCH  17  20
ATOM     20  O   UNL d   1      62.045  46.652  50.161  0.00  0.00    -0.328 OA
ATOM     21  C   UNL d   1      62.072  46.378  49.386  0.00  0.00     0.181 C 
ENDBRANCH  17  20
ENDBRANCH  13  14
ENDBRANCH  12  13
ENDBRANCH   5  12
TORSDOF 4
ENDMDL
