MODEL 1
REMARK VINA RESULT:      89.5      0.000      0.000
REMARK  3 active torsions:
REMARK  status: ('A' for Active; 'I' for Inactive)
REMARK    1  A    between atoms: C_3  and  C_1 
REMARK    2  A    between atoms: N_4  and  C_3 
REMARK    3  A    between atoms: C_8  and  C_3 
ROOT
ATOM      1  C   UNL d   1      60.480  48.735  51.011  0.00  0.00     0.069 C 
ENDROOT
BRANCH   1   2
ATOM      2  C   UNL d   1      60.900  48.178  50.563  0.00  0.00     0.057 A 
ATOM      3  C   UNL d   1      60.875  47.379  50.770  0.00  0.00     0.214 A 
ATOM      4  C   UNL d   1      61.294  46.839  50.319  0.00  0.00     0.120 A 
ATOM      5  O   UNL d   1      60.434  47.121  51.424  0.00  0.00    -0.285 OA
ATOM      6  N   UNL d   1      61.280  46.037  50.512  0.00  0.00    -0.241 NA
ATOM      7  C   UNL d   1      61.736  47.098  49.664  0.00  0.00     0.021 A 
ATOM      8  C   UNL d   1      61.707  45.502  50.050  0.00  0.00     0.099 A 
ATOM      9  C   UNL d   1      62.131  45.751  49.422  0.00  0.00     0.021 A 
ATOM     10  C   UNL d   1      62.157  46.552  49.213  0.00  0.00     0.003 A 
ATOM     11  C   UNL d   1      61.752  47.893  49.470  0.00  0.00     0.002 A 
ATOM     12  C   UNL d   1      61.323  48.427  49.935  0.00  0.00     0.005 A 
ENDBRANCH   1   2
BRANCH   1  13
ATOM     13  N   UNL d   1      59.732  48.974  50.779  0.00  0.00    -0.301 N 
ATOM     14  C   UNL d   1      59.648  49.435  50.104  0.00  0.00     0.100 A 
ATOM     15  C   UNL d   1      58.891  49.680  49.865  0.00  0.00     0.100 A 
ATOM     16  N   UNL d   1      58.236  49.466  50.295  0.00  0.00    -0.299 N 
ATOM     17  C   UNL d   1      58.318  49.003  50.973  0.00  0.00     0.100 A 
ATOM     18  C   UNL d   1      57.493  49.702  50.068  0.00  0.00     0.100 C 
ATOM     19  C   UNL d   1      59.062  48.762  51.208  0.00  0.00     0.100 A 
ENDBRANCH   1  13
BRANCH   1  20
ATOM     20  C   UNL d   1      60.796  49.056  51.691  0.00  0.00     0.035 A 
ATOM     21  C   UNL d   1      61.590  49.231  51.738  0.00  0.00     0.100 A 
ATOM     22  N   UNL d   1      61.915  49.557  52.424  0.00  0.00    -0.242 NA
ATOM     23  C   UNL d   1      61.423  49.707  53.071  0.00  0.00     0.099 A 
ATOM     24  C   UNL d   1      60.624  49.533  53.028  0.00  0.00     0.021 A 
ATOM     25  C   UNL d   1      60.304  49.207  52.339  0.00  0.00     0.005 A 
ENDBRANCH   1  20
TORSDOF 3
ENDMDL
