MODEL 1
REMARK VINA RESULT:      48.8      0.000      0.000
REMARK  5 active torsions:
REMARK  status: ('A' for Active; 'I' for Inactive)
REMARK       I    between atoms: N_3  and  C_1 
REMARK    1  A    between atoms: C_4  and  C_1 
REMARK    2  A    between atoms: C_2  and  C_6 
REMARK    3  A    between atoms: O_5  and  C_2 
REMARK    4  A    between atoms: C_11  and  N_3 
REMARK    5  A    between atoms: C_14  and  O_5 
ROOT
ATOM      1  C   UNL d   1     -50.459  26.621  33.995  0.00  0.00     0.064 A 
ATOM      2  C   UNL d   1     -49.963  26.996  33.449  0.00  0.00     0.008 A 
ATOM      3  C   UNL d   1     -50.338  26.733  34.808  0.00  0.00     0.008 A 
ATOM      4  C   UNL d   1     -49.230  27.591  34.526  0.00  0.00     0.135 A 
ATOM      5  C   UNL d   1     -49.351  27.478  33.712  0.00  0.00     0.032 A 
ATOM      6  C   UNL d   1     -49.723  27.219  35.070  0.00  0.00     0.032 A 
ENDROOT
BRANCH   1   7
ATOM      7  C   UNL d   1     -51.073  26.137  33.724  0.00  0.00     0.300 C 
ATOM      8  O   UNL d   1     -51.853  26.349  33.877  0.00  0.00    -0.259 OA
BRANCH   7   9
ATOM      9  O   UNL d   1     -50.902  25.447  33.306  0.00  0.00    -0.273 OA
BRANCH   9  10
ATOM     10  C   UNL d   1     -51.441  24.823  33.308  0.00  0.00     0.103 A 
ATOM     11  C   UNL d   1     -51.169  24.046  33.311  0.00  0.00     0.025 A 
ATOM     12  C   UNL d   1     -51.706  23.431  33.313  0.00  0.00     0.002 A 
ATOM     13  C   UNL d   1     -52.518  23.578  33.312  0.00  0.00     0.000 A 
ATOM     14  C   UNL d   1     -52.788  24.363  33.308  0.00  0.00     0.002 A 
ATOM     15  C   UNL d   1     -52.250  24.986  33.306  0.00  0.00     0.025 A 
ENDBRANCH   9  10
ENDBRANCH   7   9
ENDBRANCH   1   7
BRANCH   4  16
ATOM     16  N   UNL d   1     -48.612  28.079  34.787  0.00  0.00    -0.368 NA
ATOM     17  C   UNL d   1     -48.001  28.563  35.045  0.00  0.00     0.303 C 
ATOM     18  O   UNL d   1     -47.242  28.255  35.140  0.00  0.00    -0.256 OA
BRANCH  17  19
ATOM     19  C   UNL d   1     -48.148  29.357  35.210  0.00  0.00     0.085 C 
ATOM     20  C   UNL d   1     -48.620  29.807  34.704  0.00  0.00     0.011 C 
ATOM     21  C   UNL d   1     -47.663  29.099  35.829  0.00  0.00     0.011 C 
ATOM     22  C   UNL d   1     -47.824  29.707  35.881  0.00  0.00     0.011 C 
ENDBRANCH  17  19
ENDBRANCH   4  16
TORSDOF 5
ENDMDL
