MODEL 1
REMARK VINA RESULT:      29.2      0.000      0.000
REMARK  7 active torsions:
REMARK  status: ('A' for Active; 'I' for Inactive)
REMARK    1  A    between atoms: N_6  and  C_1 
REMARK    2  A    between atoms: C_10  and  C_2 
REMARK       I    between atoms: C_8  and  N_6 
REMARK       I    between atoms: C_9  and  N_7 
REMARK    3  A    between atoms: C_12  and  C_8 
REMARK    4  A    between atoms: O_22  and  C_9 
REMARK    5  A    between atoms: O_23  and  C_10 
REMARK    6  A    between atoms: C_24  and  O_22 
REMARK    7  A    between atoms: C_25  and  O_23 
ROOT
ATOM      1  C   UNL d   1      46.263 -17.440  43.129  0.00  0.00     0.119 A 
ATOM      2  C   UNL d   1      46.068 -17.408  43.931  0.00  0.00     0.088 A 
ATOM      3  C   UNL d   1      46.013 -16.171  43.444  0.00  0.00     0.049 A 
ATOM      4  C   UNL d   1      45.914 -16.613  44.118  0.00  0.00     0.016 A 
ATOM      5  S   UNL d   1      46.229 -16.667  42.825  0.00  0.00    -0.066 SA
ATOM      6  N   UNL d   1      45.677 -14.985  44.175  0.00  0.00    -0.251 N 
ATOM      7  C   UNL d   1      45.557 -14.168  44.205  0.00  0.00     0.378 C 
ATOM      8  C   UNL d   1      45.893 -15.340  43.469  0.00  0.00     0.091 A 
ATOM      9  C   UNL d   1      45.694 -16.259  44.839  0.00  0.00     0.020 A 
ATOM     10  C   UNL d   1      45.578 -15.441  44.855  0.00  0.00     0.085 A 
ATOM     11  O   UNL d   1      45.655 -13.713  43.526  0.00  0.00    -0.237 OA
ENDROOT
BRANCH   1  12
ATOM     12  N   UNL d   1      46.460 -18.125  42.698  0.00  0.00    -0.201 NA
ATOM     13  C   UNL d   1      45.960 -18.387  42.105  0.00  0.00     0.286 C 
ATOM     14  O   UNL d   1      45.262 -17.984  41.927  0.00  0.00    -0.265 OA
BRANCH  13  15
ATOM     15  C   UNL d   1      46.154 -19.066  41.678  0.00  0.00     0.087 A 
ATOM     16  S   UNL d   1      45.966 -19.226  40.890  0.00  0.00    -0.082 SA
ATOM     17  C   UNL d   1      46.273 -19.971  40.693  0.00  0.00     0.036 A 
ATOM     18  C   UNL d   1      46.643 -20.258  41.357  0.00  0.00     0.008 A 
ATOM     19  C   UNL d   1      46.576 -19.713  41.965  0.00  0.00     0.012 A 
ENDBRANCH  13  15
ENDBRANCH   1  12
BRANCH   2  20
ATOM     20  C   UNL d   1      46.035 -18.054  44.443  0.00  0.00     0.302 C 
ATOM     21  O   UNL d   1      45.389 -18.113  44.954  0.00  0.00    -0.259 OA
BRANCH  20  22
ATOM     22  O   UNL d   1      46.642 -18.626  44.438  0.00  0.00    -0.271 OA
BRANCH  22  23
ATOM     23  C   UNL d   1      46.555 -19.321  44.869  0.00  0.00     0.126 C 
ATOM     24  C   UNL d   1      45.979 -19.877  44.654  0.00  0.00     0.029 C 
ENDBRANCH  22  23
ENDBRANCH  20  22
ENDBRANCH   2  20
BRANCH   7  25
ATOM     25  O   UNL d   1      45.339 -13.811  44.913  0.00  0.00    -0.257 OA
BRANCH  25  26
ATOM     26  C   UNL d   1      45.222 -12.995  44.953  0.00  0.00     0.128 C 
ATOM     27  C   UNL d   1      45.859 -12.472  44.904  0.00  0.00     0.029 C 
ENDBRANCH  25  26
ENDBRANCH   7  25
TORSDOF 7
ENDMDL
