MODEL 1
REMARK VINA RESULT:     -10.7      0.000      0.000
REMARK  1 active torsions:
REMARK  status: ('A' for Active; 'I' for Inactive)
REMARK    1  A    between atoms: C_2  and  N_1 
ROOT
ATOM      1  C   UNL d   1     -47.780  11.870  23.182  0.00  0.00     0.153 A 
ATOM      2  C   UNL d   1     -47.538  12.645  23.085  0.00  0.00     0.059 A 
ATOM      3  C   UNL d   1     -46.732  12.862  23.297  0.00  0.00     0.115 A 
ATOM      4  S   UNL d   1     -46.665  13.672  23.136  0.00  0.00    -0.068 SA
ATOM      5  C   UNL d   1     -47.915  13.319  22.810  0.00  0.00     0.011 A 
ATOM      6  C   UNL d   1     -47.383  13.949  22.840  0.00  0.00     0.031 A 
ATOM      7  N   UNL d   1     -47.269  11.269  23.483  0.00  0.00    -0.206 NA
ATOM      8  N   UNL d   1     -46.214  12.302  23.591  0.00  0.00    -0.217 NA
ATOM      9  C   UNL d   1     -46.449  11.495  23.698  0.00  0.00     0.201 A 
ATOM     10  C   UNL d   1     -48.684  13.454  22.531  0.00  0.00     0.001 A 
ATOM     11  C   UNL d   1     -47.610  14.718  22.593  0.00  0.00     0.006 A 
ATOM     12  C   UNL d   1     -48.944  14.228  22.272  0.00  0.00     0.000 A 
ATOM     13  C   UNL d   1     -48.389  14.829  22.316  0.00  0.00     0.001 A 
ENDROOT
BRANCH   1  14
ATOM     14  N   UNL d   1     -48.528  12.060  22.896  0.00  0.00    -0.273 N 
ATOM     15  C   UNL d   1     -48.407  12.014  22.054  0.00  0.00     0.184 A 
ATOM     16  N   UNL d   1     -49.111  12.190  21.679  0.00  0.00    -0.224 NA
ATOM     17  C   UNL d   1     -49.668  12.345  22.254  0.00  0.00     0.099 A 
ATOM     18  C   UNL d   1     -49.329  12.271  23.034  0.00  0.00     0.085 A 
ATOM     19  C   UNL d   1     -50.461  12.550  22.198  0.00  0.00     0.021 A 
ATOM     20  C   UNL d   1     -49.772  12.397  23.698  0.00  0.00     0.019 A 
ATOM     21  C   UNL d   1     -50.569  12.603  23.620  0.00  0.00     0.002 A 
ATOM     22  C   UNL d   1     -50.896  12.675  22.876  0.00  0.00     0.002 A 
ENDBRANCH   1  14
TORSDOF 1
ENDMDL
MODEL 2
REMARK VINA RESULT:     -10.5      1.124      2.073
REMARK  1 active torsions:
REMARK  status: ('A' for Active; 'I' for Inactive)
REMARK    1  A    between atoms: C_2  and  N_1 
ROOT
ATOM      1  C   UNL d   1     -47.373  13.719  22.625  0.00  0.00     0.153 A 
ATOM      2  C   UNL d   1     -47.587  13.017  22.984  0.00  0.00     0.059 A 
ATOM      3  C   UNL d   1     -46.976  12.526  23.342  0.00  0.00     0.115 A 
ATOM      4  S   UNL d   1     -47.368  11.866  23.654  0.00  0.00    -0.068 SA
ATOM      5  C   UNL d   1     -48.307  12.640  23.094  0.00  0.00     0.011 A 
ATOM      6  C   UNL d   1     -48.176  11.936  23.503  0.00  0.00     0.031 A 
ATOM      7  N   UNL d   1     -46.572  13.986  22.588  0.00  0.00    -0.206 NA
ATOM      8  N   UNL d   1     -46.192  12.757  23.322  0.00  0.00    -0.217 NA
ATOM      9  C   UNL d   1     -45.954  13.482  22.953  0.00  0.00     0.201 A 
ATOM     10  C   UNL d   1     -49.080  12.841  22.874  0.00  0.00     0.001 A 
ATOM     11  C   UNL d   1     -48.812  11.425  23.698  0.00  0.00     0.006 A 
ATOM     12  C   UNL d   1     -49.750  12.339  23.060  0.00  0.00     0.000 A 
ATOM     13  C   UNL d   1     -49.582  11.649  23.467  0.00  0.00     0.001 A 
ENDROOT
BRANCH   1  14
ATOM     14  N   UNL d   1     -48.159  13.868  22.432  0.00  0.00    -0.273 N 
ATOM     15  C   UNL d   1     -48.250  13.414  21.717  0.00  0.00     0.184 A 
ATOM     16  N   UNL d   1     -49.015  13.503  21.446  0.00  0.00    -0.224 NA
ATOM     17  C   UNL d   1     -49.407  13.996  21.964  0.00  0.00     0.099 A 
ATOM     18  C   UNL d   1     -48.892  14.243  22.598  0.00  0.00     0.085 A 
ATOM     19  C   UNL d   1     -50.179  14.274  21.967  0.00  0.00     0.021 A 
ATOM     20  C   UNL d   1     -49.153  14.735  23.184  0.00  0.00     0.019 A 
ATOM     21  C   UNL d   1     -49.935  15.004  23.169  0.00  0.00     0.002 A 
ATOM     22  C   UNL d   1     -50.430  14.770  22.564  0.00  0.00     0.002 A 
ENDBRANCH   1  14
TORSDOF 1
ENDMDL
MODEL 3
REMARK VINA RESULT:     -10.3      1.176      2.037
REMARK  1 active torsions:
REMARK  status: ('A' for Active; 'I' for Inactive)
REMARK    1  A    between atoms: C_2  and  N_1 
ROOT
ATOM      1  C   UNL d   1     -49.205  12.408  23.039  0.00  0.00     0.153 A 
ATOM      2  C   UNL d   1     -48.402  12.433  23.190  0.00  0.00     0.059 A 
ATOM      3  C   UNL d   1     -48.016  11.741  23.528  0.00  0.00     0.115 A 
ATOM      4  S   UNL d   1     -47.217  11.944  23.611  0.00  0.00    -0.068 SA
ATOM      5  C   UNL d   1     -47.831  13.012  23.086  0.00  0.00     0.011 A 
ATOM      6  C   UNL d   1     -47.105  12.715  23.343  0.00  0.00     0.031 A 
ATOM      7  N   UNL d   1     -49.677  11.726  23.202  0.00  0.00    -0.206 NA
ATOM      8  N   UNL d   1     -48.447  11.066  23.697  0.00  0.00    -0.217 NA
ATOM      9  C   UNL d   1     -49.279  11.023  23.546  0.00  0.00     0.201 A 
ATOM     10  C   UNL d   1     -47.868  13.785  22.787  0.00  0.00     0.001 A 
ATOM     11  C   UNL d   1     -46.409  13.183  23.305  0.00  0.00     0.006 A 
ATOM     12  C   UNL d   1     -47.174  14.286  22.737  0.00  0.00     0.000 A 
ATOM     13  C   UNL d   1     -46.472  13.957  23.001  0.00  0.00     0.001 A 
ENDROOT
BRANCH   1  14
ATOM     14  N   UNL d   1     -49.184  13.179  22.753  0.00  0.00    -0.273 N 
ATOM     15  C   UNL d   1     -48.940  13.056  21.946  0.00  0.00     0.184 A 
ATOM     16  N   UNL d   1     -48.890  13.780  21.573  0.00  0.00    -0.224 NA
ATOM     17  C   UNL d   1     -49.094  14.354  22.116  0.00  0.00     0.099 A 
ATOM     18  C   UNL d   1     -49.284  14.004  22.871  0.00  0.00     0.085 A 
ATOM     19  C   UNL d   1     -49.140  15.170  22.050  0.00  0.00     0.021 A 
ATOM     20  C   UNL d   1     -49.503  14.460  23.502  0.00  0.00     0.019 A 
ATOM     21  C   UNL d   1     -49.544  15.281  23.414  0.00  0.00     0.002 A 
ATOM     22  C   UNL d   1     -49.362  15.618  22.694  0.00  0.00     0.002 A 
ENDBRANCH   1  14
TORSDOF 1
ENDMDL
MODEL 4
REMARK VINA RESULT:     -10.0      1.293      2.700
REMARK  1 active torsions:
REMARK  status: ('A' for Active; 'I' for Inactive)
REMARK    1  A    between atoms: C_2  and  N_1 
ROOT
ATOM      1  C   UNL d   1     -49.147  12.140  23.070  0.00  0.00     0.153 A 
ATOM      2  C   UNL d   1     -49.479  12.882  23.153  0.00  0.00     0.059 A 
ATOM      3  C   UNL d   1     -50.274  12.952  23.477  0.00  0.00     0.115 A 
ATOM      4  S   UNL d   1     -50.444  13.763  23.489  0.00  0.00    -0.068 SA
ATOM      5  C   UNL d   1     -49.209  13.638  22.987  0.00  0.00     0.011 A 
ATOM      6  C   UNL d   1     -49.797  14.179  23.192  0.00  0.00     0.031 A 
ATOM      7  N   UNL d   1     -49.555  11.432  23.289  0.00  0.00    -0.206 NA
ATOM      8  N   UNL d   1     -50.694  12.285  23.698  0.00  0.00    -0.217 NA
ATOM      9  C   UNL d   1     -50.364  11.509  23.617  0.00  0.00     0.201 A 
ATOM     10  C   UNL d   1     -48.495  13.919  22.673  0.00  0.00     0.001 A 
ATOM     11  C   UNL d   1     -49.683  15.004  23.085  0.00  0.00     0.006 A 
ATOM     12  C   UNL d   1     -48.349  14.755  22.553  0.00  0.00     0.000 A 
ATOM     13  C   UNL d   1     -48.956  15.262  22.767  0.00  0.00     0.001 A 
ENDROOT
BRANCH   1  14
ATOM     14  N   UNL d   1     -48.460  12.473  22.762  0.00  0.00    -0.273 N 
ATOM     15  C   UNL d   1     -48.669  12.569  21.941  0.00  0.00     0.184 A 
ATOM     16  N   UNL d   1     -48.035  12.900  21.547  0.00  0.00    -0.224 NA
ATOM     17  C   UNL d   1     -47.437  13.015  22.090  0.00  0.00     0.099 A 
ATOM     18  C   UNL d   1     -47.677  12.755  22.867  0.00  0.00     0.085 A 
ATOM     19  C   UNL d   1     -46.682  13.326  22.006  0.00  0.00     0.021 A 
ATOM     20  C   UNL d   1     -47.178  12.812  23.501  0.00  0.00     0.019 A 
ATOM     21  C   UNL d   1     -46.422  13.129  23.395  0.00  0.00     0.002 A 
ATOM     22  C   UNL d   1     -46.190  13.378  22.654  0.00  0.00     0.002 A 
ENDBRANCH   1  14
TORSDOF 1
ENDMDL
MODEL 5
REMARK VINA RESULT:      -9.9      1.474      3.357
REMARK  1 active torsions:
REMARK  status: ('A' for Active; 'I' for Inactive)
REMARK    1  A    between atoms: C_2  and  N_1 
ROOT
ATOM      1  C   UNL d   1     -49.499  13.633  21.818  0.00  0.00     0.153 A 
ATOM      2  C   UNL d   1     -49.622  13.021  22.345  0.00  0.00     0.059 A 
ATOM      3  C   UNL d   1     -50.428  12.807  22.558  0.00  0.00     0.115 A 
ATOM      4  S   UNL d   1     -50.363  12.178  23.093  0.00  0.00    -0.068 SA
ATOM      5  C   UNL d   1     -49.115  12.523  22.753  0.00  0.00     0.011 A 
ATOM      6  C   UNL d   1     -49.566  12.006  23.211  0.00  0.00     0.031 A 
ATOM      7  N   UNL d   1     -50.134  14.068  21.469  0.00  0.00    -0.206 NA
ATOM      8  N   UNL d   1     -51.064  13.210  22.237  0.00  0.00    -0.217 NA
ATOM      9  C   UNL d   1     -50.954  13.846  21.689  0.00  0.00     0.201 A 
ATOM     10  C   UNL d   1     -48.288  12.463  22.773  0.00  0.00     0.001 A 
ATOM     11  C   UNL d   1     -49.200  11.425  23.694  0.00  0.00     0.006 A 
ATOM     12  C   UNL d   1     -47.886  11.881  23.257  0.00  0.00     0.000 A 
ATOM     13  C   UNL d   1     -48.366  11.385  23.698  0.00  0.00     0.001 A 
ENDROOT
BRANCH   1  14
ATOM     14  N   UNL d   1     -48.684  13.530  21.876  0.00  0.00    -0.273 N 
ATOM     15  C   UNL d   1     -48.550  12.901  21.317  0.00  0.00     0.184 A 
ATOM     16  N   UNL d   1     -47.753  12.726  21.305  0.00  0.00    -0.224 NA
ATOM     17  C   UNL d   1     -47.382  13.221  21.836  0.00  0.00     0.099 A 
ATOM     18  C   UNL d   1     -47.944  13.741  22.212  0.00  0.00     0.085 A 
ATOM     19  C   UNL d   1     -46.592  13.291  22.050  0.00  0.00     0.021 A 
ATOM     20  C   UNL d   1     -47.711  14.286  22.762  0.00  0.00     0.019 A 
ATOM     21  C   UNL d   1     -46.911  14.340  22.964  0.00  0.00     0.002 A 
ATOM     22  C   UNL d   1     -46.371  13.845  22.607  0.00  0.00     0.002 A 
ENDBRANCH   1  14
TORSDOF 1
ENDMDL
MODEL 6
REMARK VINA RESULT:      -9.4      1.468      2.684
REMARK  1 active torsions:
REMARK  status: ('A' for Active; 'I' for Inactive)
REMARK    1  A    between atoms: C_2  and  N_1 
ROOT
ATOM      1  C   UNL d   1     -50.140  13.843  22.439  0.00  0.00     0.153 A 
ATOM      2  C   UNL d   1     -49.481  14.322  22.505  0.00  0.00     0.059 A 
ATOM      3  C   UNL d   1     -49.587  15.174  22.576  0.00  0.00     0.115 A 
ATOM      4  S   UNL d   1     -48.825  15.494  22.633  0.00  0.00    -0.068 SA
ATOM      5  C   UNL d   1     -48.676  14.167  22.522  0.00  0.00     0.011 A 
ATOM      6  C   UNL d   1     -48.273  14.883  22.600  0.00  0.00     0.031 A 
ATOM      7  N   UNL d   1     -50.927  14.150  22.436  0.00  0.00    -0.206 NA
ATOM      8  N   UNL d   1     -50.337  15.501  22.577  0.00  0.00    -0.217 NA
ATOM      9  C   UNL d   1     -51.030  15.019  22.509  0.00  0.00     0.201 A 
ATOM     10  C   UNL d   1     -48.242  13.463  22.476  0.00  0.00     0.001 A 
ATOM     11  C   UNL d   1     -47.434  14.904  22.633  0.00  0.00     0.006 A 
ATOM     12  C   UNL d   1     -47.386  13.453  22.507  0.00  0.00     0.000 A 
ATOM     13  C   UNL d   1     -47.020  14.182  22.585  0.00  0.00     0.001 A 
ENDROOT
BRANCH   1  14
ATOM     14  N   UNL d   1     -49.660  13.175  22.398  0.00  0.00    -0.273 N 
ATOM     15  C   UNL d   1     -49.459  13.159  21.570  0.00  0.00     0.184 A 
ATOM     16  N   UNL d   1     -48.975  12.516  21.431  0.00  0.00    -0.224 NA
ATOM     17  C   UNL d   1     -48.865  12.129  22.140  0.00  0.00     0.099 A 
ATOM     18  C   UNL d   1     -49.286  12.523  22.770  0.00  0.00     0.085 A 
ATOM     19  C   UNL d   1     -48.434  11.457  22.329  0.00  0.00     0.021 A 
ATOM     20  C   UNL d   1     -49.263  12.244  23.529  0.00  0.00     0.019 A 
ATOM     21  C   UNL d   1     -48.823  11.565  23.698  0.00  0.00     0.002 A 
ATOM     22  C   UNL d   1     -48.420  11.186  23.099  0.00  0.00     0.002 A 
ENDBRANCH   1  14
TORSDOF 1
ENDMDL
