MODEL 1
REMARK VINA RESULT:      -7.5      0.000      0.000
REMARK  5 active torsions:
REMARK  status: ('A' for Active; 'I' for Inactive)
REMARK    1  A    between atoms: C_10  and  C_4 
REMARK    2  A    between atoms: N_12  and  C_5 
REMARK    3  A    between atoms: N_11  and  C_22 
REMARK    4  A    between atoms: C_21  and  N_12 
REMARK    5  A    between atoms: C_22  and  C_21 
ROOT
ATOM      1  N   UNL d   1      53.036  32.049  53.271  0.00  0.00    -0.195 N 
ATOM      2  C   UNL d   1      53.355  31.551  53.845  0.00  0.00     0.167 A 
ATOM      3  N   UNL d   1      52.655  31.582  52.717  0.00  0.00    -0.163 NA
ATOM      4  C   UNL d   1      53.169  30.781  53.640  0.00  0.00     0.055 A 
ATOM      5  C   UNL d   1      53.135  32.865  53.331  0.00  0.00     0.167 A 
ATOM      6  C   UNL d   1      52.742  30.798  52.953  0.00  0.00     0.104 A 
ATOM      7  N   UNL d   1      53.774  31.868  54.480  0.00  0.00    -0.227 NA
ATOM      8  C   UNL d   1      53.558  33.185  53.972  0.00  0.00     0.058 A 
ATOM      9  C   UNL d   1      53.874  32.692  54.541  0.00  0.00     0.086 A 
ATOM     10  C   UNL d   1      52.446  30.132  52.558  0.00  0.00     0.023 C 
ATOM     11  C   UNL d   1      54.298  33.026  55.181  0.00  0.00     0.021 C 
ENDROOT
BRANCH   5  12
ATOM     12  N   UNL d   1      52.816  33.363  52.757  0.00  0.00    -0.224 NA
BRANCH  12  13
ATOM     13  C   UNL d   1      52.133  33.793  52.917  0.00  0.00     0.120 C 
BRANCH  13  14
ATOM     14  C   UNL d   1      51.802  34.285  52.332  0.00  0.00     0.101 C 
BRANCH  14  15
ATOM     15  N   UNL d   1      50.988  34.398  52.306  0.00  0.00    -0.298 N 
ATOM     16  C   UNL d   1      50.575  34.254  51.602  0.00  0.00     0.107 A 
ATOM     17  C   UNL d   1      49.762  34.367  51.576  0.00  0.00     0.142 A 
ATOM     18  O   UNL d   1      49.345  34.625  52.249  0.00  0.00    -0.300 OA
ATOM     19  C   UNL d   1      49.760  34.769  52.956  0.00  0.00     0.142 A 
ATOM     20  C   UNL d   1      50.580  34.656  52.985  0.00  0.00     0.107 A 
ENDBRANCH  14  15
ENDBRANCH  13  14
ENDBRANCH  12  13
ENDBRANCH   5  12
BRANCH   4  21
ATOM     21  C   UNL d   1      53.340  30.055  54.004  0.00  0.00     0.004 A 
ATOM     22  C   UNL d   1      52.862  29.787  54.627  0.00  0.00     0.001 A 
ATOM     23  C   UNL d   1      53.033  29.065  54.987  0.00  0.00     0.011 A 
ATOM     24  C   UNL d   1      53.674  28.617  54.728  0.00  0.00     0.058 A 
ATOM     25  C   UNL d   1      54.150  28.878  54.110  0.00  0.00     0.011 A 
ATOM     26 CL   UNL d   1      53.841  27.890  55.096  0.00  0.00    -0.082 Cl
ATOM     27  C   UNL d   1      53.980  29.603  53.746  0.00  0.00     0.001 A 
ENDBRANCH   4  21
TORSDOF 5
ENDMDL
MODEL 2
REMARK VINA RESULT:      -7.4      2.585      3.699
REMARK  5 active torsions:
REMARK  status: ('A' for Active; 'I' for Inactive)
REMARK    1  A    between atoms: C_10  and  C_4 
REMARK    2  A    between atoms: N_12  and  C_5 
REMARK    3  A    between atoms: N_11  and  C_22 
REMARK    4  A    between atoms: C_21  and  N_12 
REMARK    5  A    between atoms: C_22  and  C_21 
ROOT
ATOM      1  N   UNL d   1      51.574  34.401  53.173  0.00  0.00    -0.195 N 
ATOM      2  C   UNL d   1      52.075  33.863  53.545  0.00  0.00     0.167 A 
ATOM      3  N   UNL d   1      51.920  35.141  53.221  0.00  0.00    -0.163 NA
ATOM      4  C   UNL d   1      52.726  34.275  53.820  0.00  0.00     0.055 A 
ATOM      5  C   UNL d   1      50.866  34.144  52.838  0.00  0.00     0.167 A 
ATOM      6  C   UNL d   1      52.634  35.054  53.623  0.00  0.00     0.104 A 
ATOM      7  N   UNL d   1      51.869  33.066  53.583  0.00  0.00    -0.227 NA
ATOM      8  C   UNL d   1      50.658  33.339  52.876  0.00  0.00     0.058 A 
ATOM      9  C   UNL d   1      51.154  32.805  53.245  0.00  0.00     0.086 A 
ATOM     10  C   UNL d   1      53.172  35.658  53.802  0.00  0.00     0.023 C 
ATOM     11  C   UNL d   1      50.934  31.998  53.277  0.00  0.00     0.021 C 
ENDROOT
BRANCH   5  12
ATOM     12  N   UNL d   1      50.365  34.683  52.466  0.00  0.00    -0.224 NA
BRANCH  12  13
ATOM     13  C   UNL d   1      49.587  34.767  52.722  0.00  0.00     0.120 C 
BRANCH  13  14
ATOM     14  C   UNL d   1      49.029  35.152  52.239  0.00  0.00     0.101 C 
BRANCH  14  15
ATOM     15  N   UNL d   1      48.384  35.528  52.581  0.00  0.00    -0.298 N 
ATOM     16  C   UNL d   1      47.689  35.636  52.142  0.00  0.00     0.107 A 
ATOM     17  C   UNL d   1      47.043  36.012  52.484  0.00  0.00     0.142 A 
ATOM     18  O   UNL d   1      47.077  36.288  53.268  0.00  0.00    -0.300 OA
ATOM     19  C   UNL d   1      47.776  36.180  53.710  0.00  0.00     0.142 A 
ATOM     20  C   UNL d   1      48.427  35.801  53.367  0.00  0.00     0.107 A 
ENDBRANCH  14  15
ENDBRANCH  13  14
ENDBRANCH  12  13
ENDBRANCH   5  12
BRANCH   4  21
ATOM     21  C   UNL d   1      53.403  34.029  54.232  0.00  0.00     0.004 A 
ATOM     22  C   UNL d   1      53.439  34.128  55.054  0.00  0.00     0.001 A 
ATOM     23  C   UNL d   1      54.112  33.883  55.463  0.00  0.00     0.011 A 
ATOM     24  C   UNL d   1      54.742  33.542  55.053  0.00  0.00     0.058 A 
ATOM     25  C   UNL d   1      54.710  33.442  54.238  0.00  0.00     0.011 A 
ATOM     26 CL   UNL d   1      55.417  33.298  55.472  0.00  0.00    -0.082 Cl
ATOM     27  C   UNL d   1      54.034  33.688  53.825  0.00  0.00     0.001 A 
ENDBRANCH   4  21
TORSDOF 5
ENDMDL
MODEL 3
REMARK VINA RESULT:      -5.7      3.421      5.283
REMARK  5 active torsions:
REMARK  status: ('A' for Active; 'I' for Inactive)
REMARK    1  A    between atoms: C_10  and  C_4 
REMARK    2  A    between atoms: N_12  and  C_5 
REMARK    3  A    between atoms: N_11  and  C_22 
REMARK    4  A    between atoms: C_21  and  N_12 
REMARK    5  A    between atoms: C_22  and  C_21 
ROOT
ATOM      1  N   UNL d   1      49.251  34.852  52.137  0.00  0.00    -0.195 N 
ATOM      2  C   UNL d   1      49.766  34.849  52.780  0.00  0.00     0.167 A 
ATOM      3  N   UNL d   1      49.615  34.450  51.523  0.00  0.00    -0.163 NA
ATOM      4  C   UNL d   1      50.443  34.445  52.559  0.00  0.00     0.055 A 
ATOM      5  C   UNL d   1      48.518  35.222  52.196  0.00  0.00     0.167 A 
ATOM      6  C   UNL d   1      50.352  34.201  51.793  0.00  0.00     0.104 A 
ATOM      7  N   UNL d   1      49.548  35.216  53.485  0.00  0.00    -0.227 NA
ATOM      8  C   UNL d   1      48.297  35.593  52.908  0.00  0.00     0.058 A 
ATOM      9  C   UNL d   1      48.806  35.591  53.546  0.00  0.00     0.086 A 
ATOM     10  C   UNL d   1      50.913  33.773  51.359  0.00  0.00     0.023 C 
ATOM     11  C   UNL d   1      48.573  35.967  54.256  0.00  0.00     0.021 C 
ENDROOT
BRANCH   5  12
ATOM     12  N   UNL d   1      48.003  35.225  51.553  0.00  0.00    -0.224 NA
BRANCH  12  13
ATOM     13  C   UNL d   1      47.243  35.531  51.633  0.00  0.00     0.120 C 
BRANCH  13  14
ATOM     14  C   UNL d   1      46.741  35.582  50.970  0.00  0.00     0.101 C 
BRANCH  14  15
ATOM     15  N   UNL d   1      45.938  35.718  51.076  0.00  0.00    -0.298 N 
ATOM     16  C   UNL d   1      45.385  35.251  50.672  0.00  0.00     0.107 A 
ATOM     17  C   UNL d   1      44.582  35.387  50.778  0.00  0.00     0.142 A 
ATOM     18  O   UNL d   1      44.314  35.988  51.287  0.00  0.00    -0.300 OA
ATOM     19  C   UNL d   1      44.870  36.457  51.693  0.00  0.00     0.142 A 
ATOM     20  C   UNL d   1      45.679  36.322  51.588  0.00  0.00     0.107 A 
ENDBRANCH  14  15
ENDBRANCH  13  14
ENDBRANCH  12  13
ENDBRANCH   5  12
BRANCH   4  21
ATOM     21  C   UNL d   1      51.141  34.268  52.971  0.00  0.00     0.004 A 
ATOM     22  C   UNL d   1      51.744  34.836  53.016  0.00  0.00     0.001 A 
ATOM     23  C   UNL d   1      52.438  34.659  53.425  0.00  0.00     0.011 A 
ATOM     24  C   UNL d   1      52.527  33.923  53.785  0.00  0.00     0.058 A 
ATOM     25  C   UNL d   1      51.932  33.357  53.743  0.00  0.00     0.011 A 
ATOM     26 CL   UNL d   1      53.229  33.751  54.196  0.00  0.00    -0.082 Cl
ATOM     27  C   UNL d   1      51.234  33.533  53.332  0.00  0.00     0.001 A 
ENDBRANCH   4  21
TORSDOF 5
ENDMDL
MODEL 4
REMARK VINA RESULT:      -5.4      2.509      4.167
REMARK  5 active torsions:
REMARK  status: ('A' for Active; 'I' for Inactive)
REMARK    1  A    between atoms: C_10  and  C_4 
REMARK    2  A    between atoms: N_12  and  C_5 
REMARK    3  A    between atoms: N_11  and  C_22 
REMARK    4  A    between atoms: C_21  and  N_12 
REMARK    5  A    between atoms: C_22  and  C_21 
ROOT
ATOM      1  N   UNL d   1      50.930  34.885  53.482  0.00  0.00    -0.195 N 
ATOM      2  C   UNL d   1      51.399  34.263  53.214  0.00  0.00     0.167 A 
ATOM      3  N   UNL d   1      51.353  35.293  54.051  0.00  0.00    -0.163 NA
ATOM      4  C   UNL d   1      52.109  34.292  53.620  0.00  0.00     0.055 A 
ATOM      5  C   UNL d   1      50.175  34.998  53.169  0.00  0.00     0.167 A 
ATOM      6  C   UNL d   1      52.083  34.919  54.131  0.00  0.00     0.104 A 
ATOM      7  N   UNL d   1      51.115  33.752  52.633  0.00  0.00    -0.227 NA
ATOM      8  C   UNL d   1      49.888  34.481  52.583  0.00  0.00     0.058 A 
ATOM      9  C   UNL d   1      50.353  33.865  52.317  0.00  0.00     0.086 A 
ATOM     10  C   UNL d   1      52.694  35.141  54.646  0.00  0.00     0.023 C 
ATOM     11  C   UNL d   1      50.054  33.353  51.727  0.00  0.00     0.021 C 
ENDROOT
BRANCH   5  12
ATOM     12  N   UNL d   1      49.706  35.620  53.437  0.00  0.00    -0.224 NA
BRANCH  12  13
ATOM     13  C   UNL d   1      48.892  35.606  53.313  0.00  0.00     0.120 C 
BRANCH  13  14
ATOM     14  C   UNL d   1      48.417  36.233  53.587  0.00  0.00     0.101 C 
BRANCH  14  15
ATOM     15  N   UNL d   1      47.607  36.219  53.454  0.00  0.00    -0.298 N 
ATOM     16  C   UNL d   1      47.092  36.016  54.072  0.00  0.00     0.107 A 
ATOM     17  C   UNL d   1      46.281  36.001  53.939  0.00  0.00     0.142 A 
ATOM     18  O   UNL d   1      45.968  36.189  53.191  0.00  0.00    -0.300 OA
ATOM     19  C   UNL d   1      46.485  36.393  52.571  0.00  0.00     0.142 A 
ATOM     20  C   UNL d   1      47.302  36.408  52.702  0.00  0.00     0.107 A 
ENDBRANCH  14  15
ENDBRANCH  13  14
ENDBRANCH  12  13
ENDBRANCH   5  12
BRANCH   4  21
ATOM     21  C   UNL d   1      52.786  33.814  53.585  0.00  0.00     0.004 A 
ATOM     22  C   UNL d   1      52.850  33.157  54.087  0.00  0.00     0.001 A 
ATOM     23  C   UNL d   1      53.523  32.682  54.051  0.00  0.00     0.011 A 
ATOM     24  C   UNL d   1      54.127  32.864  53.519  0.00  0.00     0.058 A 
ATOM     25  C   UNL d   1      54.068  33.514  53.019  0.00  0.00     0.011 A 
ATOM     26 CL   UNL d   1      54.803  32.381  53.488  0.00  0.00    -0.082 Cl
ATOM     27  C   UNL d   1      53.392  33.992  53.054  0.00  0.00     0.001 A 
ENDBRANCH   4  21
TORSDOF 5
ENDMDL
MODEL 5
REMARK VINA RESULT:      -5.4      1.563      2.501
REMARK  5 active torsions:
REMARK  status: ('A' for Active; 'I' for Inactive)
REMARK    1  A    between atoms: C_10  and  C_4 
REMARK    2  A    between atoms: N_12  and  C_5 
REMARK    3  A    between atoms: N_11  and  C_22 
REMARK    4  A    between atoms: C_21  and  N_12 
REMARK    5  A    between atoms: C_22  and  C_21 
ROOT
ATOM      1  N   UNL d   1      51.209  33.312  53.212  0.00  0.00    -0.195 N 
ATOM      2  C   UNL d   1      51.993  33.061  53.187  0.00  0.00     0.167 A 
ATOM      3  N   UNL d   1      50.737  32.652  53.324  0.00  0.00    -0.163 NA
ATOM      4  C   UNL d   1      52.000  32.248  53.283  0.00  0.00     0.055 A 
ATOM      5  C   UNL d   1      51.028  34.111  53.130  0.00  0.00     0.167 A 
ATOM      6  C   UNL d   1      51.235  31.997  53.367  0.00  0.00     0.104 A 
ATOM      7  N   UNL d   1      52.599  33.609  53.078  0.00  0.00    -0.227 NA
ATOM      8  C   UNL d   1      51.640  34.666  53.020  0.00  0.00     0.058 A 
ATOM      9  C   UNL d   1      52.416  34.417  52.994  0.00  0.00     0.086 A 
ATOM     10  C   UNL d   1      51.001  31.210  53.478  0.00  0.00     0.023 C 
ATOM     11  C   UNL d   1      53.023  34.984  52.884  0.00  0.00     0.021 C 
ENDROOT
BRANCH   5  12
ATOM     12  N   UNL d   1      50.243  34.362  53.155  0.00  0.00    -0.224 NA
BRANCH  12  13
ATOM     13  C   UNL d   1      49.886  34.670  52.481  0.00  0.00     0.120 C 
BRANCH  13  14
ATOM     14  C   UNL d   1      49.212  35.155  52.549  0.00  0.00     0.101 C 
BRANCH  14  15
ATOM     15  N   UNL d   1      48.626  35.122  51.974  0.00  0.00    -0.298 N 
ATOM     16  C   UNL d   1      47.889  35.473  52.118  0.00  0.00     0.107 A 
ATOM     17  C   UNL d   1      47.302  35.440  51.544  0.00  0.00     0.142 A 
ATOM     18  O   UNL d   1      47.438  35.058  50.817  0.00  0.00    -0.300 OA
ATOM     19  C   UNL d   1      48.178  34.705  50.673  0.00  0.00     0.142 A 
ATOM     20  C   UNL d   1      48.770  34.737  51.250  0.00  0.00     0.107 A 
ENDBRANCH  14  15
ENDBRANCH  13  14
ENDBRANCH  12  13
ENDBRANCH   5  12
BRANCH   4  21
ATOM     21  C   UNL d   1      52.621  31.699  53.305  0.00  0.00     0.004 A 
ATOM     22  C   UNL d   1      52.738  31.188  52.662  0.00  0.00     0.001 A 
ATOM     23  C   UNL d   1      53.356  30.642  52.684  0.00  0.00     0.011 A 
ATOM     24  C   UNL d   1      53.851  30.608  53.343  0.00  0.00     0.058 A 
ATOM     25  C   UNL d   1      53.739  31.112  53.982  0.00  0.00     0.011 A 
ATOM     26 CL   UNL d   1      54.472  30.055  53.359  0.00  0.00    -0.082 Cl
ATOM     27  C   UNL d   1      53.118  31.661  53.962  0.00  0.00     0.001 A 
ENDBRANCH   4  21
TORSDOF 5
ENDMDL
MODEL 6
REMARK VINA RESULT:      -5.1      2.679      5.572
REMARK  5 active torsions:
REMARK  status: ('A' for Active; 'I' for Inactive)
REMARK    1  A    between atoms: C_10  and  C_4 
REMARK    2  A    between atoms: N_12  and  C_5 
REMARK    3  A    between atoms: N_11  and  C_22 
REMARK    4  A    between atoms: C_21  and  N_12 
REMARK    5  A    between atoms: C_22  and  C_21 
ROOT
ATOM      1  N   UNL d   1      51.187  33.861  52.677  0.00  0.00    -0.195 N 
ATOM      2  C   UNL d   1      50.819  34.525  52.997  0.00  0.00     0.167 A 
ATOM      3  N   UNL d   1      50.645  33.480  52.197  0.00  0.00    -0.163 NA
ATOM      4  C   UNL d   1      50.052  34.548  52.712  0.00  0.00     0.055 A 
ATOM      5  C   UNL d   1      51.971  33.692  52.867  0.00  0.00     0.167 A 
ATOM      6  C   UNL d   1      49.944  33.912  52.225  0.00  0.00     0.104 A 
ATOM      7  N   UNL d   1      51.233  35.022  53.508  0.00  0.00    -0.227 NA
ATOM      8  C   UNL d   1      52.390  34.194  53.383  0.00  0.00     0.058 A 
ATOM      9  C   UNL d   1      52.025  34.851  53.700  0.00  0.00     0.086 A 
ATOM     10  C   UNL d   1      49.242  33.731  51.822  0.00  0.00     0.023 C 
ATOM     11  C   UNL d   1      52.457  35.348  54.217  0.00  0.00     0.021 C 
ENDROOT
BRANCH   5  12
ATOM     12  N   UNL d   1      52.340  33.028  52.548  0.00  0.00    -0.224 NA
BRANCH  12  13
ATOM     13  C   UNL d   1      52.587  32.416  53.039  0.00  0.00     0.120 C 
BRANCH  13  14
ATOM     14  C   UNL d   1      53.075  31.811  52.740  0.00  0.00     0.101 C 
BRANCH  14  15
ATOM     15  N   UNL d   1      53.078  31.073  53.101  0.00  0.00    -0.298 N 
ATOM     16  C   UNL d   1      53.607  30.921  53.721  0.00  0.00     0.107 A 
ATOM     17  C   UNL d   1      53.610  30.183  54.083  0.00  0.00     0.142 A 
ATOM     18  O   UNL d   1      53.088  29.584  53.835  0.00  0.00    -0.300 OA
ATOM     19  C   UNL d   1      52.557  29.738  53.212  0.00  0.00     0.142 A 
ATOM     20  C   UNL d   1      52.552  30.480  52.847  0.00  0.00     0.107 A 
ENDBRANCH  14  15
ENDBRANCH  13  14
ENDBRANCH  12  13
ENDBRANCH   5  12
BRANCH   4  21
ATOM     21  C   UNL d   1      49.430  35.081  52.841  0.00  0.00     0.004 A 
ATOM     22  C   UNL d   1      49.072  35.456  52.193  0.00  0.00     0.001 A 
ATOM     23  C   UNL d   1      48.453  35.986  52.322  0.00  0.00     0.011 A 
ATOM     24  C   UNL d   1      48.196  36.140  53.090  0.00  0.00     0.058 A 
ATOM     25  C   UNL d   1      48.547  35.770  53.735  0.00  0.00     0.011 A 
ATOM     26 CL   UNL d   1      47.572  36.675  53.213  0.00  0.00    -0.082 Cl
ATOM     27  C   UNL d   1      49.169  35.237  53.608  0.00  0.00     0.001 A 
ENDBRANCH   4  21
TORSDOF 5
ENDMDL
MODEL 7
REMARK VINA RESULT:      -4.5      2.685      5.142
REMARK  5 active torsions:
REMARK  status: ('A' for Active; 'I' for Inactive)
REMARK    1  A    between atoms: C_10  and  C_4 
REMARK    2  A    between atoms: N_12  and  C_5 
REMARK    3  A    between atoms: N_11  and  C_22 
REMARK    4  A    between atoms: C_21  and  N_12 
REMARK    5  A    between atoms: C_22  and  C_21 
ROOT
ATOM      1  N   UNL d   1      53.133  32.376  53.423  0.00  0.00    -0.195 N 
ATOM      2  C   UNL d   1      52.775  33.099  53.588  0.00  0.00     0.167 A 
ATOM      3  N   UNL d   1      53.919  32.428  53.646  0.00  0.00    -0.163 NA
ATOM      4  C   UNL d   1      53.343  33.592  53.912  0.00  0.00     0.055 A 
ATOM      5  C   UNL d   1      52.693  31.764  53.090  0.00  0.00     0.167 A 
ATOM      6  C   UNL d   1      54.041  33.184  53.947  0.00  0.00     0.104 A 
ATOM      7  N   UNL d   1      51.976  33.212  53.421  0.00  0.00    -0.227 NA
ATOM      8  C   UNL d   1      51.886  31.878  52.921  0.00  0.00     0.058 A 
ATOM      9  C   UNL d   1      51.531  32.594  53.085  0.00  0.00     0.086 A 
ATOM     10  C   UNL d   1      54.755  33.486  54.241  0.00  0.00     0.023 C 
ATOM     11  C   UNL d   1      50.719  32.697  52.910  0.00  0.00     0.021 C 
ENDROOT
BRANCH   5  12
ATOM     12  N   UNL d   1      53.051  31.040  52.924  0.00  0.00    -0.224 NA
BRANCH  12  13
ATOM     13  C   UNL d   1      52.822  30.363  53.332  0.00  0.00     0.120 C 
BRANCH  13  14
ATOM     14  C   UNL d   1      53.336  29.710  53.380  0.00  0.00     0.101 C 
BRANCH  14  15
ATOM     15  N   UNL d   1      53.349  29.250  54.061  0.00  0.00    -0.298 N 
ATOM     16  C   UNL d   1      53.739  28.518  54.056  0.00  0.00     0.107 A 
ATOM     17  C   UNL d   1      53.752  28.059  54.737  0.00  0.00     0.142 A 
ATOM     18  O   UNL d   1      53.379  28.318  55.434  0.00  0.00    -0.300 OA
ATOM     19  C   UNL d   1      52.987  29.053  55.439  0.00  0.00     0.142 A 
ATOM     20  C   UNL d   1      52.973  29.517  54.754  0.00  0.00     0.107 A 
ENDBRANCH  14  15
ENDBRANCH  13  14
ENDBRANCH  12  13
ENDBRANCH   5  12
BRANCH   4  21
ATOM     21  C   UNL d   1      53.306  34.375  54.182  0.00  0.00     0.004 A 
ATOM     22  C   UNL d   1      53.254  34.525  54.996  0.00  0.00     0.001 A 
ATOM     23  C   UNL d   1      53.218  35.304  55.264  0.00  0.00     0.011 A 
ATOM     24  C   UNL d   1      53.233  35.927  54.724  0.00  0.00     0.058 A 
ATOM     25  C   UNL d   1      53.285  35.783  53.916  0.00  0.00     0.011 A 
ATOM     26 CL   UNL d   1      53.196  36.709  55.000  0.00  0.00    -0.082 Cl
ATOM     27  C   UNL d   1      53.321  35.000  53.644  0.00  0.00     0.001 A 
ENDBRANCH   4  21
TORSDOF 5
ENDMDL
