MODEL 1
REMARK VINA RESULT:      -5.7      0.000      0.000
REMARK  3 active torsions:
REMARK  status: ('A' for Active; 'I' for Inactive)
REMARK    1  A    between atoms: N_2  and  N_1 
REMARK    2  A    between atoms: C_3  and  N_1 
REMARK    3  A    between atoms: C_4  and  N_2 
ROOT
ATOM      1  N   UNL d   1     -41.225-122.439 -52.852  0.00  0.00    -0.148 NA
ENDROOT
BRANCH   1   2
ATOM      2  N   UNL d   1     -41.854-122.693 -53.312  0.00  0.00    -0.148 NA
BRANCH   2   3
ATOM      3  C   UNL d   1     -41.905-122.421 -54.113  0.00  0.00     0.103 A 
ATOM      4  C   UNL d   1     -41.359-122.677 -54.670  0.00  0.00     0.021 A 
ATOM      5  C   UNL d   1     -41.407-122.414 -55.451  0.00  0.00     0.002 A 
ATOM      6  C   UNL d   1     -42.011-121.886 -55.673  0.00  0.00     0.000 A 
ATOM      7  C   UNL d   1     -42.554-121.633 -55.111  0.00  0.00     0.002 A 
ATOM      8  C   UNL d   1     -42.510-121.892 -54.335  0.00  0.00     0.021 A 
ENDBRANCH   2   3
ENDBRANCH   1   2
BRANCH   1   9
ATOM      9  C   UNL d   1     -41.238-122.611 -52.043  0.00  0.00     0.103 A 
ATOM     10  C   UNL d   1     -41.363-122.014 -51.493  0.00  0.00     0.022 A 
ATOM     11  C   UNL d   1     -41.373-122.201 -50.682  0.00  0.00     0.022 A 
ATOM     12  C   UNL d   1     -41.262-122.952 -50.436  0.00  0.00     0.103 A 
ATOM     13  C   UNL d   1     -41.135-123.563 -50.986  0.00  0.00     0.022 A 
ATOM     14  N   UNL d   1     -41.276-123.121 -49.618  0.00  0.00    -0.148 N 
ATOM     15  C   UNL d   1     -41.123-123.392 -51.788  0.00  0.00     0.022 A 
ENDBRANCH   1   9
TORSDOF 3
ENDMDL
MODEL 2
REMARK VINA RESULT:      -4.7      1.528      4.276
REMARK  3 active torsions:
REMARK  status: ('A' for Active; 'I' for Inactive)
REMARK    1  A    between atoms: N_2  and  N_1 
REMARK    2  A    between atoms: C_3  and  N_1 
REMARK    3  A    between atoms: C_4  and  N_2 
ROOT
ATOM      1  N   UNL d   1     -41.339-123.133 -51.061  0.00  0.00    -0.148 NA
ENDROOT
BRANCH   1   2
ATOM      2  N   UNL d   1     -42.068-123.298 -50.724  0.00  0.00    -0.148 NA
BRANCH   2   3
ATOM      3  C   UNL d   1     -42.143-123.256 -49.882  0.00  0.00     0.103 A 
ATOM      4  C   UNL d   1     -41.596-123.636 -49.401  0.00  0.00     0.021 A 
ATOM      5  C   UNL d   1     -41.667-123.597 -48.580  0.00  0.00     0.002 A 
ATOM      6  C   UNL d   1     -42.296-123.172 -48.238  0.00  0.00     0.000 A 
ATOM      7  C   UNL d   1     -42.841-122.795 -48.725  0.00  0.00     0.002 A 
ATOM      8  C   UNL d   1     -42.773-122.831 -49.540  0.00  0.00     0.021 A 
ENDBRANCH   2   3
ENDBRANCH   1   2
BRANCH   1   9
ATOM      9  C   UNL d   1     -41.285-123.110 -51.886  0.00  0.00     0.103 A 
ATOM     10  C   UNL d   1     -41.299-122.391 -52.283  0.00  0.00     0.022 A 
ATOM     11  C   UNL d   1     -41.244-122.382 -53.114  0.00  0.00     0.022 A 
ATOM     12  C   UNL d   1     -41.178-123.062 -53.524  0.00  0.00     0.103 A 
ATOM     13  C   UNL d   1     -41.163-123.795 -53.131  0.00  0.00     0.022 A 
ATOM     14  N   UNL d   1     -41.123-123.034 -54.358  0.00  0.00    -0.148 N 
ATOM     15  C   UNL d   1     -41.217-123.817 -52.313  0.00  0.00     0.022 A 
ENDBRANCH   1   9
TORSDOF 3
ENDMDL
MODEL 3
REMARK VINA RESULT:      -4.5      1.141      1.692
REMARK  3 active torsions:
REMARK  status: ('A' for Active; 'I' for Inactive)
REMARK    1  A    between atoms: N_2  and  N_1 
REMARK    2  A    between atoms: C_3  and  N_1 
REMARK    3  A    between atoms: C_4  and  N_2 
ROOT
ATOM      1  N   UNL d   1     -41.807-123.335 -51.604  0.00  0.00    -0.148 NA
ENDROOT
BRANCH   1   2
ATOM      2  N   UNL d   1     -41.191-123.057 -52.068  0.00  0.00    -0.148 NA
BRANCH   2   3
ATOM      3  C   UNL d   1     -41.282-123.069 -52.910  0.00  0.00     0.103 A 
ATOM      4  C   UNL d   1     -41.182-123.771 -53.324  0.00  0.00     0.021 A 
ATOM      5  C   UNL d   1     -41.270-123.786 -54.145  0.00  0.00     0.002 A 
ATOM      6  C   UNL d   1     -41.460-123.085 -54.553  0.00  0.00     0.000 A 
ATOM      7  C   UNL d   1     -41.559-122.386 -54.132  0.00  0.00     0.002 A 
ATOM      8  C   UNL d   1     -41.472-122.368 -53.318  0.00  0.00     0.021 A 
ENDBRANCH   2   3
ENDBRANCH   1   2
BRANCH   1   9
ATOM      9  C   UNL d   1     -41.720-123.307 -50.782  0.00  0.00     0.103 A 
ATOM     10  C   UNL d   1     -41.200-123.817 -50.402  0.00  0.00     0.022 A 
ATOM     11  C   UNL d   1     -41.123-123.778 -49.574  0.00  0.00     0.022 A 
ATOM     12  C   UNL d   1     -41.547-123.254 -49.149  0.00  0.00     0.103 A 
ATOM     13  C   UNL d   1     -42.076-122.733 -49.525  0.00  0.00     0.022 A 
ATOM     14  N   UNL d   1     -41.456-123.230 -48.318  0.00  0.00    -0.148 N 
ATOM     15  C   UNL d   1     -42.161-122.761 -50.340  0.00  0.00     0.022 A 
ENDBRANCH   1   9
TORSDOF 3
ENDMDL
