MODEL 1
REMARK VINA RESULT:      64.0      0.000      0.000
REMARK  5 active torsions:
REMARK  status: ('A' for Active; 'I' for Inactive)
REMARK    1  A    between atoms: C_7  and  C_1 
REMARK    2  A    between atoms: N_8  and  C_7 
REMARK    3  A    between atoms: C_9  and  N_8 
REMARK    4  A    between atoms: O_17  and  C_13 
REMARK    5  A    between atoms: O_20  and  C_15 
ROOT
ATOM      1  C   UNL d   1     -50.757  26.279  33.321  0.00  0.00     0.145 A 
ATOM      2  C   UNL d   1     -50.305  25.588  33.329  0.00  0.00     0.305 A 
ATOM      3  C   UNL d   1     -51.578  26.235  33.314  0.00  0.00     0.305 A 
ATOM      4  O   UNL d   1     -51.951  25.500  33.313  0.00  0.00    -0.269 OA
ATOM      5  O   UNL d   1     -50.681  24.862  33.328  0.00  0.00    -0.269 OA
ATOM      6  C   UNL d   1     -51.503  24.818  33.321  0.00  0.00     0.242 A 
ATOM      7  O   UNL d   1     -52.038  26.933  33.306  0.00  0.00    -0.259 OA
ATOM      8  O   UNL d   1     -49.483  25.632  33.336  0.00  0.00    -0.259 OA
ATOM      9  C   UNL d   1     -52.237  25.189  33.312  0.00  0.00     0.035 A 
ATOM     10  C   UNL d   1     -51.458  23.984  33.325  0.00  0.00     0.035 A 
ATOM     11  C   UNL d   1     -52.149  23.534  33.321  0.00  0.00     0.001 A 
ATOM     12  C   UNL d   1     -52.928  24.742  33.308  0.00  0.00     0.001 A 
ATOM     13  C   UNL d   1     -52.884  23.908  33.312  0.00  0.00    -0.000 A 
ENDROOT
BRANCH   1  14
ATOM     14  C   UNL d   1     -50.382  27.021  33.321  0.00  0.00     0.110 C 
BRANCH  14  15
ATOM     15  N   UNL d   1     -49.633  27.106  33.658  0.00  0.00    -0.242 NA
BRANCH  15  16
ATOM     16  C   UNL d   1     -49.378  27.849  33.908  0.00  0.00     0.106 A 
ATOM     17  C   UNL d   1     -49.788  28.525  33.680  0.00  0.00     0.045 A 
ATOM     18  C   UNL d   1     -49.538  29.263  33.926  0.00  0.00     0.096 A 
ATOM     19  C   UNL d   1     -48.863  29.334  34.411  0.00  0.00     0.026 A 
ATOM     20  C   UNL d   1     -48.452  28.658  34.640  0.00  0.00     0.028 A 
ATOM     21  C   UNL d   1     -48.710  27.913  34.388  0.00  0.00     0.112 A 
BRANCH  18  22
ATOM     22  O   UNL d   1     -49.950  29.935  33.696  0.00  0.00    -0.328 OA
ATOM     23  C   UNL d   1     -49.612  30.682  33.788  0.00  0.00     0.181 C 
ENDBRANCH  18  22
BRANCH  21  24
ATOM     24  O   UNL d   1     -48.299  27.237  34.616  0.00  0.00    -0.327 OA
ATOM     25  C   UNL d   1     -47.533  27.298  34.900  0.00  0.00     0.181 C 
ENDBRANCH  21  24
ENDBRANCH  15  16
ENDBRANCH  14  15
ENDBRANCH   1  14
TORSDOF 5
ENDMDL
MODEL 2
REMARK VINA RESULT:      65.5      0.964      1.776
REMARK  5 active torsions:
REMARK  status: ('A' for Active; 'I' for Inactive)
REMARK    1  A    between atoms: C_7  and  C_1 
REMARK    2  A    between atoms: N_8  and  C_7 
REMARK    3  A    between atoms: C_9  and  N_8 
REMARK    4  A    between atoms: O_17  and  C_13 
REMARK    5  A    between atoms: O_20  and  C_15 
ROOT
ATOM      1  C   UNL d   1     -50.077  27.391  33.536  0.00  0.00     0.145 A 
ATOM      2  C   UNL d   1     -50.893  27.502  33.479  0.00  0.00     0.305 A 
ATOM      3  C   UNL d   1     -49.762  26.630  33.531  0.00  0.00     0.305 A 
ATOM      4  O   UNL d   1     -50.263  25.979  33.469  0.00  0.00    -0.269 OA
ATOM      5  O   UNL d   1     -51.384  26.851  33.419  0.00  0.00    -0.269 OA
ATOM      6  C   UNL d   1     -51.070  26.090  33.413  0.00  0.00     0.242 A 
ATOM      7  O   UNL d   1     -48.937  26.514  33.588  0.00  0.00    -0.259 OA
ATOM      8  O   UNL d   1     -51.207  28.262  33.485  0.00  0.00    -0.259 OA
ATOM      9  C   UNL d   1     -50.419  25.586  33.443  0.00  0.00     0.035 A 
ATOM     10  C   UNL d   1     -51.839  25.773  33.344  0.00  0.00     0.035 A 
ATOM     11  C   UNL d   1     -51.947  24.956  33.306  0.00  0.00     0.001 A 
ATOM     12  C   UNL d   1     -50.524  24.771  33.404  0.00  0.00     0.001 A 
ATOM     13  C   UNL d   1     -51.293  24.453  33.335  0.00  0.00    -0.000 A 
ENDROOT
BRANCH   1  14
ATOM     14  C   UNL d   1     -49.571  28.047  33.598  0.00  0.00     0.110 C 
BRANCH  14  15
ATOM     15  N   UNL d   1     -49.220  28.231  34.322  0.00  0.00    -0.242 NA
BRANCH  15  16
ATOM     16  C   UNL d   1     -48.871  28.970  34.432  0.00  0.00     0.106 A 
ATOM     17  C   UNL d   1     -49.115  29.613  33.980  0.00  0.00     0.045 A 
ATOM     18  C   UNL d   1     -48.771  30.348  34.087  0.00  0.00     0.096 A 
ATOM     19  C   UNL d   1     -48.170  30.448  34.656  0.00  0.00     0.026 A 
ATOM     20  C   UNL d   1     -47.926  29.805  35.108  0.00  0.00     0.028 A 
ATOM     21  C   UNL d   1     -48.277  29.063  34.997  0.00  0.00     0.112 A 
BRANCH  18  22
ATOM     22  O   UNL d   1     -49.017  30.987  33.634  0.00  0.00    -0.328 OA
ATOM     23  C   UNL d   1     -48.694  31.735  33.759  0.00  0.00     0.181 C 
ENDBRANCH  18  22
BRANCH  21  24
ATOM     24  O   UNL d   1     -48.033  28.420  35.449  0.00  0.00    -0.327 OA
ATOM     25  C   UNL d   1     -47.347  28.468  35.895  0.00  0.00     0.181 C 
ENDBRANCH  21  24
ENDBRANCH  15  16
ENDBRANCH  14  15
ENDBRANCH   1  14
TORSDOF 5
ENDMDL
MODEL 3
REMARK VINA RESULT:      65.7      1.273      5.228
REMARK  5 active torsions:
REMARK  status: ('A' for Active; 'I' for Inactive)
REMARK    1  A    between atoms: C_7  and  C_1 
REMARK    2  A    between atoms: N_8  and  C_7 
REMARK    3  A    between atoms: C_9  and  N_8 
REMARK    4  A    between atoms: O_17  and  C_13 
REMARK    5  A    between atoms: O_20  and  C_15 
ROOT
ATOM      1  C   UNL d   1     -48.851  28.385  34.512  0.00  0.00     0.145 A 
ATOM      2  C   UNL d   1     -49.019  29.074  34.091  0.00  0.00     0.305 A 
ATOM      3  C   UNL d   1     -48.360  28.413  35.171  0.00  0.00     0.305 A 
ATOM      4  O   UNL d   1     -48.035  29.131  35.411  0.00  0.00    -0.269 OA
ATOM      5  O   UNL d   1     -48.694  29.784  34.335  0.00  0.00    -0.269 OA
ATOM      6  C   UNL d   1     -48.203  29.812  34.994  0.00  0.00     0.242 A 
ATOM      7  O   UNL d   1     -48.187  27.716  35.599  0.00  0.00    -0.259 OA
ATOM      8  O   UNL d   1     -49.511  29.046  33.431  0.00  0.00    -0.259 OA
ATOM      9  C   UNL d   1     -47.822  29.432  35.617  0.00  0.00     0.035 A 
ATOM     10  C   UNL d   1     -48.110  30.635  34.890  0.00  0.00     0.035 A 
ATOM     11  C   UNL d   1     -47.638  31.067  35.411  0.00  0.00     0.001 A 
ATOM     12  C   UNL d   1     -47.350  29.861  36.138  0.00  0.00     0.001 A 
ATOM     13  C   UNL d   1     -47.258  30.684  36.034  0.00  0.00    -0.000 A 
ENDROOT
BRANCH   1  14
ATOM     14  C   UNL d   1     -49.178  27.659  34.270  0.00  0.00     0.110 C 
BRANCH  14  15
ATOM     15  N   UNL d   1     -49.881  27.647  33.837  0.00  0.00    -0.242 NA
BRANCH  15  16
ATOM     16  C   UNL d   1     -50.240  26.926  33.660  0.00  0.00     0.106 A 
ATOM     17  C   UNL d   1     -49.791  26.237  33.633  0.00  0.00     0.045 A 
ATOM     18  C   UNL d   1     -50.145  25.520  33.458  0.00  0.00     0.096 A 
ATOM     19  C   UNL d   1     -50.965  25.486  33.306  0.00  0.00     0.026 A 
ATOM     20  C   UNL d   1     -51.414  26.176  33.333  0.00  0.00     0.028 A 
ATOM     21  C   UNL d   1     -51.051  26.899  33.510  0.00  0.00     0.112 A 
BRANCH  18  22
ATOM     22  O   UNL d   1     -49.695  24.835  33.432  0.00  0.00    -0.328 OA
ATOM     23  C   UNL d   1     -50.060  24.098  33.363  0.00  0.00     0.181 C 
ENDBRANCH  18  22
BRANCH  21  24
ATOM     24  O   UNL d   1     -51.500  27.588  33.538  0.00  0.00    -0.327 OA
ATOM     25  C   UNL d   1     -52.317  27.548  33.499  0.00  0.00     0.181 C 
ENDBRANCH  21  24
ENDBRANCH  15  16
ENDBRANCH  14  15
ENDBRANCH   1  14
TORSDOF 5
ENDMDL
