MODEL 1
REMARK VINA RESULT:      46.7      0.000      0.000
REMARK  7 active torsions:
REMARK  status: ('A' for Active; 'I' for Inactive)
REMARK    1  A    between atoms: N_2  and  S_1 
REMARK    2  A    between atoms: C_3  and  S_1 
REMARK    3  A    between atoms: C_16  and  N_2 
REMARK    4  A    between atoms: C_4  and  C_10 
REMARK       I    between atoms: N_7  and  C_4 
REMARK    5  A    between atoms: C_17  and  N_7 
REMARK    6  A    between atoms: C_9  and  C_17 
REMARK    7  A    between atoms: O_23  and  C_20 
ROOT
ATOM      1  C   UNL d   1      13.626  13.766  -4.744  0.00  0.00     0.058 A 
ATOM      2  C   UNL d   1      13.333  12.604  -3.611  0.00  0.00     0.094 A 
ATOM      3  C   UNL d   1      13.418  13.979  -3.976  0.00  0.00     0.006 A 
ATOM      4  C   UNL d   1      13.688  12.968  -4.946  0.00  0.00     0.006 A 
ATOM      5  C   UNL d   1      13.270  13.399  -3.406  0.00  0.00     0.020 A 
ATOM      6  C   UNL d   1      13.543  12.383  -4.385  0.00  0.00     0.020 A 
ENDROOT
BRANCH   2   7
ATOM      7  N   UNL d   1      13.187  12.025  -3.051  0.00  0.00    -0.158 NA
BRANCH   7   8
ATOM      8  S   UNL d   1      13.508  12.097  -2.292  0.00  0.00     0.285 S 
ATOM      9  O   UNL d   1      12.795  12.419  -2.020  0.00  0.00    -0.198 OA
ATOM     10  O   UNL d   1      14.218  11.779  -2.556  0.00  0.00    -0.198 OA
BRANCH   8  11
ATOM     11  C   UNL d   1      13.822  12.172  -1.536  0.00  0.00     0.107 A 
ATOM     12  C   UNL d   1      14.488  12.641  -1.413  0.00  0.00     0.037 A 
ATOM     13  C   UNL d   1      14.812  12.722  -0.651  0.00  0.00     0.095 A 
ATOM     14  C   UNL d   1      14.460  12.328  -0.020  0.00  0.00     0.024 A 
ATOM     15  C   UNL d   1      13.793  11.858  -0.139  0.00  0.00     0.003 A 
ATOM     16  C   UNL d   1      13.473  11.779  -0.898  0.00  0.00     0.013 A 
BRANCH  13  17
ATOM     17  O   UNL d   1      15.489  13.198  -0.527  0.00  0.00    -0.328 OA
ATOM     18  C   UNL d   1      15.395  14.004  -0.353  0.00  0.00     0.181 C 
ENDBRANCH  13  17
ENDBRANCH   8  11
ENDBRANCH   7   8
ENDBRANCH   2   7
BRANCH   1  19
ATOM     19  C   UNL d   1      13.776  14.351  -5.320  0.00  0.00     0.279 C 
ATOM     20  N   UNL d   1      13.915  15.126  -5.088  0.00  0.00    -0.204 NA
ATOM     21  O   UNL d   1      13.784  14.150  -6.126  0.00  0.00    -0.265 OA
BRANCH  20  22
ATOM     22  C   UNL d   1      14.064  15.709  -5.661  0.00  0.00     0.127 C 
BRANCH  22  23
ATOM     23  C   UNL d   1      14.378  16.447  -5.430  0.00  0.00     0.119 A 
ATOM     24  O   UNL d   1      14.091  17.183  -5.651  0.00  0.00    -0.304 OA
ATOM     25  C   UNL d   1      14.569  17.750  -5.296  0.00  0.00     0.123 A 
ATOM     26  C   UNL d   1      15.141  17.363  -4.864  0.00  0.00     0.029 A 
ATOM     27  C   UNL d   1      15.023  16.553  -4.947  0.00  0.00     0.028 A 
ENDBRANCH  22  23
ENDBRANCH  20  22
ENDBRANCH   1  19
TORSDOF 7
ENDMDL
MODEL 2
REMARK VINA RESULT:      49.2      1.498      2.619
REMARK  7 active torsions:
REMARK  status: ('A' for Active; 'I' for Inactive)
REMARK    1  A    between atoms: N_2  and  S_1 
REMARK    2  A    between atoms: C_3  and  S_1 
REMARK    3  A    between atoms: C_16  and  N_2 
REMARK    4  A    between atoms: C_4  and  C_10 
REMARK       I    between atoms: N_7  and  C_4 
REMARK    5  A    between atoms: C_17  and  N_7 
REMARK    6  A    between atoms: C_9  and  C_17 
REMARK    7  A    between atoms: O_23  and  C_20 
ROOT
ATOM      1  C   UNL d   1      14.363  16.152  -5.048  0.00  0.00     0.058 A 
ATOM      2  C   UNL d   1      13.477  14.764  -4.966  0.00  0.00     0.094 A 
ATOM      3  C   UNL d   1      13.910  15.988  -4.378  0.00  0.00     0.006 A 
ATOM      4  C   UNL d   1      14.372  15.620  -5.678  0.00  0.00     0.006 A 
ATOM      5  C   UNL d   1      13.466  15.293  -4.335  0.00  0.00     0.020 A 
ATOM      6  C   UNL d   1      13.931  14.924  -5.643  0.00  0.00     0.020 A 
ENDROOT
BRANCH   2   7
ATOM      7  N   UNL d   1      13.038  14.073  -4.928  0.00  0.00    -0.158 NA
BRANCH   7   8
ATOM      8  S   UNL d   1      13.171  13.536  -4.313  0.00  0.00     0.285 S 
ATOM      9  O   UNL d   1      13.577  13.037  -4.835  0.00  0.00    -0.198 OA
ATOM     10  O   UNL d   1      12.769  14.026  -3.791  0.00  0.00    -0.198 OA
BRANCH   8  11
ATOM     11  C   UNL d   1      13.305  12.998  -3.706  0.00  0.00     0.107 A 
ATOM     12  C   UNL d   1      13.913  13.132  -3.166  0.00  0.00     0.037 A 
ATOM     13  C   UNL d   1      14.056  12.594  -2.549  0.00  0.00     0.095 A 
ATOM     14  C   UNL d   1      13.583  11.923  -2.482  0.00  0.00     0.024 A 
ATOM     15  C   UNL d   1      12.973  11.786  -3.021  0.00  0.00     0.003 A 
ATOM     16  C   UNL d   1      12.833  12.323  -3.634  0.00  0.00     0.013 A 
BRANCH  13  17
ATOM     17  O   UNL d   1      14.673  12.730  -2.002  0.00  0.00    -0.328 OA
ATOM     18  C   UNL d   1      14.531  12.625  -1.191  0.00  0.00     0.181 C 
ENDBRANCH  13  17
ENDBRANCH   8  11
ENDBRANCH   7   8
ENDBRANCH   2   7
BRANCH   1  19
ATOM     19  C   UNL d   1      14.812  16.854  -5.093  0.00  0.00     0.279 C 
ATOM     20  N   UNL d   1      14.470  17.539  -5.390  0.00  0.00    -0.204 NA
ATOM     21  O   UNL d   1      15.603  16.860  -4.839  0.00  0.00    -0.265 OA
BRANCH  20  22
ATOM     22  C   UNL d   1      14.918  18.238  -5.436  0.00  0.00     0.127 C 
BRANCH  22  23
ATOM     23  C   UNL d   1      14.545  18.956  -5.640  0.00  0.00     0.119 A 
ATOM     24  O   UNL d   1      14.605  19.664  -5.229  0.00  0.00    -0.304 OA
ATOM     25  C   UNL d   1      14.148  20.219  -5.628  0.00  0.00     0.123 A 
ATOM     26  C   UNL d   1      13.814  19.854  -6.275  0.00  0.00     0.029 A 
ATOM     27  C   UNL d   1      14.060  19.069  -6.282  0.00  0.00     0.028 A 
ENDBRANCH  22  23
ENDBRANCH  20  22
ENDBRANCH   1  19
TORSDOF 7
ENDMDL
