MODEL 1
REMARK VINA RESULT:      -6.6      0.000      0.000
REMARK  6 active torsions:
REMARK  status: ('A' for Active; 'I' for Inactive)
REMARK    1  A    between atoms: C_6  and  N_2 
REMARK    2  A    between atoms: C_7  and  C_3 
REMARK    3  A    between atoms: C_10  and  C_6 
REMARK    4  A    between atoms: C_15  and  C_7 
REMARK    5  A    between atoms: O_8  and  C_10 
REMARK    6  A    between atoms: C_9  and  O_8 
ROOT
ATOM      1  N   UNL d   1     -51.020  13.778  23.543  0.00  0.00    -0.227 NA
ATOM      2  N   UNL d   1     -49.696  13.672  23.386  0.00  0.00    -0.287 N 
ATOM      3  C   UNL d   1     -50.398  13.223  23.467  0.00  0.00     0.148 A 
ATOM      4  C   UNL d   1     -49.887  14.469  23.413  0.00  0.00     0.083 A 
ATOM      5  C   UNL d   1     -50.740  14.537  23.514  0.00  0.00     0.099 A 
ATOM      6  C   UNL d   1     -49.417  15.132  23.361  0.00  0.00     0.019 A 
ATOM      7  C   UNL d   1     -51.037  15.315  23.553  0.00  0.00     0.021 A 
ATOM      8  C   UNL d   1     -49.777  15.856  23.408  0.00  0.00     0.002 A 
ATOM      9  C   UNL d   1     -50.577  15.920  23.502  0.00  0.00     0.002 A 
ENDROOT
BRANCH   2  10
ATOM     10  C   UNL d   1     -49.036  13.229  23.306  0.00  0.00     0.108 C 
BRANCH  10  11
ATOM     11  C   UNL d   1     -48.297  13.560  23.184  0.00  0.00     0.142 C 
BRANCH  11  12
ATOM     12  O   UNL d   1     -47.600  13.164  23.340  0.00  0.00    -0.304 OA
BRANCH  12  13
ATOM     13  C   UNL d   1     -46.879  13.362  22.992  0.00  0.00     0.100 A 
ATOM     14  C   UNL d   1     -46.579  14.129  22.965  0.00  0.00     0.025 A 
ATOM     15  C   UNL d   1     -45.859  14.325  22.618  0.00  0.00     0.002 A 
ATOM     16  C   UNL d   1     -45.408  13.714  22.274  0.00  0.00     0.000 A 
ATOM     17  C   UNL d   1     -45.691  12.926  22.289  0.00  0.00     0.002 A 
ATOM     18  C   UNL d   1     -46.428  12.751  22.649  0.00  0.00     0.025 A 
ENDBRANCH  12  13
ENDBRANCH  11  12
ENDBRANCH  10  11
ENDBRANCH   2  10
BRANCH   3  19
ATOM     19  C   UNL d   1     -50.043  12.499  23.421  0.00  0.00     0.037 C 
BRANCH  19  20
ATOM     20  C   UNL d   1     -50.516  11.812  23.347  0.00  0.00     0.003 C 
ATOM     21  C   UNL d   1     -50.278  11.093  23.698  0.00  0.00     0.000 C 
ENDBRANCH  19  20
ENDBRANCH   3  19
TORSDOF 6
ENDMDL
MODEL 2
REMARK VINA RESULT:      -6.3      0.830      2.471
REMARK  6 active torsions:
REMARK  status: ('A' for Active; 'I' for Inactive)
REMARK    1  A    between atoms: C_6  and  N_2 
REMARK    2  A    between atoms: C_7  and  C_3 
REMARK    3  A    between atoms: C_10  and  C_6 
REMARK    4  A    between atoms: C_15  and  C_7 
REMARK    5  A    between atoms: O_8  and  C_10 
REMARK    6  A    between atoms: C_9  and  O_8 
ROOT
ATOM      1  N   UNL d   1     -50.531  13.616  22.982  0.00  0.00    -0.227 NA
ATOM      2  N   UNL d   1     -49.224  13.395  23.160  0.00  0.00    -0.287 N 
ATOM      3  C   UNL d   1     -49.779  13.982  22.939  0.00  0.00     0.148 A 
ATOM      4  C   UNL d   1     -49.626  12.701  23.331  0.00  0.00     0.083 A 
ATOM      5  C   UNL d   1     -50.468  12.844  23.217  0.00  0.00     0.099 A 
ATOM      6  C   UNL d   1     -49.353  11.973  23.571  0.00  0.00     0.019 A 
ATOM      7  C   UNL d   1     -50.967  12.193  23.367  0.00  0.00     0.021 A 
ATOM      8  C   UNL d   1     -49.898  11.387  23.698  0.00  0.00     0.002 A 
ATOM      9  C   UNL d   1     -50.688  11.521  23.590  0.00  0.00     0.002 A 
ENDROOT
BRANCH   2  10
ATOM     10  C   UNL d   1     -48.466  13.647  23.150  0.00  0.00     0.108 C 
BRANCH  10  11
ATOM     11  C   UNL d   1     -47.831  13.131  23.168  0.00  0.00     0.142 C 
BRANCH  11  12
ATOM     12  O   UNL d   1     -47.074  13.360  23.372  0.00  0.00    -0.304 OA
BRANCH  12  13
ATOM     13  C   UNL d   1     -46.395  13.014  23.058  0.00  0.00     0.100 A 
ATOM     14  C   UNL d   1     -46.141  12.252  23.246  0.00  0.00     0.025 A 
ATOM     15  C   UNL d   1     -45.463  11.907  22.932  0.00  0.00     0.002 A 
ATOM     16  C   UNL d   1     -45.008  12.352  22.395  0.00  0.00     0.000 A 
ATOM     17  C   UNL d   1     -45.244  13.128  22.188  0.00  0.00     0.002 A 
ATOM     18  C   UNL d   1     -45.939  13.458  22.521  0.00  0.00     0.025 A 
ENDBRANCH  12  13
ENDBRANCH  11  12
ENDBRANCH  10  11
ENDBRANCH   2  10
BRANCH   3  19
ATOM     19  C   UNL d   1     -49.239  14.568  22.811  0.00  0.00     0.037 C 
BRANCH  19  20
ATOM     20  C   UNL d   1     -49.504  15.349  22.664  0.00  0.00     0.003 C 
ATOM     21  C   UNL d   1     -48.985  15.922  22.353  0.00  0.00     0.000 C 
ENDBRANCH  19  20
ENDBRANCH   3  19
TORSDOF 6
ENDMDL
MODEL 3
REMARK VINA RESULT:      -5.8      9.688     10.605
REMARK  6 active torsions:
REMARK  status: ('A' for Active; 'I' for Inactive)
REMARK    1  A    between atoms: C_6  and  N_2 
REMARK    2  A    between atoms: C_7  and  C_3 
REMARK    3  A    between atoms: C_10  and  C_6 
REMARK    4  A    between atoms: C_15  and  C_7 
REMARK    5  A    between atoms: O_8  and  C_10 
REMARK    6  A    between atoms: C_9  and  O_8 
ROOT
ATOM      1  N   UNL d   1     -39.772  14.376  16.694  0.00  0.00    -0.227 NA
ATOM      2  N   UNL d   1     -39.769  14.378  18.031  0.00  0.00    -0.287 N 
ATOM      3  C   UNL d   1     -39.416  14.019  17.362  0.00  0.00     0.148 A 
ATOM      4  C   UNL d   1     -40.318  14.931  17.776  0.00  0.00     0.083 A 
ATOM      5  C   UNL d   1     -40.320  14.929  16.914  0.00  0.00     0.099 A 
ATOM      6  C   UNL d   1     -40.809  15.427  18.195  0.00  0.00     0.019 A 
ATOM      7  C   UNL d   1     -40.850  15.463  16.554  0.00  0.00     0.021 A 
ATOM      8  C   UNL d   1     -41.298  15.918  17.776  0.00  0.00     0.002 A 
ATOM      9  C   UNL d   1     -41.299  15.917  16.968  0.00  0.00     0.002 A 
ENDROOT
BRANCH   2  10
ATOM     10  C   UNL d   1     -39.494  14.103  18.729  0.00  0.00     0.108 C 
BRANCH  10  11
ATOM     11  C   UNL d   1     -39.496  14.555  19.411  0.00  0.00     0.142 C 
BRANCH  11  12
ATOM     12  O   UNL d   1     -39.211  14.285  20.127  0.00  0.00    -0.304 OA
BRANCH  12  13
ATOM     13  C   UNL d   1     -39.173  14.752  20.806  0.00  0.00     0.100 A 
ATOM     14  C   UNL d   1     -38.624  15.358  20.913  0.00  0.00     0.025 A 
ATOM     15  C   UNL d   1     -38.586  15.823  21.591  0.00  0.00     0.002 A 
ATOM     16  C   UNL d   1     -39.132  15.674  22.202  0.00  0.00     0.000 A 
ATOM     17  C   UNL d   1     -39.699  15.064  22.117  0.00  0.00     0.002 A 
ATOM     18  C   UNL d   1     -39.718  14.603  21.417  0.00  0.00     0.025 A 
ENDBRANCH  12  13
ENDBRANCH  11  12
ENDBRANCH  10  11
ENDBRANCH   2  10
BRANCH   3  19
ATOM     19  C   UNL d   1     -38.927  13.528  17.776  0.00  0.00     0.037 C 
BRANCH  19  20
ATOM     20  C   UNL d   1     -38.389  13.037  17.363  0.00  0.00     0.003 C 
ATOM     21  C   UNL d   1     -38.057  12.366  17.731  0.00  0.00     0.000 C 
ENDBRANCH  19  20
ENDBRANCH   3  19
TORSDOF 6
ENDMDL
MODEL 4
REMARK VINA RESULT:      -5.5      1.867      3.481
REMARK  6 active torsions:
REMARK  status: ('A' for Active; 'I' for Inactive)
REMARK    1  A    between atoms: C_6  and  N_2 
REMARK    2  A    between atoms: C_7  and  C_3 
REMARK    3  A    between atoms: C_10  and  C_6 
REMARK    4  A    between atoms: C_15  and  C_7 
REMARK    5  A    between atoms: O_8  and  C_10 
REMARK    6  A    between atoms: C_9  and  O_8 
ROOT
ATOM      1  N   UNL d   1     -48.730  13.435  22.980  0.00  0.00    -0.227 NA
ATOM      2  N   UNL d   1     -47.585  12.794  23.237  0.00  0.00    -0.287 N 
ATOM      3  C   UNL d   1     -47.900  13.536  23.007  0.00  0.00     0.148 A 
ATOM      4  C   UNL d   1     -48.203  12.266  23.346  0.00  0.00     0.083 A 
ATOM      5  C   UNL d   1     -48.941  12.680  23.180  0.00  0.00     0.099 A 
ATOM      6  C   UNL d   1     -48.202  11.483  23.568  0.00  0.00     0.019 A 
ATOM      7  C   UNL d   1     -49.635  12.225  23.264  0.00  0.00     0.021 A 
ATOM      8  C   UNL d   1     -48.916  11.106  23.627  0.00  0.00     0.002 A 
ATOM      9  C   UNL d   1     -49.608  11.493  23.472  0.00  0.00     0.002 A 
ENDROOT
BRANCH   2  10
ATOM     10  C   UNL d   1     -46.788  12.784  23.292  0.00  0.00     0.108 C 
BRANCH  10  11
ATOM     11  C   UNL d   1     -46.357  12.089  23.293  0.00  0.00     0.142 C 
BRANCH  11  12
ATOM     12  O   UNL d   1     -45.566  12.053  23.091  0.00  0.00    -0.304 OA
BRANCH  12  13
ATOM     13  C   UNL d   1     -45.090  11.395  23.234  0.00  0.00     0.100 A 
ATOM     14  C   UNL d   1     -45.370  10.689  23.555  0.00  0.00     0.025 A 
ATOM     15  C   UNL d   1     -44.894  10.033  23.697  0.00  0.00     0.002 A 
ATOM     16  C   UNL d   1     -44.085  10.085  23.506  0.00  0.00     0.000 A 
ATOM     17  C   UNL d   1     -43.776  10.791  23.179  0.00  0.00     0.002 A 
ATOM     18  C   UNL d   1     -44.281  11.447  23.043  0.00  0.00     0.025 A 
ENDBRANCH  12  13
ENDBRANCH  11  12
ENDBRANCH  10  11
ENDBRANCH   2  10
BRANCH   3  19
ATOM     19  C   UNL d   1     -47.190  13.915  22.946  0.00  0.00     0.037 C 
BRANCH  19  20
ATOM     20  C   UNL d   1     -47.146  14.644  22.536  0.00  0.00     0.003 C 
ATOM     21  C   UNL d   1     -46.445  15.095  22.546  0.00  0.00     0.000 C 
ENDBRANCH  19  20
ENDBRANCH   3  19
TORSDOF 6
ENDMDL
MODEL 5
REMARK VINA RESULT:      -5.4      1.285      1.812
REMARK  6 active torsions:
REMARK  status: ('A' for Active; 'I' for Inactive)
REMARK    1  A    between atoms: C_6  and  N_2 
REMARK    2  A    between atoms: C_7  and  C_3 
REMARK    3  A    between atoms: C_10  and  C_6 
REMARK    4  A    between atoms: C_15  and  C_7 
REMARK    5  A    between atoms: O_8  and  C_10 
REMARK    6  A    between atoms: C_9  and  O_8 
ROOT
ATOM      1  N   UNL d   1     -49.379  13.510  22.979  0.00  0.00    -0.227 NA
ATOM      2  N   UNL d   1     -48.046  13.451  23.063  0.00  0.00    -0.287 N 
ATOM      3  C   UNL d   1     -48.744  13.003  23.178  0.00  0.00     0.148 A 
ATOM      4  C   UNL d   1     -48.252  14.201  22.805  0.00  0.00     0.083 A 
ATOM      5  C   UNL d   1     -49.112  14.240  22.750  0.00  0.00     0.099 A 
ATOM      6  C   UNL d   1     -47.791  14.845  22.614  0.00  0.00     0.019 A 
ATOM      7  C   UNL d   1     -49.424  14.969  22.493  0.00  0.00     0.021 A 
ATOM      8  C   UNL d   1     -48.166  15.521  22.372  0.00  0.00     0.002 A 
ATOM      9  C   UNL d   1     -48.972  15.556  22.321  0.00  0.00     0.002 A 
ENDROOT
BRANCH   2  10
ATOM     10  C   UNL d   1     -47.374  13.052  23.228  0.00  0.00     0.108 C 
BRANCH  10  11
ATOM     11  C   UNL d   1     -46.667  13.203  22.846  0.00  0.00     0.142 C 
BRANCH  11  12
ATOM     12  O   UNL d   1     -45.942  12.962  23.134  0.00  0.00    -0.304 OA
BRANCH  12  13
ATOM     13  C   UNL d   1     -45.281  12.843  22.657  0.00  0.00     0.100 A 
ATOM     14  C   UNL d   1     -45.070  13.340  22.034  0.00  0.00     0.025 A 
ATOM     15  C   UNL d   1     -44.410  13.220  21.558  0.00  0.00     0.002 A 
ATOM     16  C   UNL d   1     -43.927  12.560  21.714  0.00  0.00     0.000 A 
ATOM     17  C   UNL d   1     -44.119  12.039  22.340  0.00  0.00     0.002 A 
ATOM     18  C   UNL d   1     -44.798  12.182  22.812  0.00  0.00     0.025 A 
ENDBRANCH  12  13
ENDBRANCH  11  12
ENDBRANCH  10  11
ENDBRANCH   2  10
BRANCH   3  19
ATOM     19  C   UNL d   1     -48.374  12.327  23.419  0.00  0.00     0.037 C 
BRANCH  19  20
ATOM     20  C   UNL d   1     -48.832  11.683  23.698  0.00  0.00     0.003 C 
ATOM     21  C   UNL d   1     -48.520  10.910  23.697  0.00  0.00     0.000 C 
ENDBRANCH  19  20
ENDBRANCH   3  19
TORSDOF 6
ENDMDL
MODEL 6
REMARK VINA RESULT:      -5.2      8.516     10.674
REMARK  6 active torsions:
REMARK  status: ('A' for Active; 'I' for Inactive)
REMARK    1  A    between atoms: C_6  and  N_2 
REMARK    2  A    between atoms: C_7  and  C_3 
REMARK    3  A    between atoms: C_10  and  C_6 
REMARK    4  A    between atoms: C_15  and  C_7 
REMARK    5  A    between atoms: O_8  and  C_10 
REMARK    6  A    between atoms: C_9  and  O_8 
ROOT
ATOM      1  N   UNL d   1     -39.721  14.638  21.917  0.00  0.00    -0.227 NA
ATOM      2  N   UNL d   1     -39.464  14.420  20.623  0.00  0.00    -0.287 N 
ATOM      3  C   UNL d   1     -39.955  14.855  21.143  0.00  0.00     0.148 A 
ATOM      4  C   UNL d   1     -38.952  13.957  21.066  0.00  0.00     0.083 A 
ATOM      5  C   UNL d   1     -39.118  14.098  21.900  0.00  0.00     0.099 A 
ATOM      6  C   UNL d   1     -38.370  13.437  20.836  0.00  0.00     0.019 A 
ATOM      7  C   UNL d   1     -38.646  13.670  22.438  0.00  0.00     0.021 A 
ATOM      8  C   UNL d   1     -37.951  13.057  21.417  0.00  0.00     0.002 A 
ATOM      9  C   UNL d   1     -38.106  13.189  22.198  0.00  0.00     0.002 A 
ENDROOT
BRANCH   2  10
ATOM     10  C   UNL d   1     -39.610  14.557  19.850  0.00  0.00     0.108 C 
BRANCH  10  11
ATOM     11  C   UNL d   1     -39.251  14.130  19.251  0.00  0.00     0.142 C 
BRANCH  11  12
ATOM     12  O   UNL d   1     -39.458  14.201  18.465  0.00  0.00    -0.304 OA
BRANCH  12  13
ATOM     13  C   UNL d   1     -38.971  13.960  17.844  0.00  0.00     0.100 A 
ATOM     14  C   UNL d   1     -38.908  13.179  17.589  0.00  0.00     0.025 A 
ATOM     15  C   UNL d   1     -38.423  12.939  16.969  0.00  0.00     0.002 A 
ATOM     16  C   UNL d   1     -37.970  13.518  16.577  0.00  0.00     0.000 A 
ATOM     17  C   UNL d   1     -38.016  14.319  16.817  0.00  0.00     0.002 A 
ATOM     18  C   UNL d   1     -38.518  14.539  17.452  0.00  0.00     0.025 A 
ENDBRANCH  12  13
ENDBRANCH  11  12
ENDBRANCH  10  11
ENDBRANCH   2  10
BRANCH   3  19
ATOM     19  C   UNL d   1     -40.374  15.236  20.568  0.00  0.00     0.037 C 
BRANCH  19  20
ATOM     20  C   UNL d   1     -40.835  15.906  20.768  0.00  0.00     0.003 C 
ATOM     21  C   UNL d   1     -41.655  15.919  20.615  0.00  0.00     0.000 C 
ENDBRANCH  19  20
ENDBRANCH   3  19
TORSDOF 6
ENDMDL
MODEL 7
REMARK VINA RESULT:      -4.8      7.747     10.033
REMARK  6 active torsions:
REMARK  status: ('A' for Active; 'I' for Inactive)
REMARK    1  A    between atoms: C_6  and  N_2 
REMARK    2  A    between atoms: C_7  and  C_3 
REMARK    3  A    between atoms: C_10  and  C_6 
REMARK    4  A    between atoms: C_15  and  C_7 
REMARK    5  A    between atoms: O_8  and  C_10 
REMARK    6  A    between atoms: C_9  and  O_8 
ROOT
ATOM      1  N   UNL d   1     -39.925  14.925  21.887  0.00  0.00    -0.227 NA
ATOM      2  N   UNL d   1     -39.910  14.757  20.561  0.00  0.00    -0.287 N 
ATOM      3  C   UNL d   1     -40.360  14.602  21.250  0.00  0.00     0.148 A 
ATOM      4  C   UNL d   1     -39.227  15.157  20.775  0.00  0.00     0.083 A 
ATOM      5  C   UNL d   1     -39.237  15.266  21.630  0.00  0.00     0.099 A 
ATOM      6  C   UNL d   1     -38.609  15.435  20.324  0.00  0.00     0.019 A 
ATOM      7  C   UNL d   1     -38.580  15.667  21.950  0.00  0.00     0.021 A 
ATOM      8  C   UNL d   1     -38.004  15.816  20.705  0.00  0.00     0.002 A 
ATOM      9  C   UNL d   1     -38.013  15.917  21.507  0.00  0.00     0.002 A 
ENDROOT
BRANCH   2  10
ATOM     10  C   UNL d   1     -40.244  14.485  19.888  0.00  0.00     0.108 C 
BRANCH  10  11
ATOM     11  C   UNL d   1     -40.125  14.844  19.162  0.00  0.00     0.142 C 
BRANCH  11  12
ATOM     12  O   UNL d   1     -40.401  14.532  18.459  0.00  0.00    -0.304 OA
BRANCH  12  13
ATOM     13  C   UNL d   1     -40.389  14.944  17.745  0.00  0.00     0.100 A 
ATOM     14  C   UNL d   1     -40.980  15.468  17.510  0.00  0.00     0.025 A 
ATOM     15  C   UNL d   1     -40.968  15.879  16.796  0.00  0.00     0.002 A 
ATOM     16  C   UNL d   1     -40.323  15.758  16.284  0.00  0.00     0.000 A 
ATOM     17  C   UNL d   1     -39.709  15.230  16.499  0.00  0.00     0.002 A 
ATOM     18  C   UNL d   1     -39.744  14.823  17.232  0.00  0.00     0.025 A 
ENDBRANCH  12  13
ENDBRANCH  11  12
ENDBRANCH  10  11
ENDBRANCH   2  10
BRANCH   3  19
ATOM     19  C   UNL d   1     -40.965  14.222  20.874  0.00  0.00     0.037 C 
BRANCH  19  20
ATOM     20  C   UNL d   1     -41.608  13.927  21.321  0.00  0.00     0.003 C 
ATOM     21  C   UNL d   1     -42.189  13.447  20.964  0.00  0.00     0.000 C 
ENDBRANCH  19  20
ENDBRANCH   3  19
TORSDOF 6
ENDMDL
