MODEL 1
REMARK VINA RESULT:     113.3      0.000      0.000
REMARK  6 active torsions:
REMARK  status: ('A' for Active; 'I' for Inactive)
REMARK    1  A    between atoms: N_6  and  C_1 
REMARK    2  A    between atoms: C_18  and  N_4 
REMARK       I    between atoms: C_8  and  N_6 
REMARK    3  A    between atoms: C_7  and  C_8 
REMARK    4  A    between atoms: C_11  and  C_7 
REMARK    5  A    between atoms: C_19  and  C_9 
REMARK    6  A    between atoms: C_12  and  C_11 
ROOT
ATOM      1  C   UNL d   1      61.362  48.508  50.738  0.00  0.00     0.128 C 
ATOM      2  C   UNL d   1      61.731  48.864  51.361  0.00  0.00     0.106 C 
ATOM      3  N   UNL d   1      62.167  49.210  52.008  0.00  0.00    -0.191 NA
ENDROOT
BRANCH   1   4
ATOM      4  C   UNL d   1      60.572  48.725  50.551  0.00  0.00     0.289 C 
ATOM      5  N   UNL d   1      59.990  48.579  51.114  0.00  0.00    -0.201 NA
ATOM      6  O   UNL d   1      60.395  49.061  49.855  0.00  0.00    -0.264 OA
BRANCH   5   7
ATOM      7  C   UNL d   1      59.194  48.796  50.931  0.00  0.00     0.160 A 
ATOM      8  C   UNL d   1      58.761  48.668  50.240  0.00  0.00     0.298 A 
ATOM      9  N   UNL d   1      58.009  48.999  50.370  0.00  0.00    -0.209 N 
ATOM     10  O   UNL d   1      58.993  48.305  49.572  0.00  0.00    -0.263 OA
ATOM     11  N   UNL d   1      58.027  49.308  51.129  0.00  0.00    -0.238 N 
ATOM     12  C   UNL d   1      58.739  49.201  51.503  0.00  0.00     0.104 A 
ATOM     13  C   UNL d   1      57.352  49.708  51.491  0.00  0.00     0.120 C 
ATOM     14  C   UNL d   1      58.936  49.446  52.266  0.00  0.00     0.022 C 
BRANCH   9  15
ATOM     15  C   UNL d   1      57.349  49.037  49.877  0.00  0.00     0.085 A 
ATOM     16  C   UNL d   1      57.226  48.429  49.332  0.00  0.00     0.019 A 
ATOM     17  C   UNL d   1      56.558  48.461  48.828  0.00  0.00     0.002 A 
ATOM     18  C   UNL d   1      56.033  49.091  48.878  0.00  0.00     0.000 A 
ATOM     19  C   UNL d   1      56.164  49.705  49.433  0.00  0.00     0.002 A 
ATOM     20  C   UNL d   1      56.824  49.667  49.926  0.00  0.00     0.019 A 
ENDBRANCH   9  15
ENDBRANCH   5   7
ENDBRANCH   1   4
BRANCH   1  21
ATOM     21  C   UNL d   1      61.718  47.934  50.267  0.00  0.00     0.040 C 
BRANCH  21  22
ATOM     22  C   UNL d   1      61.527  47.094  50.381  0.00  0.00     0.101 A 
ATOM     23  O   UNL d   1      61.792  46.431  49.903  0.00  0.00    -0.307 OA
ATOM     24  C   UNL d   1      61.464  45.750  50.233  0.00  0.00     0.100 A 
ATOM     25  C   UNL d   1      61.022  45.979  50.880  0.00  0.00     0.027 A 
ATOM     26  C   UNL d   1      61.079  46.809  50.947  0.00  0.00     0.027 A 
BRANCH  24  27
ATOM     27  C   UNL d   1      61.583  44.972  49.935  0.00  0.00     0.023 A 
ATOM     28  C   UNL d   1      61.590  44.850  49.130  0.00  0.00     0.003 A 
ATOM     29  C   UNL d   1      61.709  44.072  48.831  0.00  0.00     0.011 A 
ATOM     30  C   UNL d   1      61.813  43.456  49.354  0.00  0.00     0.058 A 
ATOM     31  C   UNL d   1      61.806  43.578  50.158  0.00  0.00     0.011 A 
ATOM     32 CL   UNL d   1      61.932  42.677  49.055  0.00  0.00    -0.082 Cl
ATOM     33  C   UNL d   1      61.687  44.356  50.457  0.00  0.00     0.003 A 
ENDBRANCH  24  27
ENDBRANCH  21  22
ENDBRANCH   1  21
TORSDOF 6
ENDMDL
