MODEL 1
REMARK VINA RESULT:      56.7      0.000      0.000
REMARK  5 active torsions:
REMARK  status: ('A' for Active; 'I' for Inactive)
REMARK    1  A    between atoms: C_8  and  C_1 
REMARK    2  A    between atoms: C_11  and  C_3 
REMARK    3  A    between atoms: C_7  and  C_4 
REMARK    4  A    between atoms: O_16  and  C_8 
REMARK    5  A    between atoms: C_19  and  O_16 
ROOT
ATOM      1  C   UNL d   1     -57.265 -98.982 -44.500  0.00  0.00     0.102 A 
ATOM      2  C   UNL d   1     -56.975 -99.017 -45.276  0.00  0.00     0.201 A 
ATOM      3  C   UNL d   1     -58.074 -98.916 -44.354  0.00  0.00     0.008 A 
ATOM      4  C   UNL d   1     -58.326 -98.917 -45.747  0.00  0.00     0.009 A 
ATOM      5  C   UNL d   1     -57.517 -98.983 -45.894  0.00  0.00     0.043 A 
ATOM      6  C   UNL d   1     -58.601 -98.884 -44.982  0.00  0.00     0.001 A 
ATOM      7  O   UNL d   1     -56.173 -99.082 -45.421  0.00  0.00    -0.286 OA
ENDROOT
BRANCH   3   8
ATOM      8  C   UNL d   1     -58.347 -98.883 -43.580  0.00  0.00     0.000 A 
ATOM      9  C   UNL d   1     -57.801 -98.788 -42.968  0.00  0.00     0.000 A 
ATOM     10  C   UNL d   1     -58.083 -98.755 -42.192  0.00  0.00     0.000 A 
ATOM     11  C   UNL d   1     -58.868 -98.815 -42.024  0.00  0.00     0.000 A 
ATOM     12  C   UNL d   1     -59.413 -98.911 -42.654  0.00  0.00     0.000 A 
ATOM     13  C   UNL d   1     -59.144 -98.945 -43.431  0.00  0.00     0.000 A 
ENDBRANCH   3   8
BRANCH   1  14
ATOM     14  C   UNL d   1     -56.731 -99.015 -43.864  0.00  0.00     0.303 C 
ATOM     15  O   UNL d   1     -56.998 -98.892 -43.093  0.00  0.00    -0.259 OA
BRANCH  14  16
ATOM     16  O   UNL d   1     -55.930 -99.171 -44.000  0.00  0.00    -0.271 OA
BRANCH  16  17
ATOM     17  C   UNL d   1     -55.578 -99.835 -43.665  0.00  0.00     0.126 C 
ATOM     18  C   UNL d   1     -55.203-100.388 -44.147  0.00  0.00     0.029 C 
ENDBRANCH  16  17
ENDBRANCH  14  16
ENDBRANCH   1  14
BRANCH   4  19
ATOM     19  C   UNL d   1     -58.855 -98.885 -46.384  0.00  0.00     0.030 A 
ATOM     20  S   UNL d   1     -59.670 -98.973 -46.348  0.00  0.00    -0.086 SA
ATOM     21  C   UNL d   1     -59.961 -98.901 -47.096  0.00  0.00     0.035 A 
ATOM     22  C   UNL d   1     -59.335 -98.767 -47.620  0.00  0.00     0.007 A 
ATOM     23  C   UNL d   1     -58.638 -98.755 -47.178  0.00  0.00     0.007 A 
ENDBRANCH   4  19
TORSDOF 5
ENDMDL
MODEL 2
REMARK VINA RESULT:      57.0      2.707      5.415
REMARK  5 active torsions:
REMARK  status: ('A' for Active; 'I' for Inactive)
REMARK    1  A    between atoms: C_8  and  C_1 
REMARK    2  A    between atoms: C_11  and  C_3 
REMARK    3  A    between atoms: C_7  and  C_4 
REMARK    4  A    between atoms: O_16  and  C_8 
REMARK    5  A    between atoms: C_19  and  O_16 
ROOT
ATOM      1  C   UNL d   1     -55.216-100.438 -43.343  0.00  0.00     0.102 A 
ATOM      2  C   UNL d   1     -55.270-100.077 -42.598  0.00  0.00     0.201 A 
ATOM      3  C   UNL d   1     -55.056-101.244 -43.411  0.00  0.00     0.008 A 
ATOM      4  C   UNL d   1     -54.998-101.353 -42.001  0.00  0.00     0.009 A 
ATOM      5  C   UNL d   1     -55.158-100.547 -41.932  0.00  0.00     0.043 A 
ATOM      6  C   UNL d   1     -54.947-101.698 -42.736  0.00  0.00     0.001 A 
ATOM      7  O   UNL d   1     -55.428 -99.279 -42.530  0.00  0.00    -0.286 OA
ENDROOT
BRANCH   3   8
ATOM      8  C   UNL d   1     -55.006-101.588 -44.156  0.00  0.00     0.000 A 
ATOM      9  C   UNL d   1     -55.183-102.390 -44.237  0.00  0.00     0.000 A 
ATOM     10  C   UNL d   1     -55.130-102.729 -44.989  0.00  0.00     0.000 A 
ATOM     11  C   UNL d   1     -54.913-102.298 -45.633  0.00  0.00     0.000 A 
ATOM     12  C   UNL d   1     -54.735-101.485 -45.538  0.00  0.00     0.000 A 
ATOM     13  C   UNL d   1     -54.784-101.136 -44.794  0.00  0.00     0.000 A 
ENDBRANCH   3   8
BRANCH   1  14
ATOM     14  C   UNL d   1     -55.326 -99.978 -44.026  0.00  0.00     0.303 C 
ATOM     15  O   UNL d   1     -54.986-100.213 -44.741  0.00  0.00    -0.259 OA
BRANCH  14  16
ATOM     16  O   UNL d   1     -55.776 -99.285 -43.995  0.00  0.00    -0.271 OA
BRANCH  16  17
ATOM     17  C   UNL d   1     -56.138 -98.999 -44.676  0.00  0.00     0.126 C 
ATOM     18  C   UNL d   1     -56.934 -98.787 -44.659  0.00  0.00     0.029 C 
ENDBRANCH  16  17
ENDBRANCH  14  16
ENDBRANCH   1  14
BRANCH   4  19
ATOM     19  C   UNL d   1     -54.889-101.807 -41.317  0.00  0.00     0.030 A 
ATOM     20  S   UNL d   1     -54.842-102.626 -41.276  0.00  0.00    -0.086 SA
ATOM     21  C   UNL d   1     -54.735-102.830 -40.504  0.00  0.00     0.035 A 
ATOM     22  C   UNL d   1     -54.712-102.143 -40.041  0.00  0.00     0.007 A 
ATOM     23  C   UNL d   1     -54.809-101.499 -40.547  0.00  0.00     0.007 A 
ENDBRANCH   4  19
TORSDOF 5
ENDMDL
MODEL 3
REMARK VINA RESULT:      59.7      1.634      2.910
REMARK  5 active torsions:
REMARK  status: ('A' for Active; 'I' for Inactive)
REMARK    1  A    between atoms: C_8  and  C_1 
REMARK    2  A    between atoms: C_11  and  C_3 
REMARK    3  A    between atoms: C_7  and  C_4 
REMARK    4  A    between atoms: O_16  and  C_8 
REMARK    5  A    between atoms: C_19  and  O_16 
ROOT
ATOM      1  C   UNL d   1     -56.033 -99.548 -44.497  0.00  0.00     0.102 A 
ATOM      2  C   UNL d   1     -56.551 -99.164 -45.019  0.00  0.00     0.201 A 
ATOM      3  C   UNL d   1     -56.279 -99.761 -43.739  0.00  0.00     0.008 A 
ATOM      4  C   UNL d   1     -57.559 -99.214 -43.999  0.00  0.00     0.009 A 
ATOM      5  C   UNL d   1     -57.313 -99.002 -44.758  0.00  0.00     0.043 A 
ATOM      6  C   UNL d   1     -57.043 -99.591 -43.495  0.00  0.00     0.001 A 
ATOM      7  O   UNL d   1     -56.308 -98.953 -45.770  0.00  0.00    -0.286 OA
ENDROOT
BRANCH   3   8
ATOM      8  C   UNL d   1     -55.755-100.141 -43.232  0.00  0.00     0.000 A 
ATOM      9  C   UNL d   1     -55.567 -99.784 -42.513  0.00  0.00     0.000 A 
ATOM     10  C   UNL d   1     -55.040-100.172 -42.008  0.00  0.00     0.000 A 
ATOM     11  C   UNL d   1     -54.712-100.882 -42.203  0.00  0.00     0.000 A 
ATOM     12  C   UNL d   1     -54.911-101.234 -42.937  0.00  0.00     0.000 A 
ATOM     13  C   UNL d   1     -55.435-100.856 -43.448  0.00  0.00     0.000 A 
ENDBRANCH   3   8
BRANCH   1  14
ATOM     14  C   UNL d   1     -55.259 -99.720 -44.744  0.00  0.00     0.303 C 
ATOM     15  O   UNL d   1     -54.716 -99.109 -44.859  0.00  0.00    -0.259 OA
BRANCH  14  16
ATOM     16  O   UNL d   1     -55.027-100.503 -44.876  0.00  0.00    -0.271 OA
BRANCH  16  17
ATOM     17  C   UNL d   1     -54.801-100.743 -45.630  0.00  0.00     0.126 C 
ATOM     18  C   UNL d   1     -54.880-101.533 -45.850  0.00  0.00     0.029 C 
ENDBRANCH  16  17
ENDBRANCH  14  16
ENDBRANCH   1  14
BRANCH   4  19
ATOM     19  C   UNL d   1     -58.332 -99.041 -43.757  0.00  0.00     0.030 A 
ATOM     20  S   UNL d   1     -58.991 -98.969 -44.240  0.00  0.00    -0.086 SA
ATOM     21  C   UNL d   1     -59.624 -98.798 -43.773  0.00  0.00     0.035 A 
ATOM     22  C   UNL d   1     -59.377 -98.758 -42.983  0.00  0.00     0.007 A 
ATOM     23  C   UNL d   1     -58.566 -98.911 -42.969  0.00  0.00     0.007 A 
ENDBRANCH   4  19
TORSDOF 5
ENDMDL
