MODEL 1
REMARK VINA RESULT:      -2.9      0.000      0.000
REMARK  7 active torsions:
REMARK  status: ('A' for Active; 'I' for Inactive)
REMARK    1  A    between atoms: C_2  and  S_1 
REMARK    2  A    between atoms: N_4  and  S_1 
REMARK    3  A    between atoms: C_13  and  N_4 
REMARK    4  A    between atoms: C_14  and  N_4 
REMARK    5  A    between atoms: O_12  and  C_7 
REMARK    6  A    between atoms: C_16  and  C_13 
REMARK    7  A    between atoms: C_17  and  C_14 
ROOT
ATOM      1  S   UNL d   1     -41.782-122.619 -52.071  0.00  0.00     0.271 S 
ATOM      2  O   UNL d   1     -42.371-122.100 -52.325  0.00  0.00    -0.200 OA
ATOM      3  O   UNL d   1     -41.193-123.137 -51.816  0.00  0.00    -0.200 OA
ENDROOT
BRANCH   1   4
ATOM      4  C   UNL d   1     -41.681-122.881 -52.838  0.00  0.00     0.106 A 
ATOM      5  C   UNL d   1     -42.033-122.476 -53.462  0.00  0.00     0.038 A 
ATOM      6  C   UNL d   1     -41.931-122.740 -54.236  0.00  0.00     0.105 A 
ATOM      7  C   UNL d   1     -41.477-123.408 -54.384  0.00  0.00     0.080 A 
ATOM      8  C   UNL d   1     -41.125-123.815 -53.763  0.00  0.00     0.014 A 
ATOM      9 CL   UNL d   1     -41.375-123.672 -55.159  0.00  0.00    -0.080 Cl
ATOM     10  C   UNL d   1     -41.226-123.551 -52.989  0.00  0.00     0.014 A 
BRANCH   6  11
ATOM     11  O   UNL d   1     -42.284-122.332 -54.857  0.00  0.00    -0.327 OA
ATOM     12  C   UNL d   1     -42.338-121.510 -54.830  0.00  0.00     0.181 C 
ENDBRANCH   6  11
ENDBRANCH   1   4
BRANCH   1  13
ATOM     13  N   UNL d   1     -41.884-122.354 -51.296  0.00  0.00    -0.229 N 
BRANCH  13  14
ATOM     14  C   UNL d   1     -42.019-122.896 -50.690  0.00  0.00     0.092 C 
BRANCH  14  15
ATOM     15  C   UNL d   1     -42.510-122.695 -50.059  0.00  0.00     0.020 C 
ATOM     16  C   UNL d   1     -42.525-123.163 -49.382  0.00  0.00     0.002 C 
ENDBRANCH  14  15
ENDBRANCH  13  14
BRANCH  13  17
ATOM     17  C   UNL d   1     -41.852-121.550 -51.127  0.00  0.00     0.092 C 
BRANCH  17  18
ATOM     18  C   UNL d   1     -41.134-121.146 -51.179  0.00  0.00     0.020 C 
ATOM     19  C   UNL d   1     -41.123-120.319 -51.143  0.00  0.00     0.002 C 
ENDBRANCH  17  18
ENDBRANCH  13  17
ENDBRANCH   1  13
TORSDOF 7
ENDMDL
MODEL 2
REMARK VINA RESULT:      -1.9      1.807      3.696
REMARK  7 active torsions:
REMARK  status: ('A' for Active; 'I' for Inactive)
REMARK    1  A    between atoms: C_2  and  S_1 
REMARK    2  A    between atoms: N_4  and  S_1 
REMARK    3  A    between atoms: C_13  and  N_4 
REMARK    4  A    between atoms: C_14  and  N_4 
REMARK    5  A    between atoms: O_12  and  C_7 
REMARK    6  A    between atoms: C_16  and  C_13 
REMARK    7  A    between atoms: C_17  and  C_14 
ROOT
ATOM      1  S   UNL d   1     -41.681-122.787 -52.534  0.00  0.00     0.271 S 
ATOM      2  O   UNL d   1     -42.201-122.155 -52.432  0.00  0.00    -0.200 OA
ATOM      3  O   UNL d   1     -41.161-123.419 -52.637  0.00  0.00    -0.200 OA
ENDROOT
BRANCH   1   4
ATOM      4  C   UNL d   1     -41.681-122.919 -51.728  0.00  0.00     0.106 A 
ATOM      5  C   UNL d   1     -42.216-122.520 -51.245  0.00  0.00     0.038 A 
ATOM      6  C   UNL d   1     -42.216-122.653 -50.432  0.00  0.00     0.105 A 
ATOM      7  C   UNL d   1     -41.682-123.184 -50.104  0.00  0.00     0.080 A 
ATOM      8  C   UNL d   1     -41.147-123.583 -50.583  0.00  0.00     0.014 A 
ATOM      9 CL   UNL d   1     -41.683-123.317 -49.289  0.00  0.00    -0.080 Cl
ATOM     10  C   UNL d   1     -41.147-123.451 -51.396  0.00  0.00     0.014 A 
BRANCH   6  11
ATOM     11  O   UNL d   1     -42.751-122.253 -49.952  0.00  0.00    -0.327 OA
ATOM     12  C   UNL d   1     -43.503-122.568 -49.825  0.00  0.00     0.181 C 
ENDBRANCH   6  11
ENDBRANCH   1   4
BRANCH   1  13
ATOM     13  N   UNL d   1     -41.680-122.654 -53.349  0.00  0.00    -0.229 N 
BRANCH  13  14
ATOM     14  C   UNL d   1     -42.128-122.040 -53.666  0.00  0.00     0.092 C 
BRANCH  14  15
ATOM     15  C   UNL d   1     -41.855-121.629 -54.327  0.00  0.00     0.020 C 
ATOM     16  C   UNL d   1     -42.159-120.885 -54.505  0.00  0.00     0.002 C 
ENDBRANCH  14  15
ENDBRANCH  13  14
BRANCH  13  17
ATOM     17  C   UNL d   1     -41.233-123.134 -53.844  0.00  0.00     0.092 C 
BRANCH  17  18
ATOM     18  C   UNL d   1     -41.605-123.601 -54.414  0.00  0.00     0.020 C 
ATOM     19  C   UNL d   1     -41.198-123.814 -55.103  0.00  0.00     0.002 C 
ENDBRANCH  17  18
ENDBRANCH  13  17
ENDBRANCH   1  13
TORSDOF 7
ENDMDL
MODEL 3
REMARK VINA RESULT:      -1.9      2.115      3.918
REMARK  7 active torsions:
REMARK  status: ('A' for Active; 'I' for Inactive)
REMARK    1  A    between atoms: C_2  and  S_1 
REMARK    2  A    between atoms: N_4  and  S_1 
REMARK    3  A    between atoms: C_13  and  N_4 
REMARK    4  A    between atoms: C_14  and  N_4 
REMARK    5  A    between atoms: O_12  and  C_7 
REMARK    6  A    between atoms: C_16  and  C_13 
REMARK    7  A    between atoms: C_17  and  C_14 
ROOT
ATOM      1  S   UNL d   1     -41.465-122.917 -51.272  0.00  0.00     0.271 S 
ATOM      2  O   UNL d   1     -41.390-122.121 -51.072  0.00  0.00    -0.200 OA
ATOM      3  O   UNL d   1     -41.540-123.714 -51.473  0.00  0.00    -0.200 OA
ENDROOT
BRANCH   1   4
ATOM      4  C   UNL d   1     -41.677-123.092 -50.503  0.00  0.00     0.106 A 
ATOM      5  C   UNL d   1     -42.444-122.946 -50.242  0.00  0.00     0.038 A 
ATOM      6  C   UNL d   1     -42.657-123.121 -49.466  0.00  0.00     0.105 A 
ATOM      7  C   UNL d   1     -42.103-123.442 -48.952  0.00  0.00     0.080 A 
ATOM      8  C   UNL d   1     -41.336-123.589 -49.209  0.00  0.00     0.014 A 
ATOM      9 CL   UNL d   1     -42.316-123.618 -48.175  0.00  0.00    -0.080 Cl
ATOM     10  C   UNL d   1     -41.123-123.414 -49.985  0.00  0.00     0.014 A 
BRANCH   6  11
ATOM     11  O   UNL d   1     -43.424-122.974 -49.209  0.00  0.00    -0.327 OA
ATOM     12  C   UNL d   1     -44.047-123.434 -49.493  0.00  0.00     0.181 C 
ENDBRANCH   6  11
ENDBRANCH   1   4
BRANCH   1  13
ATOM     13  N   UNL d   1     -41.252-122.742 -52.050  0.00  0.00    -0.229 N 
BRANCH  13  14
ATOM     14  C   UNL d   1     -41.143-121.959 -52.280  0.00  0.00     0.092 C 
BRANCH  14  15
ATOM     15  C   UNL d   1     -41.615-121.633 -52.873  0.00  0.00     0.020 C 
ATOM     16  C   UNL d   1     -41.589-120.825 -53.025  0.00  0.00     0.002 C 
ENDBRANCH  14  15
ENDBRANCH  13  14
BRANCH  13  17
ATOM     17  C   UNL d   1     -41.148-123.348 -52.596  0.00  0.00     0.092 C 
BRANCH  17  18
ATOM     18  C   UNL d   1     -41.188-123.188 -53.404  0.00  0.00     0.020 C 
ATOM     19  C   UNL d   1     -41.228-123.811 -53.947  0.00  0.00     0.002 C 
ENDBRANCH  17  18
ENDBRANCH  13  17
ENDBRANCH   1  13
TORSDOF 7
ENDMDL
