MODEL 1
REMARK VINA RESULT:      -2.6      0.000      0.000
REMARK  1 active torsions:
REMARK  status: ('A' for Active; 'I' for Inactive)
REMARK       I    between atoms: N_3  and  C_1 
REMARK       I    between atoms: N_5  and  C_1 
REMARK       I    between atoms: C_2  and  N_4 
REMARK    1  A    between atoms: C_6  and  C_2 
ROOT
ATOM      1  C   UNL d   1      33.064  20.556 -21.647  0.00  0.00     0.340 C 
ATOM      2  C   UNL d   1      32.410  18.416 -24.075  0.00  0.00     0.265 C 
ATOM      3  N   UNL d   1      33.000  19.998 -22.252  0.00  0.00    -0.254 N 
ATOM      4  N   UNL d   1      32.588  18.952 -23.451  0.00  0.00    -0.269 N 
ATOM      5  N   UNL d   1      33.219  21.346 -21.825  0.00  0.00    -0.253 N 
ATOM      6  O   UNL d   1      32.972  20.316 -20.858  0.00  0.00    -0.245 OA
ATOM      7  C   UNL d   1      32.817  19.212 -22.076  0.00  0.00     0.104 A 
ATOM      8  C   UNL d   1      32.994  20.252 -23.044  0.00  0.00     0.104 A 
ATOM      9  C   UNL d   1      32.596  18.676 -22.685  0.00  0.00     0.102 A 
ATOM     10  C   UNL d   1      32.792  19.729 -23.649  0.00  0.00     0.102 A 
ATOM     11  O   UNL d   1      32.404  18.675 -24.861  0.00  0.00    -0.267 OA
ATOM     12  O   UNL d   1      33.241  22.974 -22.192  0.00  0.00    -0.300 OA
ATOM     13  C   UNL d   1      33.023  21.629 -22.629  0.00  0.00     0.111 C 
ATOM     14  C   UNL d   1      32.994  21.947 -21.234  0.00  0.00     0.111 C 
ATOM     15  C   UNL d   1      33.149  22.736 -21.408  0.00  0.00     0.142 C 
ATOM     16  C   UNL d   1      33.178  22.423 -22.803  0.00  0.00     0.142 C 
ENDROOT
BRANCH   2  17
ATOM     17  C   UNL d   1      32.218  17.631 -23.899  0.00  0.00     0.057 C 
ATOM     18  C   UNL d   1      32.817  17.049 -23.957  0.00  0.00     0.011 C 
ATOM     19  C   UNL d   1      32.628  16.251 -23.817  0.00  0.00     0.035 C 
ATOM     20 BR   UNL d   1      33.240  15.694 -23.723  0.00  0.00    -0.049 Br
ATOM     21  C   UNL d   1      31.838  16.015 -23.773  0.00  0.00     0.007 C 
ATOM     22  C   UNL d   1      31.234  16.577 -23.868  0.00  0.00     0.001 C 
ATOM     23  C   UNL d   1      31.423  17.371 -24.007  0.00  0.00     0.005 C 
ENDBRANCH   2  17
TORSDOF 1
ENDMDL
MODEL 2
REMARK VINA RESULT:      -1.7      0.816      1.040
REMARK  1 active torsions:
REMARK  status: ('A' for Active; 'I' for Inactive)
REMARK       I    between atoms: N_3  and  C_1 
REMARK       I    between atoms: N_5  and  C_1 
REMARK       I    between atoms: C_2  and  N_4 
REMARK    1  A    between atoms: C_6  and  C_2 
ROOT
ATOM      1  C   UNL d   1      32.594  21.180 -20.986  0.00  0.00     0.340 C 
ATOM      2  C   UNL d   1      32.744  19.323 -23.712  0.00  0.00     0.265 C 
ATOM      3  N   UNL d   1      32.722  20.684 -21.633  0.00  0.00    -0.254 N 
ATOM      4  N   UNL d   1      32.714  19.786 -23.010  0.00  0.00    -0.269 N 
ATOM      5  N   UNL d   1      32.852  21.964 -21.007  0.00  0.00    -0.253 N 
ATOM      6  O   UNL d   1      32.203  20.887 -20.316  0.00  0.00    -0.245 OA
ATOM      7  C   UNL d   1      32.438  19.908 -21.625  0.00  0.00     0.104 A 
ATOM      8  C   UNL d   1      33.023  21.001 -22.341  0.00  0.00     0.104 A 
ATOM      9  C   UNL d   1      32.423  19.449 -22.329  0.00  0.00     0.102 A 
ATOM     10  C   UNL d   1      33.024  20.552 -23.032  0.00  0.00     0.102 A 
ATOM     11  O   UNL d   1      33.043  19.646 -24.414  0.00  0.00    -0.267 OA
ATOM     12  O   UNL d   1      33.109  23.606 -21.155  0.00  0.00    -0.300 OA
ATOM     13  C   UNL d   1      32.983  22.330 -21.790  0.00  0.00     0.111 C 
ATOM     14  C   UNL d   1      32.464  22.533 -20.472  0.00  0.00     0.111 C 
ATOM     15  C   UNL d   1      32.721  23.314 -20.490  0.00  0.00     0.142 C 
ATOM     16  C   UNL d   1      33.241  23.116 -21.806  0.00  0.00     0.142 C 
ENDROOT
BRANCH   2  17
ATOM     17  C   UNL d   1      32.453  18.549 -23.707  0.00  0.00     0.057 C 
ATOM     18  C   UNL d   1      32.999  17.915 -23.702  0.00  0.00     0.011 C 
ATOM     19  C   UNL d   1      32.718  17.132 -23.732  0.00  0.00     0.035 C 
ATOM     20 BR   UNL d   1      33.240  16.503 -23.574  0.00  0.00    -0.049 Br
ATOM     21  C   UNL d   1      31.928  16.983 -23.917  0.00  0.00     0.007 C 
ATOM     22  C   UNL d   1      31.414  17.617 -24.074  0.00  0.00     0.001 C 
ATOM     23  C   UNL d   1      31.695  18.396 -24.043  0.00  0.00     0.005 C 
ENDBRANCH   2  17
TORSDOF 1
ENDMDL
