MODEL 1
REMARK VINA RESULT:      -2.2      0.000      0.000
REMARK  3 active torsions:
REMARK  status: ('A' for Active; 'I' for Inactive)
REMARK    1  A    between atoms: C_6  and  N_1 
REMARK    2  A    between atoms: C_7  and  C_6 
REMARK    3  A    between atoms: C_8  and  C_7 
ROOT
ATOM      1  N   UNL d   1      31.316  17.012 -23.987  0.00  0.00    -0.211 N 
ATOM      2  N   UNL d   1      32.465  16.987 -23.302  0.00  0.00    -0.206 NA
ATOM      3  C   UNL d   1      31.850  16.520 -23.601  0.00  0.00     0.166 A 
ATOM      4  N   UNL d   1      31.600  17.795 -23.929  0.00  0.00    -0.144 NA
ATOM      5  C   UNL d   1      32.315  17.779 -23.503  0.00  0.00     0.184 A 
ATOM      6  C   UNL d   1      31.793  15.702 -23.519  0.00  0.00     0.042 C 
ATOM      7  C   UNL d   1      32.782  18.430 -23.318  0.00  0.00     0.044 C 
ENDROOT
BRANCH   1   8
ATOM      8  C   UNL d   1      30.615  16.782 -24.369  0.00  0.00     0.091 C 
ATOM      9  C   UNL d   1      30.665  16.389 -25.096  0.00  0.00     0.021 C 
BRANCH   8  10
ATOM     10  C   UNL d   1      29.882  16.941 -24.032  0.00  0.00     0.089 C 
BRANCH  10  11
ATOM     11  C   UNL d   1      29.199  16.917 -24.495  0.00  0.00     0.213 C 
ATOM     12  O   UNL d   1      28.971  17.579 -24.928  0.00  0.00    -0.644 OA
ATOM     13  O   UNL d   1      28.744  16.227 -24.523  0.00  0.00    -0.644 OA
ENDBRANCH  10  11
ENDBRANCH   8  10
ENDBRANCH   1   8
TORSDOF 3
ENDMDL
MODEL 2
REMARK VINA RESULT:      -2.2      1.997      3.152
REMARK  3 active torsions:
REMARK  status: ('A' for Active; 'I' for Inactive)
REMARK    1  A    between atoms: C_6  and  N_1 
REMARK    2  A    between atoms: C_7  and  C_6 
REMARK    3  A    between atoms: C_8  and  C_7 
ROOT
ATOM      1  N   UNL d   1      29.958  16.586 -24.141  0.00  0.00    -0.211 N 
ATOM      2  N   UNL d   1      28.741  17.123 -24.288  0.00  0.00    -0.206 NA
ATOM      3  C   UNL d   1      29.528  17.163 -24.540  0.00  0.00     0.166 A 
ATOM      4  N   UNL d   1      29.433  16.181 -23.634  0.00  0.00    -0.144 NA
ATOM      5  C   UNL d   1      28.676  16.515 -23.727  0.00  0.00     0.184 A 
ATOM      6  C   UNL d   1      29.822  17.695 -25.097  0.00  0.00     0.042 C 
ATOM      7  C   UNL d   1      27.994  16.282 -23.331  0.00  0.00     0.044 C 
ENDROOT
BRANCH   1   8
ATOM      8  C   UNL d   1      30.769  16.427 -24.220  0.00  0.00     0.091 C 
ATOM      9  C   UNL d   1      31.049  16.113 -24.932  0.00  0.00     0.021 C 
BRANCH   8  10
ATOM     10  C   UNL d   1      31.288  16.578 -23.601  0.00  0.00     0.089 C 
BRANCH  10  11
ATOM     11  C   UNL d   1      32.055  16.274 -23.619  0.00  0.00     0.213 C 
ATOM     12  O   UNL d   1      32.192  15.485 -23.424  0.00  0.00    -0.644 OA
ATOM     13  O   UNL d   1      32.687  16.762 -23.833  0.00  0.00    -0.644 OA
ENDBRANCH  10  11
ENDBRANCH   8  10
ENDBRANCH   1   8
TORSDOF 3
ENDMDL
MODEL 3
REMARK VINA RESULT:      -2.1      1.562      2.325
REMARK  3 active torsions:
REMARK  status: ('A' for Active; 'I' for Inactive)
REMARK    1  A    between atoms: C_6  and  N_1 
REMARK    2  A    between atoms: C_7  and  C_6 
REMARK    3  A    between atoms: C_8  and  C_7 
ROOT
ATOM      1  N   UNL d   1      32.645  18.176 -23.589  0.00  0.00    -0.211 N 
ATOM      2  N   UNL d   1      33.178  19.402 -23.531  0.00  0.00    -0.206 NA
ATOM      3  C   UNL d   1      32.922  18.804 -24.043  0.00  0.00     0.166 A 
ATOM      4  N   UNL d   1      32.729  18.385 -22.785  0.00  0.00    -0.144 NA
ATOM      5  C   UNL d   1      33.061  19.147 -22.750  0.00  0.00     0.184 A 
ATOM      6  C   UNL d   1      32.944  18.841 -24.866  0.00  0.00     0.042 C 
ATOM      7  C   UNL d   1      33.238  19.566 -22.064  0.00  0.00     0.044 C 
ENDROOT
BRANCH   1   8
ATOM      8  C   UNL d   1      32.335  17.459 -23.869  0.00  0.00     0.091 C 
ATOM      9  C   UNL d   1      32.853  16.885 -24.163  0.00  0.00     0.021 C 
BRANCH   8  10
ATOM     10  C   UNL d   1      31.524  17.319 -23.856  0.00  0.00     0.089 C 
BRANCH  10  11
ATOM     11  C   UNL d   1      31.234  16.551 -23.943  0.00  0.00     0.213 C 
ATOM     12  O   UNL d   1      31.197  16.049 -23.292  0.00  0.00    -0.644 OA
ATOM     13  O   UNL d   1      30.981  16.288 -24.685  0.00  0.00    -0.644 OA
ENDBRANCH  10  11
ENDBRANCH   8  10
ENDBRANCH   1   8
TORSDOF 3
ENDMDL
