MODEL 1
REMARK VINA RESULT:      -3.7      0.000      0.000
REMARK  5 active torsions:
REMARK  status: ('A' for Active; 'I' for Inactive)
REMARK    1  A    between atoms: C_2  and  C_1 
REMARK    2  A    between atoms: C_3  and  C_2 
REMARK    3  A    between atoms: C_6  and  C_3 
REMARK    4  A    between atoms: O_15  and  C_12 
REMARK    5  A    between atoms: O_14  and  C_13 
ROOT
ATOM      1  C   UNL d   1      58.036  -0.581  30.709  0.00  0.00     0.143 C 
ATOM      2  C   UNL d   1      58.147  -1.272  30.246  0.00  0.00     0.107 C 
ATOM      3  N   UNL d   1      58.249  -1.963  29.793  0.00  0.00    -0.191 NA
ENDROOT
BRANCH   1   4
ATOM      4  C   UNL d   1      57.448  -0.563  31.304  0.00  0.00     0.175 A 
ATOM      5  N   UNL d   1      57.045   0.078  31.609  0.00  0.00    -0.225 NA
ATOM      6  C   UNL d   1      56.541  -0.164  32.161  0.00  0.00     0.101 A 
ATOM      7  C   UNL d   1      56.021   0.225  32.628  0.00  0.00     0.021 A 
ATOM      8  C   UNL d   1      56.597  -0.984  32.237  0.00  0.00     0.101 A 
ATOM      9  C   UNL d   1      55.540  -0.177  33.182  0.00  0.00     0.002 A 
ATOM     10  C   UNL d   1      55.622  -0.981  33.228  0.00  0.00     0.002 A 
ATOM     11  C   UNL d   1      56.147  -1.367  32.756  0.00  0.00     0.021 A 
ATOM     12  N   UNL d   1      57.177  -1.224  31.686  0.00  0.00    -0.225 NA
ENDBRANCH   1   4
BRANCH   1  13
ATOM     13  C   UNL d   1      58.522   0.060  30.552  0.00  0.00     0.212 C 
ATOM     14  O   UNL d   1      58.570   0.679  31.102  0.00  0.00    -0.286 OA
BRANCH  13  15
ATOM     15  C   UNL d   1      58.964   0.105  29.861  0.00  0.00     0.084 A 
ATOM     16  C   UNL d   1      59.769  -0.043  29.895  0.00  0.00     0.099 A 
ATOM     17  C   UNL d   1      60.231   0.001  29.191  0.00  0.00     0.024 A 
ATOM     18  C   UNL d   1      59.851   0.194  28.479  0.00  0.00     0.004 A 
ATOM     19  C   UNL d   1      59.032   0.342  28.455  0.00  0.00     0.024 A 
ATOM     20  C   UNL d   1      58.597   0.292  29.169  0.00  0.00     0.099 A 
BRANCH  16  21
ATOM     21  O   UNL d   1      60.170  -0.237  30.593  0.00  0.00    -0.328 OA
ATOM     22  C   UNL d   1      61.003  -0.169  30.624  0.00  0.00     0.181 C 
ENDBRANCH  16  21
BRANCH  20  23
ATOM     23  O   UNL d   1      57.780   0.439  29.149  0.00  0.00    -0.328 OA
ATOM     24  C   UNL d   1      57.407   0.682  28.457  0.00  0.00     0.181 C 
ENDBRANCH  20  23
ENDBRANCH  13  15
ENDBRANCH   1  13
TORSDOF 5
ENDMDL
MODEL 2
REMARK VINA RESULT:      -3.5      1.571      4.219
REMARK  5 active torsions:
REMARK  status: ('A' for Active; 'I' for Inactive)
REMARK    1  A    between atoms: C_2  and  C_1 
REMARK    2  A    between atoms: C_3  and  C_2 
REMARK    3  A    between atoms: C_6  and  C_3 
REMARK    4  A    between atoms: O_15  and  C_12 
REMARK    5  A    between atoms: O_14  and  C_13 
ROOT
ATOM      1  C   UNL d   1      56.584  -0.557  32.096  0.00  0.00     0.143 C 
ATOM      2  C   UNL d   1      56.412  -1.258  32.525  0.00  0.00     0.107 C 
ATOM      3  N   UNL d   1      56.249  -1.960  32.942  0.00  0.00    -0.191 NA
ENDROOT
BRANCH   1   4
ATOM      4  C   UNL d   1      57.071  -0.587  31.417  0.00  0.00     0.175 A 
ATOM      5  N   UNL d   1      57.340   0.024  30.950  0.00  0.00    -0.225 NA
ATOM      6  C   UNL d   1      57.785  -0.262  30.368  0.00  0.00     0.101 A 
ATOM      7  C   UNL d   1      58.178   0.088  29.765  0.00  0.00     0.021 A 
ATOM      8  C   UNL d   1      57.822  -1.083  30.436  0.00  0.00     0.101 A 
ATOM      9  C   UNL d   1      58.619  -0.358  29.211  0.00  0.00     0.002 A 
ATOM     10  C   UNL d   1      58.633  -1.161  29.309  0.00  0.00     0.002 A 
ATOM     11  C   UNL d   1      58.235  -1.507  29.918  0.00  0.00     0.021 A 
ATOM     12  N   UNL d   1      57.364  -1.277  31.107  0.00  0.00    -0.225 NA
ENDBRANCH   1   4
BRANCH   1  13
ATOM     13  C   UNL d   1      56.256   0.142  32.372  0.00  0.00     0.212 C 
ATOM     14  O   UNL d   1      55.936   0.682  31.830  0.00  0.00    -0.286 OA
BRANCH  13  15
ATOM     15  C   UNL d   1      56.238   0.322  33.173  0.00  0.00     0.084 A 
ATOM     16  C   UNL d   1      56.942   0.484  33.560  0.00  0.00     0.099 A 
ATOM     17  C   UNL d   1      56.934   0.670  34.382  0.00  0.00     0.024 A 
ATOM     18  C   UNL d   1      56.204   0.682  34.777  0.00  0.00     0.004 A 
ATOM     19  C   UNL d   1      55.494   0.516  34.375  0.00  0.00     0.024 A 
ATOM     20  C   UNL d   1      55.531   0.335  33.559  0.00  0.00     0.099 A 
BRANCH  16  21
ATOM     21  O   UNL d   1      57.682   0.477  33.186  0.00  0.00    -0.328 OA
ATOM     22  C   UNL d   1      58.366   0.682  33.620  0.00  0.00     0.181 C 
ENDBRANCH  16  21
BRANCH  20  23
ATOM     23  O   UNL d   1      54.825   0.169  33.156  0.00  0.00    -0.328 OA
ATOM     24  C   UNL d   1      54.092   0.306  33.503  0.00  0.00     0.181 C 
ENDBRANCH  20  23
ENDBRANCH  13  15
ENDBRANCH   1  13
TORSDOF 5
ENDMDL
MODEL 3
REMARK VINA RESULT:      -2.6      1.284      1.937
REMARK  5 active torsions:
REMARK  status: ('A' for Active; 'I' for Inactive)
REMARK    1  A    between atoms: C_2  and  C_1 
REMARK    2  A    between atoms: C_3  and  C_2 
REMARK    3  A    between atoms: C_6  and  C_3 
REMARK    4  A    between atoms: O_15  and  C_12 
REMARK    5  A    between atoms: O_14  and  C_13 
ROOT
ATOM      1  C   UNL d   1      58.530  -0.124  30.486  0.00  0.00     0.143 C 
ATOM      2  C   UNL d   1      59.279   0.161  30.736  0.00  0.00     0.107 C 
ATOM      3  N   UNL d   1      60.017   0.446  30.996  0.00  0.00    -0.191 NA
ENDROOT
BRANCH   1   4
ATOM      4  C   UNL d   1      57.887  -0.147  31.020  0.00  0.00     0.175 A 
ATOM      5  N   UNL d   1      57.529  -0.793  31.367  0.00  0.00    -0.225 NA
ATOM      6  C   UNL d   1      56.944  -0.553  31.834  0.00  0.00     0.101 A 
ATOM      7  C   UNL d   1      56.423  -0.948  32.296  0.00  0.00     0.021 A 
ATOM      8  C   UNL d   1      56.898   0.270  31.808  0.00  0.00     0.101 A 
ATOM      9  C   UNL d   1      55.843  -0.546  32.746  0.00  0.00     0.002 A 
ATOM     10  C   UNL d   1      55.829   0.261  32.696  0.00  0.00     0.002 A 
ATOM     11  C   UNL d   1      56.355   0.653  32.230  0.00  0.00     0.021 A 
ATOM     12  N   UNL d   1      57.504   0.516  31.287  0.00  0.00    -0.225 NA
ENDBRANCH   1   4
BRANCH   1  13
ATOM     13  C   UNL d   1      58.463  -0.374  29.708  0.00  0.00     0.212 C 
ATOM     14  O   UNL d   1      57.803  -0.142  29.262  0.00  0.00    -0.286 OA
BRANCH  13  15
ATOM     15  C   UNL d   1      59.035  -0.850  29.358  0.00  0.00     0.084 A 
ATOM     16  C   UNL d   1      58.956  -1.664  29.403  0.00  0.00     0.099 A 
ATOM     17  C   UNL d   1      59.538  -2.160  29.047  0.00  0.00     0.024 A 
ATOM     18  C   UNL d   1      60.178  -1.802  28.660  0.00  0.00     0.004 A 
ATOM     19  C   UNL d   1      60.249  -0.974  28.619  0.00  0.00     0.024 A 
ATOM     20  C   UNL d   1      59.658  -0.505  28.981  0.00  0.00     0.099 A 
BRANCH  16  21
ATOM     21  O   UNL d   1      58.326  -2.042  29.785  0.00  0.00    -0.328 OA
ATOM     22  C   UNL d   1      58.171  -2.848  29.628  0.00  0.00     0.181 C 
ENDBRANCH  16  21
BRANCH  20  23
ATOM     23  O   UNL d   1      59.726   0.321  28.942  0.00  0.00    -0.328 OA
ATOM     24  C   UNL d   1      60.287   0.682  28.461  0.00  0.00     0.181 C 
ENDBRANCH  20  23
ENDBRANCH  13  15
ENDBRANCH   1  13
TORSDOF 5
ENDMDL
MODEL 4
REMARK VINA RESULT:      -2.6      0.296      1.741
REMARK  5 active torsions:
REMARK  status: ('A' for Active; 'I' for Inactive)
REMARK    1  A    between atoms: C_2  and  C_1 
REMARK    2  A    between atoms: C_3  and  C_2 
REMARK    3  A    between atoms: C_6  and  C_3 
REMARK    4  A    between atoms: O_15  and  C_12 
REMARK    5  A    between atoms: O_14  and  C_13 
ROOT
ATOM      1  C   UNL d   1      57.962  -0.509  30.786  0.00  0.00     0.143 C 
ATOM      2  C   UNL d   1      58.010  -1.200  30.312  0.00  0.00     0.107 C 
ATOM      3  N   UNL d   1      58.047  -1.890  29.848  0.00  0.00    -0.191 NA
ENDROOT
BRANCH   1   4
ATOM      4  C   UNL d   1      57.397  -0.458  31.400  0.00  0.00     0.175 A 
ATOM      5  N   UNL d   1      56.814  -0.988  31.609  0.00  0.00    -0.225 NA
ATOM      6  C   UNL d   1      56.409  -0.711  32.223  0.00  0.00     0.101 A 
ATOM      7  C   UNL d   1      55.792  -1.002  32.640  0.00  0.00     0.021 A 
ATOM      8  C   UNL d   1      56.718   0.022  32.441  0.00  0.00     0.101 A 
ATOM      9  C   UNL d   1      55.460  -0.583  33.284  0.00  0.00     0.002 A 
ATOM     10  C   UNL d   1      55.788   0.133  33.468  0.00  0.00     0.002 A 
ATOM     11  C   UNL d   1      56.410   0.421  33.044  0.00  0.00     0.021 A 
ATOM     12  N   UNL d   1      57.346   0.171  31.910  0.00  0.00    -0.225 NA
ENDBRANCH   1   4
BRANCH   1  13
ATOM     13  C   UNL d   1      58.487   0.098  30.620  0.00  0.00     0.212 C 
ATOM     14  O   UNL d   1      58.628   0.682  31.193  0.00  0.00    -0.286 OA
BRANCH  13  15
ATOM     15  C   UNL d   1      58.879   0.143  29.899  0.00  0.00     0.084 A 
ATOM     16  C   UNL d   1      58.442   0.278  29.219  0.00  0.00     0.099 A 
ATOM     17  C   UNL d   1      58.835   0.326  28.474  0.00  0.00     0.024 A 
ATOM     18  C   UNL d   1      59.659   0.234  28.455  0.00  0.00     0.004 A 
ATOM     19  C   UNL d   1      60.094   0.097  29.152  0.00  0.00     0.024 A 
ATOM     20  C   UNL d   1      59.679   0.054  29.878  0.00  0.00     0.099 A 
BRANCH  16  21
ATOM     21  O   UNL d   1      57.620   0.373  29.214  0.00  0.00    -0.328 OA
ATOM     22  C   UNL d   1      57.243   0.682  28.535  0.00  0.00     0.181 C 
ENDBRANCH  16  21
BRANCH  20  23
ATOM     23  O   UNL d   1      60.109  -0.082  30.574  0.00  0.00    -0.328 OA
ATOM     24  C   UNL d   1      60.929  -0.145  30.565  0.00  0.00     0.181 C 
ENDBRANCH  20  23
ENDBRANCH  13  15
ENDBRANCH   1  13
TORSDOF 5
ENDMDL
