MODEL 1
REMARK VINA RESULT:      -9.9      0.000      0.000
REMARK  6 active torsions:
REMARK  status: ('A' for Active; 'I' for Inactive)
REMARK    1  A    between atoms: C_10  and  N_2 
REMARK    2  A    between atoms: C_11  and  N_5 
REMARK    3  A    between atoms: C_21  and  C_10 
REMARK    4  A    between atoms: C_12  and  C_11 
REMARK       I    between atoms: N_16  and  C_12 
REMARK    5  A    between atoms: C_15  and  C_17 
REMARK    6  A    between atoms: C_17  and  N_16 
ROOT
ATOM      1  C   UNL d   1      53.584  33.227  53.762  0.00  0.00     0.102 A 
ATOM      2  N   UNL d   1      53.010  32.152  53.034  0.00  0.00    -0.225 N 
ATOM      3  C   UNL d   1      52.276  32.529  53.046  0.00  0.00     0.342 A 
ATOM      4  C   UNL d   1      52.843  33.607  53.775  0.00  0.00     0.080 A 
ATOM      5  N   UNL d   1      52.196  33.259  53.418  0.00  0.00    -0.253 N 
ATOM      6  C   UNL d   1      53.671  32.501  53.394  0.00  0.00     0.276 A 
ATOM      7  S   UNL d   1      54.123  33.717  54.167  0.00  0.00    -0.081 SA
ATOM      8  C   UNL d   1      52.933  34.324  54.184  0.00  0.00     0.023 A 
ATOM      9  C   UNL d   1      53.724  34.391  54.426  0.00  0.00     0.031 A 
ATOM     10  O   UNL d   1      51.627  32.177  52.688  0.00  0.00    -0.245 OA
ATOM     11  O   UNL d   1      54.393  32.121  53.377  0.00  0.00    -0.266 OA
ATOM     12  C   UNL d   1      52.395  34.918  54.364  0.00  0.00     0.002 A 
ATOM     13  C   UNL d   1      53.971  35.049  54.844  0.00  0.00     0.006 A 
ATOM     14  C   UNL d   1      52.641  35.584  54.787  0.00  0.00     0.000 A 
ATOM     15  C   UNL d   1      53.432  35.650  55.028  0.00  0.00     0.001 A 
ENDROOT
BRANCH   5  16
ATOM     16  C   UNL d   1      51.464  33.636  53.431  0.00  0.00     0.147 C 
BRANCH  16  17
ATOM     17  C   UNL d   1      51.114  33.886  52.721  0.00  0.00     0.297 C 
ATOM     18  N   UNL d   1      50.334  34.133  52.719  0.00  0.00    -0.205 NA
ATOM     19  O   UNL d   1      51.551  33.884  52.026  0.00  0.00    -0.264 OA
BRANCH  18  20
ATOM     20  C   UNL d   1      49.987  34.382  52.006  0.00  0.00     0.103 C 
BRANCH  20  21
ATOM     21  C   UNL d   1      49.255  34.782  52.026  0.00  0.00     0.030 A 
ATOM     22  C   UNL d   1      48.763  34.785  51.363  0.00  0.00     0.059 A 
ATOM     23 CL   UNL d   1      48.995  34.388  50.672  0.00  0.00    -0.082 Cl
ATOM     24  C   UNL d   1      48.041  35.184  51.395  0.00  0.00     0.011 A 
ATOM     25  C   UNL d   1      47.812  35.578  52.084  0.00  0.00     0.001 A 
ATOM     26  C   UNL d   1      48.310  35.570  52.742  0.00  0.00     0.000 A 
ATOM     27  C   UNL d   1      49.031  35.176  52.721  0.00  0.00     0.002 A 
ENDBRANCH  20  21
ENDBRANCH  18  20
ENDBRANCH  16  17
ENDBRANCH   5  16
BRANCH   2  28
ATOM     28  C   UNL d   1      53.090  31.416  52.658  0.00  0.00     0.087 C 
BRANCH  28  29
ATOM     29  C   UNL d   1      53.027  30.722  53.099  0.00  0.00     0.018 A 
ATOM     30  C   UNL d   1      52.291  30.356  53.161  0.00  0.00     0.002 A 
ATOM     31  C   UNL d   1      52.226  29.655  53.605  0.00  0.00     0.000 A 
ATOM     32  C   UNL d   1      52.896  29.336  53.976  0.00  0.00     0.000 A 
ATOM     33  C   UNL d   1      53.617  29.715  53.902  0.00  0.00     0.000 A 
ATOM     34  C   UNL d   1      53.685  30.409  53.463  0.00  0.00     0.002 A 
ENDBRANCH  28  29
ENDBRANCH   2  28
TORSDOF 6
ENDMDL
MODEL 2
REMARK VINA RESULT:      -7.4      0.964      3.367
REMARK  6 active torsions:
REMARK  status: ('A' for Active; 'I' for Inactive)
REMARK    1  A    between atoms: C_10  and  N_2 
REMARK    2  A    between atoms: C_11  and  N_5 
REMARK    3  A    between atoms: C_21  and  C_10 
REMARK    4  A    between atoms: C_12  and  C_11 
REMARK       I    between atoms: N_16  and  C_12 
REMARK    5  A    between atoms: C_15  and  C_17 
REMARK    6  A    between atoms: C_17  and  N_16 
ROOT
ATOM      1  C   UNL d   1      53.759  32.205  53.634  0.00  0.00     0.102 A 
ATOM      2  N   UNL d   1      53.648  33.615  53.502  0.00  0.00    -0.225 N 
ATOM      3  C   UNL d   1      52.919  33.527  53.125  0.00  0.00     0.342 A 
ATOM      4  C   UNL d   1      53.023  32.117  53.253  0.00  0.00     0.080 A 
ATOM      5  N   UNL d   1      52.609  32.774  53.002  0.00  0.00    -0.253 N 
ATOM      6  C   UNL d   1      54.073  32.951  53.759  0.00  0.00     0.276 A 
ATOM      7  S   UNL d   1      54.037  31.441  53.819  0.00  0.00    -0.081 SA
ATOM      8  C   UNL d   1      52.856  31.304  53.208  0.00  0.00     0.023 A 
ATOM      9  C   UNL d   1      53.484  30.889  53.558  0.00  0.00     0.031 A 
ATOM     10  O   UNL d   1      52.504  34.189  52.874  0.00  0.00    -0.245 OA
ATOM     11  O   UNL d   1      54.793  33.046  54.131  0.00  0.00    -0.266 OA
ATOM     12  C   UNL d   1      52.215  30.898  52.894  0.00  0.00     0.002 A 
ATOM     13  C   UNL d   1      53.466  30.071  53.591  0.00  0.00     0.006 A 
ATOM     14  C   UNL d   1      52.194  30.072  52.926  0.00  0.00     0.000 A 
ATOM     15  C   UNL d   1      52.821  29.657  53.275  0.00  0.00     0.001 A 
ENDROOT
BRANCH   5  16
ATOM     16  C   UNL d   1      51.881  32.686  52.626  0.00  0.00     0.147 C 
BRANCH  16  17
ATOM     17  C   UNL d   1      51.218  33.103  52.902  0.00  0.00     0.297 C 
ATOM     18  N   UNL d   1      50.792  33.574  52.387  0.00  0.00    -0.205 NA
ATOM     19  O   UNL d   1      50.993  33.040  53.689  0.00  0.00    -0.264 OA
BRANCH  18  20
ATOM     20  C   UNL d   1      50.129  33.990  52.667  0.00  0.00     0.103 C 
BRANCH  20  21
ATOM     21  C   UNL d   1      49.596  34.325  52.121  0.00  0.00     0.030 A 
ATOM     22  C   UNL d   1      49.086  34.931  52.353  0.00  0.00     0.059 A 
ATOM     23 CL   UNL d   1      49.102  35.211  53.134  0.00  0.00    -0.082 Cl
ATOM     24  C   UNL d   1      48.563  35.254  51.803  0.00  0.00     0.011 A 
ATOM     25  C   UNL d   1      48.548  34.973  51.025  0.00  0.00     0.001 A 
ATOM     26  C   UNL d   1      49.061  34.367  50.802  0.00  0.00     0.000 A 
ATOM     27  C   UNL d   1      49.586  34.038  51.342  0.00  0.00     0.002 A 
ENDBRANCH  20  21
ENDBRANCH  18  20
ENDBRANCH  16  17
ENDBRANCH   5  16
BRANCH   2  28
ATOM     28  C   UNL d   1      53.960  34.373  53.626  0.00  0.00     0.087 C 
BRANCH  28  29
ATOM     29  C   UNL d   1      53.662  34.845  54.234  0.00  0.00     0.018 A 
ATOM     30  C   UNL d   1      53.289  35.554  54.038  0.00  0.00     0.002 A 
ATOM     31  C   UNL d   1      52.987  36.031  54.651  0.00  0.00     0.000 A 
ATOM     32  C   UNL d   1      53.066  35.791  55.441  0.00  0.00     0.000 A 
ATOM     33  C   UNL d   1      53.440  35.084  55.612  0.00  0.00     0.000 A 
ATOM     34  C   UNL d   1      53.739  34.608  55.009  0.00  0.00     0.002 A 
ENDBRANCH  28  29
ENDBRANCH   2  28
TORSDOF 6
ENDMDL
MODEL 3
REMARK VINA RESULT:      -7.1      1.722      4.838
REMARK  6 active torsions:
REMARK  status: ('A' for Active; 'I' for Inactive)
REMARK    1  A    between atoms: C_10  and  N_2 
REMARK    2  A    between atoms: C_11  and  N_5 
REMARK    3  A    between atoms: C_21  and  C_10 
REMARK    4  A    between atoms: C_12  and  C_11 
REMARK       I    between atoms: N_16  and  C_12 
REMARK    5  A    between atoms: C_15  and  C_17 
REMARK    6  A    between atoms: C_17  and  N_16 
ROOT
ATOM      1  C   UNL d   1      52.736  33.871  54.215  0.00  0.00     0.102 A 
ATOM      2  N   UNL d   1      51.663  33.312  53.471  0.00  0.00    -0.225 N 
ATOM      3  C   UNL d   1      52.173  32.747  53.150  0.00  0.00     0.342 A 
ATOM      4  C   UNL d   1      53.250  33.301  53.891  0.00  0.00     0.080 A 
ATOM      5  N   UNL d   1      52.968  32.745  53.364  0.00  0.00    -0.253 N 
ATOM      6  C   UNL d   1      51.944  33.879  54.007  0.00  0.00     0.276 A 
ATOM      7  S   UNL d   1      53.186  34.351  54.726  0.00  0.00    -0.081 SA
ATOM      8  C   UNL d   1      54.008  33.435  54.206  0.00  0.00     0.023 A 
ATOM      9  C   UNL d   1      53.966  34.084  54.721  0.00  0.00     0.031 A 
ATOM     10  O   UNL d   1      51.888  32.190  52.620  0.00  0.00    -0.245 OA
ATOM     11  O   UNL d   1      51.434  34.434  54.319  0.00  0.00    -0.266 OA
ATOM     12  C   UNL d   1      54.722  33.048  54.085  0.00  0.00     0.002 A 
ATOM     13  C   UNL d   1      54.637  34.341  55.111  0.00  0.00     0.006 A 
ATOM     14  C   UNL d   1      55.402  33.305  54.478  0.00  0.00     0.000 A 
ATOM     15  C   UNL d   1      55.360  33.954  54.993  0.00  0.00     0.001 A 
ENDROOT
BRANCH   5  16
ATOM     16  C   UNL d   1      53.478  32.182  53.044  0.00  0.00     0.147 C 
BRANCH  16  17
ATOM     17  C   UNL d   1      53.241  31.387  52.999  0.00  0.00     0.297 C 
ATOM     18  N   UNL d   1      53.397  30.882  53.623  0.00  0.00    -0.205 NA
ATOM     19  O   UNL d   1      52.853  31.112  52.330  0.00  0.00    -0.264 OA
BRANCH  18  20
ATOM     20  C   UNL d   1      53.159  30.087  53.575  0.00  0.00     0.103 C 
BRANCH  20  21
ATOM     21  C   UNL d   1      53.252  29.591  54.239  0.00  0.00     0.030 A 
ATOM     22  C   UNL d   1      53.260  28.771  54.149  0.00  0.00     0.059 A 
ATOM     23 CL   UNL d   1      53.177  28.435  53.395  0.00  0.00    -0.082 Cl
ATOM     24  C   UNL d   1      53.352  28.291  54.814  0.00  0.00     0.011 A 
ATOM     25  C   UNL d   1      53.435  28.628  55.564  0.00  0.00     0.001 A 
ATOM     26  C   UNL d   1      53.426  29.449  55.645  0.00  0.00     0.000 A 
ATOM     27  C   UNL d   1      53.334  29.936  54.989  0.00  0.00     0.002 A 
ENDBRANCH  20  21
ENDBRANCH  18  20
ENDBRANCH  16  17
ENDBRANCH   5  16
BRANCH   2  28
ATOM     28  C   UNL d   1      50.862  33.315  53.256  0.00  0.00     0.087 C 
BRANCH  28  29
ATOM     29  C   UNL d   1      50.599  33.819  52.658  0.00  0.00     0.018 A 
ATOM     30  C   UNL d   1      49.957  34.312  52.809  0.00  0.00     0.002 A 
ATOM     31  C   UNL d   1      49.690  34.822  52.207  0.00  0.00     0.000 A 
ATOM     32  C   UNL d   1      50.071  34.826  51.469  0.00  0.00     0.000 A 
ATOM     33  C   UNL d   1      50.707  34.328  51.340  0.00  0.00     0.000 A 
ATOM     34  C   UNL d   1      50.973  33.823  51.934  0.00  0.00     0.002 A 
ENDBRANCH  28  29
ENDBRANCH   2  28
TORSDOF 6
ENDMDL
