MODEL 1
REMARK VINA RESULT:      -3.2      0.000      0.000
REMARK  4 active torsions:
REMARK  status: ('A' for Active; 'I' for Inactive)
REMARK    1  A    between atoms: C_20  and  C_4 
REMARK    2  A    between atoms: C_8  and  C_9 
REMARK       I    between atoms: C_9  and  N_18 
REMARK    3  A    between atoms: N_18  and  C_21 
REMARK    4  A    between atoms: C_21  and  C_20 
ROOT
ATOM      1  N   UNL d   1      33.214  20.879 -20.769  0.00  0.00    -0.208 NA
ATOM      2  C   UNL d   1      33.206  21.526 -21.297  0.00  0.00     0.085 A 
ATOM      3  C   UNL d   1      33.225  20.107 -21.065  0.00  0.00     0.279 A 
ATOM      4  C   UNL d   1      33.229  19.978 -21.889  0.00  0.00     0.059 A 
ATOM      5  C   UNL d   1      33.221  20.622 -22.407  0.00  0.00     0.006 A 
ATOM      6  C   UNL d   1      33.210  21.390 -22.110  0.00  0.00     0.018 A 
ATOM      7  C   UNL d   1      33.194  22.294 -20.991  0.00  0.00     0.018 A 
ATOM      8  O   UNL d   1      33.233  19.467 -20.548  0.00  0.00    -0.265 OA
ATOM      9  C   UNL d   1      33.187  22.935 -21.508  0.00  0.00     0.002 A 
ATOM     10  C   UNL d   1      33.202  22.038 -22.629  0.00  0.00     0.002 A 
ATOM     11  C   UNL d   1      33.190  22.806 -22.332  0.00  0.00     0.000 A 
ATOM     12  C   UNL d   1      33.191  22.414 -20.174  0.00  0.00     0.002 C 
ATOM     13  C   UNL d   1      33.175  23.702 -21.211  0.00  0.00     0.000 C 
ENDROOT
BRANCH   4  14
ATOM     14  C   UNL d   1      33.241  19.212 -22.178  0.00  0.00     0.026 C 
BRANCH  14  15
ATOM     15  C   UNL d   1      32.884  19.026 -22.893  0.00  0.00     0.102 C 
BRANCH  15  16
ATOM     16  N   UNL d   1      32.573  18.274 -23.032  0.00  0.00    -0.206 NA
ATOM     17  C   UNL d   1      32.399  18.031 -23.802  0.00  0.00     0.285 C 
ATOM     18  O   UNL d   1      32.532  18.535 -24.436  0.00  0.00    -0.265 OA
BRANCH  17  19
ATOM     19  C   UNL d   1      32.087  17.276 -23.933  0.00  0.00     0.087 A 
ATOM     20  S   UNL d   1      32.516  16.609 -24.128  0.00  0.00    -0.082 SA
ATOM     21  C   UNL d   1      32.007  15.982 -24.209  0.00  0.00     0.036 A 
ATOM     22  C   UNL d   1      31.239  16.260 -24.060  0.00  0.00     0.008 A 
ATOM     23  C   UNL d   1      31.290  17.065 -23.889  0.00  0.00     0.012 A 
ENDBRANCH  17  19
ENDBRANCH  15  16
ENDBRANCH  14  15
ENDBRANCH   4  14
TORSDOF 4
ENDMDL
MODEL 2
REMARK VINA RESULT:      -2.8      1.142      1.630
REMARK  4 active torsions:
REMARK  status: ('A' for Active; 'I' for Inactive)
REMARK    1  A    between atoms: C_20  and  C_4 
REMARK    2  A    between atoms: C_8  and  C_9 
REMARK       I    between atoms: C_9  and  N_18 
REMARK    3  A    between atoms: N_18  and  C_21 
REMARK    4  A    between atoms: C_21  and  C_20 
ROOT
ATOM      1  N   UNL d   1      32.976  22.399 -22.268  0.00  0.00    -0.208 NA
ATOM      2  C   UNL d   1      33.029  22.269 -21.445  0.00  0.00     0.085 A 
ATOM      3  C   UNL d   1      33.047  21.763 -22.791  0.00  0.00     0.279 A 
ATOM      4  C   UNL d   1      33.171  20.993 -22.495  0.00  0.00     0.059 A 
ATOM      5  C   UNL d   1      33.223  20.869 -21.679  0.00  0.00     0.006 A 
ATOM      6  C   UNL d   1      33.152  21.504 -21.160  0.00  0.00     0.018 A 
ATOM      7  C   UNL d   1      32.957  22.911 -20.930  0.00  0.00     0.018 A 
ATOM      8  O   UNL d   1      32.995  21.889 -23.603  0.00  0.00    -0.265 OA
ATOM      9  C   UNL d   1      33.008  22.786 -20.118  0.00  0.00     0.002 A 
ATOM     10  C   UNL d   1      33.203  21.381 -20.341  0.00  0.00     0.002 A 
ATOM     11  C   UNL d   1      33.132  22.016 -19.821  0.00  0.00     0.000 A 
ATOM     12  C   UNL d   1      32.834  23.670 -21.230  0.00  0.00     0.002 C 
ATOM     13  C   UNL d   1      32.937  23.421 -19.599  0.00  0.00     0.000 C 
ENDROOT
BRANCH   4  14
ATOM     14  C   UNL d   1      33.241  20.366 -23.017  0.00  0.00     0.026 C 
BRANCH  14  15
ATOM     15  C   UNL d   1      33.080  19.599 -22.776  0.00  0.00     0.102 C 
BRANCH  15  16
ATOM     16  N   UNL d   1      32.755  19.048 -23.298  0.00  0.00    -0.206 NA
ATOM     17  C   UNL d   1      32.834  18.239 -23.152  0.00  0.00     0.285 C 
ATOM     18  O   UNL d   1      33.236  17.974 -22.487  0.00  0.00    -0.265 OA
BRANCH  17  19
ATOM     19  C   UNL d   1      32.505  17.693 -23.680  0.00  0.00     0.087 A 
ATOM     20  S   UNL d   1      32.918  17.239 -24.218  0.00  0.00    -0.082 SA
ATOM     21  C   UNL d   1      32.395  16.776 -24.631  0.00  0.00     0.036 A 
ATOM     22  C   UNL d   1      31.633  16.942 -24.345  0.00  0.00     0.008 A 
ATOM     23  C   UNL d   1      31.703  17.512 -23.754  0.00  0.00     0.012 A 
ENDBRANCH  17  19
ENDBRANCH  15  16
ENDBRANCH  14  15
ENDBRANCH   4  14
TORSDOF 4
ENDMDL
MODEL 3
REMARK VINA RESULT:      -2.1      1.698      5.215
REMARK  4 active torsions:
REMARK  status: ('A' for Active; 'I' for Inactive)
REMARK    1  A    between atoms: C_20  and  C_4 
REMARK    2  A    between atoms: C_8  and  C_9 
REMARK       I    between atoms: C_9  and  N_18 
REMARK    3  A    between atoms: N_18  and  C_21 
REMARK    4  A    between atoms: C_21  and  C_20 
ROOT
ATOM      1  N   UNL d   1      32.357  17.521 -23.005  0.00  0.00    -0.208 NA
ATOM      2  C   UNL d   1      31.903  17.583 -23.703  0.00  0.00     0.085 A 
ATOM      3  C   UNL d   1      32.792  18.171 -22.738  0.00  0.00     0.279 A 
ATOM      4  C   UNL d   1      32.777  18.886 -23.167  0.00  0.00     0.059 A 
ATOM      5  C   UNL d   1      32.325  18.942 -23.858  0.00  0.00     0.006 A 
ATOM      6  C   UNL d   1      31.892  18.294 -24.122  0.00  0.00     0.018 A 
ATOM      7  C   UNL d   1      31.470  16.927 -23.962  0.00  0.00     0.018 A 
ATOM      8  O   UNL d   1      33.241  18.113 -22.051  0.00  0.00    -0.265 OA
ATOM      9  C   UNL d   1      31.022  16.985 -24.650  0.00  0.00     0.002 A 
ATOM     10  C   UNL d   1      31.439  18.349 -24.814  0.00  0.00     0.002 A 
ATOM     11  C   UNL d   1      31.006  17.700 -25.079  0.00  0.00     0.000 A 
ATOM     12  C   UNL d   1      31.491  16.223 -23.532  0.00  0.00     0.002 C 
ATOM     13  C   UNL d   1      30.589  16.337 -24.913  0.00  0.00     0.000 C 
ENDROOT
BRANCH   4  14
ATOM     14  C   UNL d   1      33.209  19.527 -22.899  0.00  0.00     0.026 C 
BRANCH  14  15
ATOM     15  C   UNL d   1      32.949  19.976 -22.265  0.00  0.00     0.102 C 
BRANCH  15  16
ATOM     16  N   UNL d   1      33.092  20.788 -22.227  0.00  0.00    -0.206 NA
ATOM     17  C   UNL d   1      32.768  21.242 -21.619  0.00  0.00     0.285 C 
ATOM     18  O   UNL d   1      32.298  20.890 -21.044  0.00  0.00    -0.265 OA
BRANCH  17  19
ATOM     19  C   UNL d   1      32.917  22.055 -21.589  0.00  0.00     0.087 A 
ATOM     20  S   UNL d   1      33.154  22.475 -20.930  0.00  0.00    -0.082 SA
ATOM     21  C   UNL d   1      33.240  23.256 -21.131  0.00  0.00     0.036 A 
ATOM     22  C   UNL d   1      33.053  23.331 -21.937  0.00  0.00     0.008 A 
ATOM     23  C   UNL d   1      32.853  22.584 -22.220  0.00  0.00     0.012 A 
ENDBRANCH  17  19
ENDBRANCH  15  16
ENDBRANCH  14  15
ENDBRANCH   4  14
TORSDOF 4
ENDMDL
MODEL 4
REMARK VINA RESULT:      -1.5      1.745      5.379
REMARK  4 active torsions:
REMARK  status: ('A' for Active; 'I' for Inactive)
REMARK    1  A    between atoms: C_20  and  C_4 
REMARK    2  A    between atoms: C_8  and  C_9 
REMARK       I    between atoms: C_9  and  N_18 
REMARK    3  A    between atoms: N_18  and  C_21 
REMARK    4  A    between atoms: C_21  and  C_20 
ROOT
ATOM      1  N   UNL d   1      31.137  16.428 -23.675  0.00  0.00    -0.208 NA
ATOM      2  C   UNL d   1      30.497  16.826 -24.033  0.00  0.00     0.085 A 
ATOM      3  C   UNL d   1      31.857  16.820 -23.568  0.00  0.00     0.279 A 
ATOM      4  C   UNL d   1      31.941  17.612 -23.818  0.00  0.00     0.059 A 
ATOM      5  C   UNL d   1      31.303  18.001 -24.172  0.00  0.00     0.006 A 
ATOM      6  C   UNL d   1      30.587  17.608 -24.278  0.00  0.00     0.018 A 
ATOM      7  C   UNL d   1      29.781  16.425 -24.136  0.00  0.00     0.018 A 
ATOM      8  O   UNL d   1      32.491  16.431 -23.215  0.00  0.00    -0.265 OA
ATOM      9  C   UNL d   1      29.147  16.814 -24.489  0.00  0.00     0.002 A 
ATOM     10  C   UNL d   1      29.946  17.998 -24.633  0.00  0.00     0.002 A 
ATOM     11  C   UNL d   1      29.230  17.605 -24.739  0.00  0.00     0.000 A 
ATOM     12  C   UNL d   1      29.706  15.642 -23.885  0.00  0.00     0.002 C 
ATOM     13  C   UNL d   1      28.431  16.422 -24.594  0.00  0.00     0.000 C 
ENDROOT
BRANCH   4  14
ATOM     14  C   UNL d   1      32.655  17.996 -23.710  0.00  0.00     0.026 C 
BRANCH  14  15
ATOM     15  C   UNL d   1      32.813  18.404 -23.017  0.00  0.00     0.102 C 
BRANCH  15  16
ATOM     16  N   UNL d   1      32.832  19.229 -23.001  0.00  0.00    -0.206 NA
ATOM     17  C   UNL d   1      33.045  19.629 -22.310  0.00  0.00     0.285 C 
ATOM     18  O   UNL d   1      33.241  19.209 -21.632  0.00  0.00    -0.265 OA
BRANCH  17  19
ATOM     19  C   UNL d   1      33.061  20.456 -22.303  0.00  0.00     0.087 A 
ATOM     20  S   UNL d   1      32.901  20.932 -21.660  0.00  0.00    -0.082 SA
ATOM     21  C   UNL d   1      32.977  21.709 -21.881  0.00  0.00     0.036 A 
ATOM     22  C   UNL d   1      33.189  21.723 -22.684  0.00  0.00     0.008 A 
ATOM     23  C   UNL d   1      33.241  20.943 -22.945  0.00  0.00     0.012 A 
ENDBRANCH  17  19
ENDBRANCH  15  16
ENDBRANCH  14  15
ENDBRANCH   4  14
TORSDOF 4
ENDMDL
