MODEL 1
REMARK VINA RESULT:      49.6      0.000      0.000
REMARK  1 active torsions:
REMARK  status: ('A' for Active; 'I' for Inactive)
REMARK    1  A    between atoms: C_9  and  N_4 
ROOT
ATOM      1  C   UNL d   1     -54.728-101.968 -42.193  0.00  0.00     0.096 A 
ATOM      2  C   UNL d   1     -54.723-101.334 -41.678  0.00  0.00     0.109 A 
ATOM      3  N   UNL d   1     -54.724-100.642 -42.116  0.00  0.00    -0.162 NA
ATOM      4  N   UNL d   1     -54.728-100.857 -42.913  0.00  0.00    -0.195 N 
ATOM      5  C   UNL d   1     -54.731-101.672 -42.955  0.00  0.00     0.283 A 
ATOM      6  C   UNL d   1     -54.728-102.747 -41.901  0.00  0.00     0.105 A 
ATOM      7  C   UNL d   1     -54.720-101.469 -40.869  0.00  0.00     0.037 A 
ATOM      8  N   UNL d   1     -54.724-102.878 -41.092  0.00  0.00    -0.244 NA
ATOM      9  C   UNL d   1     -54.720-102.238 -40.567  0.00  0.00     0.083 A 
ATOM     10  O   UNL d   1     -54.735-102.118 -43.650  0.00  0.00    -0.265 OA
ATOM     11  C   UNL d   1     -54.715-100.832 -40.345  0.00  0.00     0.003 A 
ATOM     12  C   UNL d   1     -54.716-102.367 -39.751  0.00  0.00     0.019 A 
ATOM     13  C   UNL d   1     -54.712-100.969 -39.530  0.00  0.00     0.000 A 
ATOM     14  C   UNL d   1     -54.712-101.731 -39.235  0.00  0.00     0.002 A 
ENDROOT
BRANCH   4  15
ATOM     15  C   UNL d   1     -54.730-100.340 -43.557  0.00  0.00     0.086 A 
ATOM     16  C   UNL d   1     -54.712-100.643 -44.326  0.00  0.00     0.020 A 
ATOM     17  C   UNL d   1     -54.713-100.136 -44.966  0.00  0.00     0.013 A 
ATOM     18  C   UNL d   1     -54.733 -99.319 -44.848  0.00  0.00     0.058 A 
ATOM     19  C   UNL d   1     -54.752 -99.016 -44.078  0.00  0.00     0.013 A 
ATOM     20 CL   UNL d   1     -54.735 -98.809 -45.481  0.00  0.00    -0.082 Cl
ATOM     21  C   UNL d   1     -54.750 -99.518 -43.440  0.00  0.00     0.020 A 
ENDBRANCH   4  15
TORSDOF 1
ENDMDL
