MODEL 1
REMARK VINA RESULT:      -7.8      0.000      0.000
REMARK  3 active torsions:
REMARK  status: ('A' for Active; 'I' for Inactive)
REMARK    1  A    between atoms: C_8  and  C_6 
REMARK    2  A    between atoms: C_9  and  C_8 
REMARK       I    between atoms: N_10  and  C_9 
REMARK    3  A    between atoms: C_14  and  N_10 
ROOT
ATOM      1  N   UNL d   1     -49.139  12.740  21.654  0.00  0.00    -0.207 NA
ATOM      2  N   UNL d   1     -48.229  13.804  22.575  0.00  0.00    -0.240 NA
ATOM      3  C   UNL d   1     -48.373  12.708  21.929  0.00  0.00     0.297 A 
ATOM      4  C   UNL d   1     -49.710  13.332  21.756  0.00  0.00     0.086 A 
ATOM      5  C   UNL d   1     -48.926  14.234  22.541  0.00  0.00     0.083 A 
ATOM      6  C   UNL d   1     -48.068  13.071  22.241  0.00  0.00     0.144 A 
ATOM      7  C   UNL d   1     -49.636  14.043  22.167  0.00  0.00     0.035 A 
ATOM      8  O   UNL d   1     -47.956  12.029  21.722  0.00  0.00    -0.264 OA
ATOM      9  C   UNL d   1     -50.275  14.566  22.205  0.00  0.00     0.003 A 
ATOM     10  C   UNL d   1     -48.849  14.943  22.952  0.00  0.00     0.019 A 
ATOM     11  C   UNL d   1     -50.428  13.144  21.380  0.00  0.00     0.019 A 
ATOM     12  C   UNL d   1     -49.493  15.471  22.991  0.00  0.00     0.002 A 
ATOM     13  C   UNL d   1     -51.064  13.669  21.421  0.00  0.00     0.002 A 
ATOM     14  C   UNL d   1     -50.206  15.282  22.617  0.00  0.00     0.000 A 
ATOM     15  C   UNL d   1     -50.989  14.375  21.830  0.00  0.00     0.000 A 
ENDROOT
BRANCH   6  16
ATOM     16  C   UNL d   1     -47.303  12.802  22.387  0.00  0.00     0.086 C 
BRANCH  16  17
ATOM     17  C   UNL d   1     -47.098  12.570  23.155  0.00  0.00     0.281 C 
ATOM     18  N   UNL d   1     -46.305  12.575  23.380  0.00  0.00    -0.208 NA
ATOM     19  O   UNL d   1     -47.679  12.335  23.696  0.00  0.00    -0.265 OA
BRANCH  18  20
ATOM     20  C   UNL d   1     -45.714  12.807  22.850  0.00  0.00     0.085 A 
ATOM     21  C   UNL d   1     -45.585  13.598  22.691  0.00  0.00     0.019 A 
ATOM     22  C   UNL d   1     -44.999  13.825  22.165  0.00  0.00     0.002 A 
ATOM     23  C   UNL d   1     -44.533  13.252  21.789  0.00  0.00     0.000 A 
ATOM     24  C   UNL d   1     -44.670  12.447  21.955  0.00  0.00     0.002 A 
ATOM     25  C   UNL d   1     -45.258  12.233  22.483  0.00  0.00     0.019 A 
ENDBRANCH  18  20
ENDBRANCH  16  17
ENDBRANCH   6  16
TORSDOF 3
ENDMDL
MODEL 2
REMARK VINA RESULT:      -7.4      1.225      1.703
REMARK  3 active torsions:
REMARK  status: ('A' for Active; 'I' for Inactive)
REMARK    1  A    between atoms: C_8  and  C_6 
REMARK    2  A    between atoms: C_9  and  C_8 
REMARK       I    between atoms: N_10  and  C_9 
REMARK    3  A    between atoms: C_14  and  N_10 
ROOT
ATOM      1  N   UNL d   1     -48.941  13.619  21.588  0.00  0.00    -0.207 NA
ATOM      2  N   UNL d   1     -48.209  12.721  22.798  0.00  0.00    -0.240 NA
ATOM      3  C   UNL d   1     -48.169  13.575  21.845  0.00  0.00     0.297 A 
ATOM      4  C   UNL d   1     -49.611  13.216  21.862  0.00  0.00     0.086 A 
ATOM      5  C   UNL d   1     -48.978  12.453  22.893  0.00  0.00     0.083 A 
ATOM      6  C   UNL d   1     -47.925  13.269  22.256  0.00  0.00     0.144 A 
ATOM      7  C   UNL d   1     -49.655  12.664  22.474  0.00  0.00     0.035 A 
ATOM      8  O   UNL d   1     -47.639  14.059  21.442  0.00  0.00    -0.264 OA
ATOM      9  C   UNL d   1     -50.382  12.320  22.666  0.00  0.00     0.003 A 
ATOM     10  C   UNL d   1     -49.019  11.903  23.503  0.00  0.00     0.019 A 
ATOM     11  C   UNL d   1     -50.298  13.425  21.442  0.00  0.00     0.019 A 
ATOM     12  C   UNL d   1     -49.752  11.555  23.698  0.00  0.00     0.002 A 
ATOM     13  C   UNL d   1     -51.022  13.079  21.638  0.00  0.00     0.002 A 
ATOM     14  C   UNL d   1     -50.433  11.764  23.279  0.00  0.00     0.000 A 
ATOM     15  C   UNL d   1     -51.064  12.530  22.245  0.00  0.00     0.000 A 
ENDROOT
BRANCH   6  16
ATOM     16  C   UNL d   1     -47.116  13.407  22.318  0.00  0.00     0.086 C 
BRANCH  16  17
ATOM     17  C   UNL d   1     -46.832  13.862  22.948  0.00  0.00     0.281 C 
ATOM     18  N   UNL d   1     -46.041  13.794  23.172  0.00  0.00    -0.208 NA
ATOM     19  O   UNL d   1     -47.332  14.383  23.354  0.00  0.00    -0.265 OA
BRANCH  18  20
ATOM     20  C   UNL d   1     -45.530  13.278  22.776  0.00  0.00     0.085 A 
ATOM     21  C   UNL d   1     -45.099  13.533  22.131  0.00  0.00     0.019 A 
ATOM     22  C   UNL d   1     -44.594  13.018  21.740  0.00  0.00     0.002 A 
ATOM     23  C   UNL d   1     -44.518  12.235  21.998  0.00  0.00     0.000 A 
ATOM     24  C   UNL d   1     -44.961  11.981  22.657  0.00  0.00     0.002 A 
ATOM     25  C   UNL d   1     -45.461  12.503  23.039  0.00  0.00     0.019 A 
ENDBRANCH  18  20
ENDBRANCH  16  17
ENDBRANCH   6  16
TORSDOF 3
ENDMDL
MODEL 3
REMARK VINA RESULT:      -7.2      8.358      9.567
REMARK  3 active torsions:
REMARK  status: ('A' for Active; 'I' for Inactive)
REMARK    1  A    between atoms: C_8  and  C_6 
REMARK    2  A    between atoms: C_9  and  C_8 
REMARK       I    between atoms: N_10  and  C_9 
REMARK    3  A    between atoms: C_14  and  N_10 
ROOT
ATOM      1  N   UNL d   1     -39.829  15.736  21.077  0.00  0.00    -0.207 NA
ATOM      2  N   UNL d   1     -39.385  14.288  20.360  0.00  0.00    -0.240 NA
ATOM      3  C   UNL d   1     -39.977  15.423  20.339  0.00  0.00     0.297 A 
ATOM      4  C   UNL d   1     -39.399  15.415  21.709  0.00  0.00     0.086 A 
ATOM      5  C   UNL d   1     -39.025  14.182  21.089  0.00  0.00     0.083 A 
ATOM      6  C   UNL d   1     -39.825  14.931  20.101  0.00  0.00     0.144 A 
ATOM      7  C   UNL d   1     -39.012  14.687  21.740  0.00  0.00     0.035 A 
ATOM      8  O   UNL d   1     -40.430  15.899  19.843  0.00  0.00    -0.264 OA
ATOM      9  C   UNL d   1     -38.610  14.464  22.427  0.00  0.00     0.003 A 
ATOM     10  C   UNL d   1     -38.640  13.455  21.117  0.00  0.00     0.019 A 
ATOM     11  C   UNL d   1     -39.383  15.921  22.368  0.00  0.00     0.019 A 
ATOM     12  C   UNL d   1     -38.234  13.229  21.810  0.00  0.00     0.002 A 
ATOM     13  C   UNL d   1     -38.981  15.695  23.053  0.00  0.00     0.002 A 
ATOM     14  C   UNL d   1     -38.219  13.734  22.465  0.00  0.00     0.000 A 
ATOM     15  C   UNL d   1     -38.597  14.971  23.082  0.00  0.00     0.000 A 
ENDROOT
BRANCH   6  16
ATOM     16  C   UNL d   1     -40.105  14.851  19.330  0.00  0.00     0.086 C 
BRANCH  16  17
ATOM     17  C   UNL d   1     -40.652  14.253  19.162  0.00  0.00     0.281 C 
ATOM     18  N   UNL d   1     -40.736  13.989  18.385  0.00  0.00    -0.208 NA
ATOM     19  O   UNL d   1     -41.113  13.918  19.763  0.00  0.00    -0.265 OA
BRANCH  18  20
ATOM     20  C   UNL d   1     -40.282  14.314  17.775  0.00  0.00     0.085 A 
ATOM     21  C   UNL d   1     -40.530  14.988  17.386  0.00  0.00     0.019 A 
ATOM     22  C   UNL d   1     -40.078  15.307  16.781  0.00  0.00     0.002 A 
ATOM     23  C   UNL d   1     -39.364  14.948  16.561  0.00  0.00     0.000 A 
ATOM     24  C   UNL d   1     -39.117  14.260  16.962  0.00  0.00     0.002 A 
ATOM     25  C   UNL d   1     -39.577  13.951  17.564  0.00  0.00     0.019 A 
ENDBRANCH  18  20
ENDBRANCH  16  17
ENDBRANCH   6  16
TORSDOF 3
ENDMDL
MODEL 4
REMARK VINA RESULT:      -7.0      1.051      4.407
REMARK  3 active torsions:
REMARK  status: ('A' for Active; 'I' for Inactive)
REMARK    1  A    between atoms: C_8  and  C_6 
REMARK    2  A    between atoms: C_9  and  C_8 
REMARK       I    between atoms: N_10  and  C_9 
REMARK    3  A    between atoms: C_14  and  N_10 
ROOT
ATOM      1  N   UNL d   1     -47.284  11.643  23.571  0.00  0.00    -0.207 NA
ATOM      2  N   UNL d   1     -47.224  13.056  22.671  0.00  0.00    -0.240 NA
ATOM      3  C   UNL d   1     -47.855  12.189  23.371  0.00  0.00     0.297 A 
ATOM      4  C   UNL d   1     -46.477  11.631  23.379  0.00  0.00     0.086 A 
ATOM      5  C   UNL d   1     -46.436  12.837  22.613  0.00  0.00     0.083 A 
ATOM      6  C   UNL d   1     -47.830  12.666  23.066  0.00  0.00     0.144 A 
ATOM      7  C   UNL d   1     -46.055  12.180  22.931  0.00  0.00     0.035 A 
ATOM      8  O   UNL d   1     -48.609  12.026  23.659  0.00  0.00    -0.264 OA
ATOM      9  C   UNL d   1     -45.246  12.069  22.800  0.00  0.00     0.003 A 
ATOM     10  C   UNL d   1     -46.017  13.387  22.165  0.00  0.00     0.019 A 
ATOM     11  C   UNL d   1     -46.088  10.969  23.698  0.00  0.00     0.019 A 
ATOM     12  C   UNL d   1     -45.201  13.275  22.033  0.00  0.00     0.002 A 
ATOM     13  C   UNL d   1     -45.280  10.862  23.565  0.00  0.00     0.002 A 
ATOM     14  C   UNL d   1     -44.816  12.616  22.350  0.00  0.00     0.000 A 
ATOM     15  C   UNL d   1     -44.862  11.407  23.119  0.00  0.00     0.000 A 
ENDROOT
BRANCH   6  16
ATOM     16  C   UNL d   1     -48.559  13.046  23.008  0.00  0.00     0.086 C 
BRANCH  16  17
ATOM     17  C   UNL d   1     -48.615  13.844  23.219  0.00  0.00     0.281 C 
ATOM     18  N   UNL d   1     -49.253  14.291  22.948  0.00  0.00    -0.208 NA
ATOM     19  O   UNL d   1     -48.039  14.197  23.698  0.00  0.00    -0.265 OA
BRANCH  18  20
ATOM     20  C   UNL d   1     -49.836  13.951  22.469  0.00  0.00     0.085 A 
ATOM     21  C   UNL d   1     -50.488  13.588  22.801  0.00  0.00     0.019 A 
ATOM     22  C   UNL d   1     -51.063  13.252  22.323  0.00  0.00     0.002 A 
ATOM     23  C   UNL d   1     -50.987  13.278  21.499  0.00  0.00     0.000 A 
ATOM     24  C   UNL d   1     -50.318  13.649  21.166  0.00  0.00     0.002 A 
ATOM     25  C   UNL d   1     -49.751  13.981  21.653  0.00  0.00     0.019 A 
ENDBRANCH  18  20
ENDBRANCH  16  17
ENDBRANCH   6  16
TORSDOF 3
ENDMDL
MODEL 5
REMARK VINA RESULT:      -6.8      8.593      9.979
REMARK  3 active torsions:
REMARK  status: ('A' for Active; 'I' for Inactive)
REMARK    1  A    between atoms: C_8  and  C_6 
REMARK    2  A    between atoms: C_9  and  C_8 
REMARK       I    between atoms: N_10  and  C_9 
REMARK    3  A    between atoms: C_14  and  N_10 
ROOT
ATOM      1  N   UNL d   1     -38.573  13.645  19.998  0.00  0.00    -0.207 NA
ATOM      2  N   UNL d   1     -39.538  14.829  19.310  0.00  0.00    -0.240 NA
ATOM      3  C   UNL d   1     -38.737  13.834  19.223  0.00  0.00     0.297 A 
ATOM      4  C   UNL d   1     -38.848  13.998  20.696  0.00  0.00     0.086 A 
ATOM      5  C   UNL d   1     -39.669  15.005  20.100  0.00  0.00     0.083 A 
ATOM      6  C   UNL d   1     -39.065  14.237  18.994  0.00  0.00     0.144 A 
ATOM      7  C   UNL d   1     -39.363  14.638  20.771  0.00  0.00     0.035 A 
ATOM      8  O   UNL d   1     -38.364  13.361  18.662  0.00  0.00    -0.264 OA
ATOM      9  C   UNL d   1     -39.572  14.912  21.522  0.00  0.00     0.003 A 
ATOM     10  C   UNL d   1     -40.183  15.644  20.171  0.00  0.00     0.019 A 
ATOM     11  C   UNL d   1     -38.541  13.631  21.377  0.00  0.00     0.019 A 
ATOM     12  C   UNL d   1     -40.395  15.921  20.929  0.00  0.00     0.002 A 
ATOM     13  C   UNL d   1     -38.753  13.908  22.125  0.00  0.00     0.002 A 
ATOM     14  C   UNL d   1     -40.089  15.555  21.604  0.00  0.00     0.000 A 
ATOM     15  C   UNL d   1     -39.265  14.543  22.198  0.00  0.00     0.000 A 
ENDROOT
BRANCH   6  16
ATOM     16  C   UNL d   1     -39.063  14.219  18.170  0.00  0.00     0.086 C 
BRANCH  16  17
ATOM     17  C   UNL d   1     -39.770  14.064  17.770  0.00  0.00     0.281 C 
ATOM     18  N   UNL d   1     -39.843  14.284  16.978  0.00  0.00    -0.208 NA
ATOM     19  O   UNL d   1     -40.402  13.692  18.154  0.00  0.00    -0.265 OA
BRANCH  18  20
ATOM     20  C   UNL d   1     -39.219  14.657  16.582  0.00  0.00     0.085 A 
ATOM     21  C   UNL d   1     -39.148  15.471  16.592  0.00  0.00     0.019 A 
ATOM     22  C   UNL d   1     -38.528  15.836  16.198  0.00  0.00     0.002 A 
ATOM     23  C   UNL d   1     -37.970  15.382  15.788  0.00  0.00     0.000 A 
ATOM     24  C   UNL d   1     -38.049  14.552  15.782  0.00  0.00     0.002 A 
ATOM     25  C   UNL d   1     -38.672  14.199  16.178  0.00  0.00     0.019 A 
ENDBRANCH  18  20
ENDBRANCH  16  17
ENDBRANCH   6  16
TORSDOF 3
ENDMDL
MODEL 6
REMARK VINA RESULT:      -5.6      1.325      4.820
REMARK  3 active torsions:
REMARK  status: ('A' for Active; 'I' for Inactive)
REMARK    1  A    between atoms: C_8  and  C_6 
REMARK    2  A    between atoms: C_9  and  C_8 
REMARK       I    between atoms: N_10  and  C_9 
REMARK    3  A    between atoms: C_14  and  N_10 
ROOT
ATOM      1  N   UNL d   1     -45.139  13.070  21.990  0.00  0.00    -0.207 NA
ATOM      2  N   UNL d   1     -46.195  12.135  22.896  0.00  0.00    -0.240 NA
ATOM      3  C   UNL d   1     -45.935  13.143  22.151  0.00  0.00     0.297 A 
ATOM      4  C   UNL d   1     -44.604  12.488  22.239  0.00  0.00     0.086 A 
ATOM      5  C   UNL d   1     -45.511  11.697  23.010  0.00  0.00     0.083 A 
ATOM      6  C   UNL d   1     -46.289  12.824  22.459  0.00  0.00     0.144 A 
ATOM      7  C   UNL d   1     -44.753  11.833  22.718  0.00  0.00     0.035 A 
ATOM      8  O   UNL d   1     -46.300  13.797  21.809  0.00  0.00    -0.264 OA
ATOM      9  C   UNL d   1     -44.140  11.312  22.906  0.00  0.00     0.003 A 
ATOM     10  C   UNL d   1     -45.664  11.044  23.488  0.00  0.00     0.019 A 
ATOM     11  C   UNL d   1     -43.836  12.622  21.948  0.00  0.00     0.019 A 
ATOM     12  C   UNL d   1     -45.045  10.518  23.678  0.00  0.00     0.002 A 
ATOM     13  C   UNL d   1     -43.226  12.099  22.137  0.00  0.00     0.002 A 
ATOM     14  C   UNL d   1     -44.283  10.652  23.387  0.00  0.00     0.000 A 
ATOM     15  C   UNL d   1     -43.376  11.449  22.613  0.00  0.00     0.000 A 
ENDROOT
BRANCH   6  16
ATOM     16  C   UNL d   1     -47.058  13.118  22.465  0.00  0.00     0.086 C 
BRANCH  16  17
ATOM     17  C   UNL d   1     -47.325  13.533  23.129  0.00  0.00     0.281 C 
ATOM     18  N   UNL d   1     -48.136  13.598  23.267  0.00  0.00    -0.208 NA
ATOM     19  O   UNL d   1     -46.789  13.883  23.654  0.00  0.00    -0.265 OA
BRANCH  18  20
ATOM     20  C   UNL d   1     -48.683  13.254  22.750  0.00  0.00     0.085 A 
ATOM     21  C   UNL d   1     -48.910  13.641  22.067  0.00  0.00     0.019 A 
ATOM     22  C   UNL d   1     -49.453  13.296  21.558  0.00  0.00     0.002 A 
ATOM     23  C   UNL d   1     -49.774  12.553  21.733  0.00  0.00     0.000 A 
ATOM     24  C   UNL d   1     -49.538  12.164  22.431  0.00  0.00     0.002 A 
ATOM     25  C   UNL d   1     -48.996  12.518  22.932  0.00  0.00     0.019 A 
ENDBRANCH  18  20
ENDBRANCH  16  17
ENDBRANCH   6  16
TORSDOF 3
ENDMDL
