MODEL 1
REMARK VINA RESULT:      -3.1      0.000      0.000
REMARK  4 active torsions:
REMARK  status: ('A' for Active; 'I' for Inactive)
REMARK    1  A    between atoms: C_2  and  C_1 
REMARK    2  A    between atoms: N_13  and  C_6 
REMARK    3  A    between atoms: N_12  and  N_13 
REMARK    4  A    between atoms: C_15  and  N_12 
ROOT
ATOM      1  C   UNL d   1      32.909  20.265 -22.291  0.00  0.00     0.095 A 
ATOM      2  N   UNL d   1      32.685  19.459 -22.255  0.00  0.00    -0.219 NA
ATOM      3  C   UNL d   1      32.889  19.126 -22.972  0.00  0.00     0.215 A 
ATOM      4  S   UNL d   1      33.233  19.686 -23.463  0.00  0.00    -0.045 SA
ATOM      5  C   UNL d   1      33.241  20.383 -23.036  0.00  0.00     0.058 A 
ENDROOT
BRANCH   1   6
ATOM      6  C   UNL d   1      32.836  20.874 -21.722  0.00  0.00     0.082 A 
ATOM      7  C   UNL d   1      32.999  20.709 -20.940  0.00  0.00     0.302 A 
ATOM      8  O   UNL d   1      32.932  21.312 -20.342  0.00  0.00    -0.273 OA
ATOM      9  O   UNL d   1      33.241  19.907 -20.734  0.00  0.00    -0.259 OA
ATOM     10  C   UNL d   1      32.691  22.092 -20.584  0.00  0.00     0.103 A 
ATOM     11  C   UNL d   1      32.528  22.257 -21.367  0.00  0.00     0.023 A 
ATOM     12  C   UNL d   1      32.631  22.666 -19.994  0.00  0.00     0.025 A 
ATOM     13  C   UNL d   1      32.601  21.648 -21.936  0.00  0.00     0.009 A 
ATOM     14  C   UNL d   1      32.299  23.002 -21.588  0.00  0.00     0.002 A 
ATOM     15  C   UNL d   1      32.226  23.612 -21.018  0.00  0.00     0.000 A 
ATOM     16  C   UNL d   1      32.389  23.447 -20.236  0.00  0.00     0.002 A 
ENDBRANCH   1   6
BRANCH   3  17
ATOM     17  N   UNL d   1      32.750  18.302 -23.154  0.00  0.00    -0.122 NA
BRANCH  17  18
ATOM     18  N   UNL d   1      32.158  18.129 -23.712  0.00  0.00    -0.146 NA
BRANCH  18  19
ATOM     19  C   UNL d   1      31.942  17.356 -23.891  0.00  0.00     0.103 A 
ATOM     20  C   UNL d   1      31.216  17.216 -24.280  0.00  0.00     0.021 A 
ATOM     21  C   UNL d   1      30.996  16.426 -24.462  0.00  0.00     0.002 A 
ATOM     22  C   UNL d   1      31.515  15.823 -24.245  0.00  0.00     0.000 A 
ATOM     23  C   UNL d   1      32.216  15.974 -23.868  0.00  0.00     0.002 A 
ATOM     24  C   UNL d   1      32.430  16.741 -23.691  0.00  0.00     0.021 A 
ENDBRANCH  18  19
ENDBRANCH  17  18
ENDBRANCH   3  17
TORSDOF 4
ENDMDL
MODEL 2
REMARK VINA RESULT:      -2.3      1.629      5.643
REMARK  4 active torsions:
REMARK  status: ('A' for Active; 'I' for Inactive)
REMARK    1  A    between atoms: C_2  and  C_1 
REMARK    2  A    between atoms: N_13  and  C_6 
REMARK    3  A    between atoms: N_12  and  N_13 
REMARK    4  A    between atoms: C_15  and  N_12 
ROOT
ATOM      1  C   UNL d   1      33.124  19.185 -22.681  0.00  0.00     0.095 A 
ATOM      2  N   UNL d   1      33.021  20.014 -22.732  0.00  0.00    -0.219 NA
ATOM      3  C   UNL d   1      33.080  20.305 -21.972  0.00  0.00     0.215 A 
ATOM      4  S   UNL d   1      33.215  19.696 -21.439  0.00  0.00    -0.045 SA
ATOM      5  C   UNL d   1      33.241  19.011 -21.884  0.00  0.00     0.058 A 
ENDROOT
BRANCH   1   6
ATOM      6  C   UNL d   1      33.119  18.600 -23.279  0.00  0.00     0.082 A 
ATOM      7  C   UNL d   1      33.063  18.830 -24.060  0.00  0.00     0.302 A 
ATOM      8  O   UNL d   1      33.056  18.253 -24.687  0.00  0.00    -0.273 OA
ATOM      9  O   UNL d   1      33.012  19.673 -24.235  0.00  0.00    -0.259 OA
ATOM     10  C   UNL d   1      33.109  17.430 -24.476  0.00  0.00     0.103 A 
ATOM     11  C   UNL d   1      33.164  17.200 -23.695  0.00  0.00     0.023 A 
ATOM     12  C   UNL d   1      33.101  16.883 -25.094  0.00  0.00     0.025 A 
ATOM     13  C   UNL d   1      33.169  17.785 -23.097  0.00  0.00     0.009 A 
ATOM     14  C   UNL d   1      33.214  16.414 -23.504  0.00  0.00     0.002 A 
ATOM     15  C   UNL d   1      33.209  15.829 -24.102  0.00  0.00     0.000 A 
ATOM     16  C   UNL d   1      33.154  16.059 -24.883  0.00  0.00     0.002 A 
ENDBRANCH   1   6
BRANCH   3  17
ATOM     17  N   UNL d   1      33.006  21.137 -21.789  0.00  0.00    -0.122 NA
BRANCH  17  18
ATOM     18  N   UNL d   1      32.435  21.356 -21.226  0.00  0.00    -0.146 NA
BRANCH  18  19
ATOM     19  C   UNL d   1      32.351  22.133 -20.972  0.00  0.00     0.103 A 
ATOM     20  C   UNL d   1      32.587  22.336 -20.196  0.00  0.00     0.021 A 
ATOM     21  C   UNL d   1      32.501  23.130 -19.937  0.00  0.00     0.002 A 
ATOM     22  C   UNL d   1      32.184  23.675 -20.468  0.00  0.00     0.000 A 
ATOM     23  C   UNL d   1      31.959  23.464 -21.217  0.00  0.00     0.002 A 
ATOM     24  C   UNL d   1      32.043  22.692 -21.469  0.00  0.00     0.021 A 
ENDBRANCH  18  19
ENDBRANCH  17  18
ENDBRANCH   3  17
TORSDOF 4
ENDMDL
MODEL 3
REMARK VINA RESULT:      -1.7      3.661      6.022
REMARK  4 active torsions:
REMARK  status: ('A' for Active; 'I' for Inactive)
REMARK    1  A    between atoms: C_2  and  C_1 
REMARK    2  A    between atoms: N_13  and  C_6 
REMARK    3  A    between atoms: N_12  and  N_13 
REMARK    4  A    between atoms: C_15  and  N_12 
ROOT
ATOM      1  C   UNL d   1      32.676  23.053 -21.004  0.00  0.00     0.095 A 
ATOM      2  N   UNL d   1      33.161  22.958 -20.328  0.00  0.00    -0.219 NA
ATOM      3  C   UNL d   1      32.790  23.350 -19.715  0.00  0.00     0.215 A 
ATOM      4  S   UNL d   1      32.090  23.691 -19.973  0.00  0.00    -0.045 SA
ATOM      5  C   UNL d   1      32.028  23.503 -20.767  0.00  0.00     0.058 A 
ENDROOT
BRANCH   1   6
ATOM      6  C   UNL d   1      32.775  22.773 -21.786  0.00  0.00     0.082 A 
ATOM      7  C   UNL d   1      32.827  21.970 -21.918  0.00  0.00     0.302 A 
ATOM      8  O   UNL d   1      32.928  21.661 -22.706  0.00  0.00    -0.273 OA
ATOM      9  O   UNL d   1      32.777  21.441 -21.238  0.00  0.00    -0.259 OA
ATOM     10  C   UNL d   1      32.972  22.214 -23.351  0.00  0.00     0.103 A 
ATOM     11  C   UNL d   1      32.920  23.018 -23.219  0.00  0.00     0.023 A 
ATOM     12  C   UNL d   1      33.070  21.900 -24.108  0.00  0.00     0.025 A 
ATOM     13  C   UNL d   1      32.821  23.298 -22.437  0.00  0.00     0.009 A 
ATOM     14  C   UNL d   1      32.963  23.537 -23.840  0.00  0.00     0.002 A 
ATOM     15  C   UNL d   1      33.062  23.258 -24.623  0.00  0.00     0.000 A 
ATOM     16  C   UNL d   1      33.115  22.454 -24.754  0.00  0.00     0.002 A 
ENDBRANCH   1   6
BRANCH   3  17
ATOM     17  N   UNL d   1      33.115  23.382 -18.925  0.00  0.00    -0.122 NA
BRANCH  17  18
ATOM     18  N   UNL d   1      32.578  23.459 -18.295  0.00  0.00    -0.146 NA
BRANCH  18  19
ATOM     19  C   UNL d   1      32.762  23.204 -17.535  0.00  0.00     0.103 A 
ATOM     20  C   UNL d   1      33.050  22.427 -17.425  0.00  0.00     0.021 A 
ATOM     21  C   UNL d   1      33.238  22.167 -16.649  0.00  0.00     0.002 A 
ATOM     22  C   UNL d   1      33.127  22.699 -16.028  0.00  0.00     0.000 A 
ATOM     23  C   UNL d   1      32.847  23.449 -16.150  0.00  0.00     0.002 A 
ATOM     24  C   UNL d   1      32.665  23.702 -16.904  0.00  0.00     0.021 A 
ENDBRANCH  18  19
ENDBRANCH  17  18
ENDBRANCH   3  17
TORSDOF 4
ENDMDL
MODEL 4
REMARK VINA RESULT:      -1.1      2.311      5.831
REMARK  4 active torsions:
REMARK  status: ('A' for Active; 'I' for Inactive)
REMARK    1  A    between atoms: C_2  and  C_1 
REMARK    2  A    between atoms: N_13  and  C_6 
REMARK    3  A    between atoms: N_12  and  N_13 
REMARK    4  A    between atoms: C_15  and  N_12 
ROOT
ATOM      1  C   UNL d   1      32.687  21.672 -21.326  0.00  0.00     0.095 A 
ATOM      2  N   UNL d   1      33.087  21.975 -20.656  0.00  0.00    -0.219 NA
ATOM      3  C   UNL d   1      32.715  22.674 -20.456  0.00  0.00     0.215 A 
ATOM      4  S   UNL d   1      32.095  22.828 -20.971  0.00  0.00    -0.045 SA
ATOM      5  C   UNL d   1      32.086  22.206 -21.503  0.00  0.00     0.058 A 
ENDROOT
BRANCH   1   6
ATOM      6  C   UNL d   1      32.823  20.976 -21.769  0.00  0.00     0.082 A 
ATOM      7  C   UNL d   1      32.950  20.272 -21.376  0.00  0.00     0.302 A 
ATOM      8  O   UNL d   1      33.090  19.549 -21.806  0.00  0.00    -0.273 OA
ATOM      9  O   UNL d   1      32.938  20.279 -20.514  0.00  0.00    -0.259 OA
ATOM     10  C   UNL d   1      33.094  19.583 -22.656  0.00  0.00     0.103 A 
ATOM     11  C   UNL d   1      32.967  20.287 -23.049  0.00  0.00     0.023 A 
ATOM     12  C   UNL d   1      33.232  18.875 -23.059  0.00  0.00     0.025 A 
ATOM     13  C   UNL d   1      32.832  20.983 -22.606  0.00  0.00     0.009 A 
ATOM     14  C   UNL d   1      32.973  20.308 -23.859  0.00  0.00     0.002 A 
ATOM     15  C   UNL d   1      33.109  19.612 -24.303  0.00  0.00     0.000 A 
ATOM     16  C   UNL d   1      33.236  18.908 -23.910  0.00  0.00     0.002 A 
ENDBRANCH   1   6
BRANCH   3  17
ATOM     17  N   UNL d   1      32.962  23.156 -19.795  0.00  0.00    -0.122 NA
BRANCH  17  18
ATOM     18  N   UNL d   1      32.366  23.499 -19.328  0.00  0.00    -0.146 NA
BRANCH  18  19
ATOM     19  C   UNL d   1      32.426  23.540 -18.509  0.00  0.00     0.103 A 
ATOM     20  C   UNL d   1      33.177  23.461 -18.151  0.00  0.00     0.021 A 
ATOM     21  C   UNL d   1      33.238  23.503 -17.315  0.00  0.00     0.002 A 
ATOM     22  C   UNL d   1      32.544  23.621 -16.884  0.00  0.00     0.000 A 
ATOM     23  C   UNL d   1      31.823  23.696 -17.245  0.00  0.00     0.002 A 
ATOM     24  C   UNL d   1      31.764  23.655 -18.058  0.00  0.00     0.021 A 
ENDBRANCH  18  19
ENDBRANCH  17  18
ENDBRANCH   3  17
TORSDOF 4
ENDMDL
MODEL 5
REMARK VINA RESULT:      -1.1      2.661      5.940
REMARK  4 active torsions:
REMARK  status: ('A' for Active; 'I' for Inactive)
REMARK    1  A    between atoms: C_2  and  C_1 
REMARK    2  A    between atoms: N_13  and  C_6 
REMARK    3  A    between atoms: N_12  and  N_13 
REMARK    4  A    between atoms: C_15  and  N_12 
ROOT
ATOM      1  C   UNL d   1      31.208  16.380 -23.531  0.00  0.00     0.095 A 
ATOM      2  N   UNL d   1      31.540  17.121 -23.325  0.00  0.00    -0.219 NA
ATOM      3  C   UNL d   1      32.335  16.993 -23.192  0.00  0.00     0.215 A 
ATOM      4  S   UNL d   1      32.523  16.202 -23.305  0.00  0.00    -0.045 SA
ATOM      5  C   UNL d   1      31.823  15.833 -23.513  0.00  0.00     0.058 A 
ENDROOT
BRANCH   1   6
ATOM      6  C   UNL d   1      30.421  16.174 -23.726  0.00  0.00     0.082 A 
ATOM      7  C   UNL d   1      30.232  16.013 -24.503  0.00  0.00     0.302 A 
ATOM      8  O   UNL d   1      29.437  15.801 -24.726  0.00  0.00    -0.273 OA
ATOM      9  O   UNL d   1      30.859  16.063 -25.094  0.00  0.00    -0.259 OA
ATOM     10  C   UNL d   1      28.846  15.762 -24.115  0.00  0.00     0.103 A 
ATOM     11  C   UNL d   1      29.035  15.923 -23.337  0.00  0.00     0.023 A 
ATOM     12  C   UNL d   1      28.081  15.555 -24.346  0.00  0.00     0.025 A 
ATOM     13  C   UNL d   1      29.822  16.129 -23.143  0.00  0.00     0.009 A 
ATOM     14  C   UNL d   1      28.465  15.883 -22.762  0.00  0.00     0.002 A 
ATOM     15  C   UNL d   1      27.677  15.677 -22.957  0.00  0.00     0.000 A 
ATOM     16  C   UNL d   1      27.489  15.516 -23.734  0.00  0.00     0.002 A 
ENDBRANCH   1   6
BRANCH   3  17
ATOM     17  N   UNL d   1      32.871  17.619 -22.967  0.00  0.00    -0.122 NA
BRANCH  17  18
ATOM     18  N   UNL d   1      32.749  18.368 -23.307  0.00  0.00    -0.146 NA
BRANCH  18  19
ATOM     19  C   UNL d   1      32.912  19.062 -22.899  0.00  0.00     0.103 A 
ATOM     20  C   UNL d   1      32.905  19.789 -23.312  0.00  0.00     0.021 A 
ATOM     21  C   UNL d   1      33.072  20.498 -22.895  0.00  0.00     0.002 A 
ATOM     22  C   UNL d   1      33.237  20.440 -22.089  0.00  0.00     0.000 A 
ATOM     23  C   UNL d   1      33.241  19.728 -21.701  0.00  0.00     0.002 A 
ATOM     24  C   UNL d   1      33.079  19.039 -22.107  0.00  0.00     0.021 A 
ENDBRANCH  18  19
ENDBRANCH  17  18
ENDBRANCH   3  17
TORSDOF 4
ENDMDL
MODEL 6
REMARK VINA RESULT:      -1.0      1.402      2.100
REMARK  4 active torsions:
REMARK  status: ('A' for Active; 'I' for Inactive)
REMARK    1  A    between atoms: C_2  and  C_1 
REMARK    2  A    between atoms: N_13  and  C_6 
REMARK    3  A    between atoms: N_12  and  N_13 
REMARK    4  A    between atoms: C_15  and  N_12 
ROOT
ATOM      1  C   UNL d   1      32.691  21.891 -21.949  0.00  0.00     0.095 A 
ATOM      2  N   UNL d   1      32.354  21.169 -22.205  0.00  0.00    -0.219 NA
ATOM      3  C   UNL d   1      32.699  20.990 -22.924  0.00  0.00     0.215 A 
ATOM      4  S   UNL d   1      33.241  21.569 -23.136  0.00  0.00    -0.045 SA
ATOM      5  C   UNL d   1      33.229  22.119 -22.530  0.00  0.00     0.058 A 
ENDROOT
BRANCH   1   6
ATOM      6  C   UNL d   1      32.551  22.339 -21.257  0.00  0.00     0.082 A 
ATOM      7  C   UNL d   1      31.995  22.936 -21.274  0.00  0.00     0.302 A 
ATOM      8  O   UNL d   1      31.835  23.406 -20.581  0.00  0.00    -0.273 OA
ATOM      9  O   UNL d   1      31.573  23.079 -22.013  0.00  0.00    -0.259 OA
ATOM     10  C   UNL d   1      32.272  23.235 -19.871  0.00  0.00     0.103 A 
ATOM     11  C   UNL d   1      32.828  22.638 -19.853  0.00  0.00     0.023 A 
ATOM     12  C   UNL d   1      32.106  23.698 -19.208  0.00  0.00     0.025 A 
ATOM     13  C   UNL d   1      32.968  22.190 -20.546  0.00  0.00     0.009 A 
ATOM     14  C   UNL d   1      33.238  22.482 -19.173  0.00  0.00     0.002 A 
ATOM     15  C   UNL d   1      33.099  22.930 -18.479  0.00  0.00     0.000 A 
ATOM     16  C   UNL d   1      32.543  23.527 -18.497  0.00  0.00     0.002 A 
ENDBRANCH   1   6
BRANCH   3  17
ATOM     17  N   UNL d   1      32.500  20.288 -23.369  0.00  0.00    -0.122 NA
BRANCH  17  18
ATOM     18  N   UNL d   1      32.926  19.595 -23.199  0.00  0.00    -0.146 NA
BRANCH  18  19
ATOM     19  C   UNL d   1      32.741  18.875 -23.551  0.00  0.00     0.103 A 
ATOM     20  C   UNL d   1      33.179  18.195 -23.341  0.00  0.00     0.021 A 
ATOM     21  C   UNL d   1      32.991  17.460 -23.701  0.00  0.00     0.002 A 
ATOM     22  C   UNL d   1      32.375  17.447 -24.250  0.00  0.00     0.000 A 
ATOM     23  C   UNL d   1      31.958  18.115 -24.443  0.00  0.00     0.002 A 
ATOM     24  C   UNL d   1      32.142  18.829 -24.094  0.00  0.00     0.021 A 
ENDBRANCH  18  19
ENDBRANCH  17  18
ENDBRANCH   3  17
TORSDOF 4
ENDMDL
