MODEL 1
REMARK VINA RESULT:       4.4      0.000      0.000
REMARK  5 active torsions:
REMARK  status: ('A' for Active; 'I' for Inactive)
REMARK    1  A    between atoms: C_6  and  N_1 
REMARK    2  A    between atoms: C_7  and  C_2 
REMARK    3  A    between atoms: C_14  and  C_5 
REMARK    4  A    between atoms: C_11  and  C_7 
REMARK    5  A    between atoms: O_26  and  C_23 
ROOT
ATOM      1  N   UNL d   1      57.977  -1.813  30.144  0.00  0.00    -0.250 N 
ATOM      2  C   UNL d   1      57.593  -0.704  30.762  0.00  0.00     0.099 A 
ATOM      3  C   UNL d   1      57.365  -1.998  30.685  0.00  0.00     0.305 A 
ATOM      4  C   UNL d   1      57.134  -1.351  31.053  0.00  0.00     0.256 A 
ATOM      5  C   UNL d   1      58.115  -1.014  30.193  0.00  0.00     0.075 A 
ATOM      6  O   UNL d   1      57.041  -2.754  30.823  0.00  0.00    -0.263 OA
ATOM      7  O   UNL d   1      56.529  -1.322  31.637  0.00  0.00    -0.281 OA
ENDROOT
BRANCH   5   8
ATOM      8  C   UNL d   1      58.666  -0.595  29.763  0.00  0.00     0.017 A 
ATOM      9  C   UNL d   1      58.434  -0.230  29.062  0.00  0.00     0.004 A 
ATOM     10  C   UNL d   1      59.007   0.203  28.620  0.00  0.00     0.024 A 
ATOM     11  C   UNL d   1      59.787   0.261  28.885  0.00  0.00     0.094 A 
ATOM     12  C   UNL d   1      60.003  -0.113  29.592  0.00  0.00     0.024 A 
ATOM     13  C   UNL d   1      59.443  -0.541  30.032  0.00  0.00     0.004 A 
BRANCH  11  14
ATOM     14  O   UNL d   1      60.340   0.680  28.456  0.00  0.00    -0.328 OA
ATOM     15  C   UNL d   1      61.126   0.680  28.696  0.00  0.00     0.181 C 
ENDBRANCH  11  14
ENDBRANCH   5   8
BRANCH   2  16
ATOM     16  C   UNL d   1      57.537   0.087  30.995  0.00  0.00     0.206 C 
ATOM     17  O   UNL d   1      57.429   0.680  30.403  0.00  0.00    -0.286 OA
BRANCH  16  18
ATOM     18  C   UNL d   1      57.586   0.278  31.784  0.00  0.00     0.069 A 
ATOM     19  S   UNL d   1      56.946   0.345  32.334  0.00  0.00    -0.083 SA
ATOM     20  C   UNL d   1      57.247   0.543  33.045  0.00  0.00     0.035 A 
ATOM     21  C   UNL d   1      58.063   0.609  32.986  0.00  0.00     0.008 A 
ATOM     22  C   UNL d   1      58.279   0.440  32.185  0.00  0.00     0.010 A 
ENDBRANCH  16  18
ENDBRANCH   2  16
BRANCH   1  23
ATOM     23  C   UNL d   1      58.350  -2.376  29.661  0.00  0.00     0.204 A 
ATOM     24  S   UNL d   1      58.995  -2.838  29.924  0.00  0.00    -0.025 SA
ATOM     25  C   UNL d   1      59.218  -3.330  29.298  0.00  0.00     0.161 A 
ATOM     26  N   UNL d   1      58.719  -3.171  28.668  0.00  0.00    -0.137 NA
ATOM     27  N   UNL d   1      58.179  -2.578  28.889  0.00  0.00    -0.122 NA
ENDBRANCH   1  23
TORSDOF 5
ENDMDL
MODEL 2
REMARK VINA RESULT:       5.1      2.246      3.153
REMARK  5 active torsions:
REMARK  status: ('A' for Active; 'I' for Inactive)
REMARK    1  A    between atoms: C_6  and  N_1 
REMARK    2  A    between atoms: C_7  and  C_2 
REMARK    3  A    between atoms: C_14  and  C_5 
REMARK    4  A    between atoms: C_11  and  C_7 
REMARK    5  A    between atoms: O_26  and  C_23 
ROOT
ATOM      1  N   UNL d   1      58.431   0.382  32.450  0.00  0.00    -0.250 N 
ATOM      2  C   UNL d   1      57.127   0.136  32.451  0.00  0.00     0.099 A 
ATOM      3  C   UNL d   1      58.136   0.472  33.228  0.00  0.00     0.305 A 
ATOM      4  C   UNL d   1      57.369   0.329  33.238  0.00  0.00     0.256 A 
ATOM      5  C   UNL d   1      57.807   0.175  31.972  0.00  0.00     0.075 A 
ATOM      6  O   UNL d   1      58.579   0.682  33.902  0.00  0.00    -0.263 OA
ATOM      7  O   UNL d   1      56.884   0.365  33.924  0.00  0.00    -0.281 OA
ENDROOT
BRANCH   5   8
ATOM      8  C   UNL d   1      57.842   0.032  31.171  0.00  0.00     0.017 A 
ATOM      9  C   UNL d   1      57.955  -0.740  30.906  0.00  0.00     0.004 A 
ATOM     10  C   UNL d   1      57.991  -0.884  30.075  0.00  0.00     0.024 A 
ATOM     11  C   UNL d   1      57.914  -0.263  29.538  0.00  0.00     0.094 A 
ATOM     12  C   UNL d   1      57.802   0.507  29.821  0.00  0.00     0.024 A 
ATOM     13  C   UNL d   1      57.765   0.655  30.638  0.00  0.00     0.004 A 
BRANCH  11  14
ATOM     14  O   UNL d   1      57.949  -0.403  28.735  0.00  0.00    -0.328 OA
ATOM     15  C   UNL d   1      58.297  -1.094  28.458  0.00  0.00     0.181 C 
ENDBRANCH  11  14
ENDBRANCH   5   8
BRANCH   2  16
ATOM     16  C   UNL d   1      56.363  -0.055  32.202  0.00  0.00     0.206 C 
ATOM     17  O   UNL d   1      56.093   0.234  31.456  0.00  0.00    -0.286 OA
BRANCH  16  18
ATOM     18  C   UNL d   1      55.889  -0.515  32.675  0.00  0.00     0.069 A 
ATOM     19  S   UNL d   1      55.880  -1.361  32.722  0.00  0.00    -0.083 SA
ATOM     20  C   UNL d   1      55.329  -1.575  33.257  0.00  0.00     0.035 A 
ATOM     21  C   UNL d   1      54.974  -0.903  33.567  0.00  0.00     0.008 A 
ATOM     22  C   UNL d   1      55.329  -0.229  33.198  0.00  0.00     0.010 A 
ENDBRANCH  16  18
ENDBRANCH   2  16
BRANCH   1  23
ATOM     23  C   UNL d   1      59.227   0.494  32.243  0.00  0.00     0.204 A 
ATOM     24  S   UNL d   1      59.833   0.577  32.814  0.00  0.00    -0.025 SA
ATOM     25  C   UNL d   1      60.544   0.678  32.406  0.00  0.00     0.161 A 
ATOM     26  N   UNL d   1      60.376   0.656  31.605  0.00  0.00    -0.137 NA
ATOM     27  N   UNL d   1      59.558   0.543  31.499  0.00  0.00    -0.122 NA
ENDBRANCH   1  23
TORSDOF 5
ENDMDL
MODEL 3
REMARK VINA RESULT:       5.7      1.538      2.763
REMARK  5 active torsions:
REMARK  status: ('A' for Active; 'I' for Inactive)
REMARK    1  A    between atoms: C_6  and  N_1 
REMARK    2  A    between atoms: C_7  and  C_2 
REMARK    3  A    between atoms: C_14  and  C_5 
REMARK    4  A    between atoms: C_11  and  C_7 
REMARK    5  A    between atoms: O_26  and  C_23 
ROOT
ATOM      1  N   UNL d   1      59.257  -0.582  30.068  0.00  0.00    -0.250 N 
ATOM      2  C   UNL d   1      58.149  -0.765  30.774  0.00  0.00     0.099 A 
ATOM      3  C   UNL d   1      59.178   0.042  30.620  0.00  0.00     0.305 A 
ATOM      4  C   UNL d   1      58.528  -0.058  31.040  0.00  0.00     0.256 A 
ATOM      5  C   UNL d   1      58.621  -1.079  30.164  0.00  0.00     0.075 A 
ATOM      6  O   UNL d   1      59.703   0.681  30.720  0.00  0.00    -0.263 OA
ATOM      7  O   UNL d   1      58.267   0.461  31.648  0.00  0.00    -0.281 OA
ENDROOT
BRANCH   5   8
ATOM      8  C   UNL d   1      58.474  -1.760  29.741  0.00  0.00     0.017 A 
ATOM      9  C   UNL d   1      58.178  -1.699  28.975  0.00  0.00     0.004 A 
ATOM     10  C   UNL d   1      58.027  -2.407  28.541  0.00  0.00     0.024 A 
ATOM     11  C   UNL d   1      58.174  -3.146  28.877  0.00  0.00     0.094 A 
ATOM     12  C   UNL d   1      58.472  -3.188  29.649  0.00  0.00     0.024 A 
ATOM     13  C   UNL d   1      58.623  -2.495  30.082  0.00  0.00     0.004 A 
BRANCH  11  14
ATOM     14  O   UNL d   1      58.028  -3.829  28.456  0.00  0.00    -0.328 OA
ATOM     15  C   UNL d   1      58.553  -4.459  28.507  0.00  0.00     0.181 C 
ENDBRANCH  11  14
ENDBRANCH   5   8
BRANCH   2  16
ATOM     16  C   UNL d   1      57.445  -1.086  31.062  0.00  0.00     0.206 C 
ATOM     17  O   UNL d   1      57.259  -1.890  30.882  0.00  0.00    -0.286 OA
BRANCH  16  18
ATOM     18  C   UNL d   1      56.946  -0.626  31.510  0.00  0.00     0.069 A 
ATOM     19  S   UNL d   1      56.730  -0.745  32.320  0.00  0.00    -0.083 SA
ATOM     20  C   UNL d   1      56.231  -0.162  32.534  0.00  0.00     0.035 A 
ATOM     21  C   UNL d   1      56.108   0.339  31.896  0.00  0.00     0.008 A 
ATOM     22  C   UNL d   1      56.562   0.045  31.245  0.00  0.00     0.010 A 
ENDBRANCH  16  18
ENDBRANCH   2  16
BRANCH   1  23
ATOM     23  C   UNL d   1      59.888  -0.646  29.532  0.00  0.00     0.204 A 
ATOM     24  S   UNL d   1      60.015  -0.094  28.917  0.00  0.00    -0.025 SA
ATOM     25  C   UNL d   1      60.687  -0.336  28.503  0.00  0.00     0.161 A 
ATOM     26  N   UNL d   1      60.964  -1.021  28.857  0.00  0.00    -0.137 NA
ATOM     27  N   UNL d   1      60.470  -1.217  29.497  0.00  0.00    -0.122 NA
ENDBRANCH   1  23
TORSDOF 5
ENDMDL
MODEL 4
REMARK VINA RESULT:       6.0      2.389      4.829
REMARK  5 active torsions:
REMARK  status: ('A' for Active; 'I' for Inactive)
REMARK    1  A    between atoms: C_6  and  N_1 
REMARK    2  A    between atoms: C_7  and  C_2 
REMARK    3  A    between atoms: C_14  and  C_5 
REMARK    4  A    between atoms: C_11  and  C_7 
REMARK    5  A    between atoms: O_26  and  C_23 
ROOT
ATOM      1  N   UNL d   1      58.081   0.395  33.120  0.00  0.00    -0.250 N 
ATOM      2  C   UNL d   1      57.825   0.159  31.840  0.00  0.00     0.099 A 
ATOM      3  C   UNL d   1      58.788   0.480  32.679  0.00  0.00     0.305 A 
ATOM      4  C   UNL d   1      58.646   0.343  31.924  0.00  0.00     0.256 A 
ATOM      5  C   UNL d   1      57.489   0.196  32.601  0.00  0.00     0.075 A 
ATOM      6  O   UNL d   1      59.537   0.681  32.983  0.00  0.00    -0.263 OA
ATOM      7  O   UNL d   1      59.223   0.378  31.314  0.00  0.00    -0.281 OA
ENDROOT
BRANCH   5   8
ATOM      8  C   UNL d   1      56.708   0.060  32.792  0.00  0.00     0.017 A 
ATOM      9  C   UNL d   1      56.472  -0.704  32.991  0.00  0.00     0.004 A 
ATOM     10  C   UNL d   1      55.663  -0.841  33.188  0.00  0.00     0.024 A 
ATOM     11  C   UNL d   1      55.118  -0.221  33.180  0.00  0.00     0.094 A 
ATOM     12  C   UNL d   1      55.373   0.540  32.977  0.00  0.00     0.024 A 
ATOM     13  C   UNL d   1      56.168   0.682  32.783  0.00  0.00     0.004 A 
BRANCH  11  14
ATOM     14  O   UNL d   1      54.336  -0.356  33.371  0.00  0.00    -0.328 OA
ATOM     15  C   UNL d   1      53.979   0.091  33.961  0.00  0.00     0.181 C 
ENDBRANCH  11  14
ENDBRANCH   5   8
BRANCH   2  16
ATOM     16  C   UNL d   1      57.429  -0.024  31.139  0.00  0.00     0.206 C 
ATOM     17  O   UNL d   1      56.779   0.459  30.898  0.00  0.00    -0.286 OA
BRANCH  16  18
ATOM     18  C   UNL d   1      57.670  -0.663  30.696  0.00  0.00     0.069 A 
ATOM     19  S   UNL d   1      57.998  -0.648  29.916  0.00  0.00    -0.083 SA
ATOM     20  C   UNL d   1      58.154  -1.399  29.697  0.00  0.00     0.035 A 
ATOM     21  C   UNL d   1      57.941  -1.909  30.303  0.00  0.00     0.008 A 
ATOM     22  C   UNL d   1      57.633  -1.443  30.938  0.00  0.00     0.010 A 
ENDBRANCH  16  18
ENDBRANCH   2  16
BRANCH   1  23
ATOM     23  C   UNL d   1      58.036   0.502  33.942  0.00  0.00     0.204 A 
ATOM     24  S   UNL d   1      58.714   0.582  34.424  0.00  0.00    -0.025 SA
ATOM     25  C   UNL d   1      58.455   0.679  35.202  0.00  0.00     0.161 A 
ATOM     26  N   UNL d   1      57.636   0.659  35.195  0.00  0.00    -0.137 NA
ATOM     27  N   UNL d   1      57.372   0.549  34.414  0.00  0.00    -0.122 NA
ENDBRANCH   1  23
TORSDOF 5
ENDMDL
MODEL 5
REMARK VINA RESULT:       6.3      1.852      4.083
REMARK  5 active torsions:
REMARK  status: ('A' for Active; 'I' for Inactive)
REMARK    1  A    between atoms: C_6  and  N_1 
REMARK    2  A    between atoms: C_7  and  C_2 
REMARK    3  A    between atoms: C_14  and  C_5 
REMARK    4  A    between atoms: C_11  and  C_7 
REMARK    5  A    between atoms: O_26  and  C_23 
ROOT
ATOM      1  N   UNL d   1      59.725   0.145  31.043  0.00  0.00    -0.250 N 
ATOM      2  C   UNL d   1      59.153  -0.205  29.898  0.00  0.00     0.099 A 
ATOM      3  C   UNL d   1      60.315   0.070  30.453  0.00  0.00     0.305 A 
ATOM      4  C   UNL d   1      59.987  -0.135  29.776  0.00  0.00     0.256 A 
ATOM      5  C   UNL d   1      59.009  -0.026  30.698  0.00  0.00     0.075 A 
ATOM      6  O   UNL d   1      61.132   0.194  30.556  0.00  0.00    -0.263 OA
ATOM      7  O   UNL d   1      60.407  -0.261  29.059  0.00  0.00    -0.281 OA
ENDROOT
BRANCH   5   8
ATOM      8  C   UNL d   1      58.284  -0.021  31.070  0.00  0.00     0.017 A 
ATOM      9  C   UNL d   1      57.820   0.658  31.035  0.00  0.00     0.004 A 
ATOM     10  C   UNL d   1      57.070   0.658  31.421  0.00  0.00     0.024 A 
ATOM     11  C   UNL d   1      56.805  -0.011  31.826  0.00  0.00     0.094 A 
ATOM     12  C   UNL d   1      57.284  -0.686  31.850  0.00  0.00     0.024 A 
ATOM     13  C   UNL d   1      58.025  -0.692  31.472  0.00  0.00     0.004 A 
BRANCH  11  14
ATOM     14  O   UNL d   1      56.079  -0.009  32.198  0.00  0.00    -0.328 OA
ATOM     15  C   UNL d   1      55.970   0.445  32.875  0.00  0.00     0.181 C 
ENDBRANCH  11  14
ENDBRANCH   5   8
BRANCH   2  16
ATOM     16  C   UNL d   1      58.586  -0.412  29.334  0.00  0.00     0.206 C 
ATOM     17  O   UNL d   1      58.060   0.183  29.045  0.00  0.00    -0.286 OA
BRANCH  16  18
ATOM     18  C   UNL d   1      58.545  -1.179  29.067  0.00  0.00     0.069 A 
ATOM     19  S   UNL d   1      59.093  -1.805  29.225  0.00  0.00    -0.083 SA
ATOM     20  C   UNL d   1      58.836  -2.462  28.854  0.00  0.00     0.035 A 
ATOM     21  C   UNL d   1      58.138  -2.295  28.456  0.00  0.00     0.008 A 
ATOM     22  C   UNL d   1      57.953  -1.480  28.591  0.00  0.00     0.010 A 
ENDBRANCH  16  18
ENDBRANCH   2  16
BRANCH   1  23
ATOM     23  C   UNL d   1      59.884   0.357  31.830  0.00  0.00     0.204 A 
ATOM     24  S   UNL d   1      60.661   0.480  32.114  0.00  0.00    -0.025 SA
ATOM     25  C   UNL d   1      60.602   0.682  32.913  0.00  0.00     0.161 A 
ATOM     26  N   UNL d   1      59.807   0.682  33.111  0.00  0.00    -0.137 NA
ATOM     27  N   UNL d   1      59.358   0.480  32.440  0.00  0.00    -0.122 NA
ENDBRANCH   1  23
TORSDOF 5
ENDMDL
