MODEL 1
REMARK VINA RESULT:      -5.4      0.000      0.000
REMARK  2 active torsions:
REMARK  status: ('A' for Active; 'I' for Inactive)
REMARK    1  A    between atoms: C_5  and  N_1 
REMARK    2  A    between atoms: C_7  and  C_5 
ROOT
ATOM      1  N   UNL d   1     -41.449-123.038 -52.846  0.00  0.00    -0.288 N 
ATOM      2  C   UNL d   1     -41.493-123.817 -52.593  0.00  0.00     0.183 A 
ATOM      3  N   UNL d   1     -41.405-123.815 -51.749  0.00  0.00    -0.224 NA
ATOM      4  C   UNL d   1     -41.339-122.555 -52.211  0.00  0.00     0.083 A 
ATOM      5  C   UNL d   1     -41.311-123.049 -51.514  0.00  0.00     0.099 A 
ATOM      6  C   UNL d   1     -41.258-121.738 -52.141  0.00  0.00     0.019 A 
ATOM      7  C   UNL d   1     -41.200-122.666 -50.778  0.00  0.00     0.021 A 
ATOM      8  C   UNL d   1     -41.149-121.396 -51.398  0.00  0.00     0.002 A 
ATOM      9  C   UNL d   1     -41.123-121.872 -50.725  0.00  0.00     0.002 A 
ENDROOT
BRANCH   1  10
ATOM     10  C   UNL d   1     -41.416-122.310 -53.169  0.00  0.00     0.066 C 
ATOM     11  C   UNL d   1     -41.144-121.663 -52.735  0.00  0.00     0.019 C 
BRANCH  10  12
ATOM     12  C   UNL d   1     -41.660-122.208 -53.950  0.00  0.00     0.016 A 
ATOM     13  C   UNL d   1     -41.158-122.419 -54.569  0.00  0.00     0.001 A 
ATOM     14  C   UNL d   1     -41.402-122.317 -55.352  0.00  0.00     0.000 A 
ATOM     15  C   UNL d   1     -42.152-122.004 -55.516  0.00  0.00     0.000 A 
ATOM     16  C   UNL d   1     -42.654-121.794 -54.897  0.00  0.00     0.000 A 
ATOM     17  C   UNL d   1     -42.407-121.897 -54.113  0.00  0.00     0.001 A 
ENDBRANCH  10  12
ENDBRANCH   1  10
TORSDOF 2
ENDMDL
MODEL 2
REMARK VINA RESULT:      -5.3      1.399      3.899
REMARK  2 active torsions:
REMARK  status: ('A' for Active; 'I' for Inactive)
REMARK    1  A    between atoms: C_5  and  N_1 
REMARK    2  A    between atoms: C_7  and  C_5 
ROOT
ATOM      1  N   UNL d   1     -41.355-122.324 -51.037  0.00  0.00    -0.288 N 
ATOM      2  C   UNL d   1     -41.244-121.526 -51.196  0.00  0.00     0.183 A 
ATOM      3  N   UNL d   1     -41.135-121.448 -52.034  0.00  0.00    -0.224 NA
ATOM      4  C   UNL d   1     -41.321-122.742 -51.724  0.00  0.00     0.083 A 
ATOM      5  C   UNL d   1     -41.182-122.186 -52.357  0.00  0.00     0.099 A 
ATOM      6  C   UNL d   1     -41.394-123.546 -51.891  0.00  0.00     0.019 A 
ATOM      7  C   UNL d   1     -41.126-122.494 -53.133  0.00  0.00     0.021 A 
ATOM      8  C   UNL d   1     -41.333-123.814 -52.669  0.00  0.00     0.002 A 
ATOM      9  C   UNL d   1     -41.198-123.277 -53.280  0.00  0.00     0.002 A 
ENDROOT
BRANCH   1  10
ATOM     10  C   UNL d   1     -41.469-123.078 -50.803  0.00  0.00     0.066 C 
ATOM     11  C   UNL d   1     -41.305-123.710 -51.307  0.00  0.00     0.019 C 
BRANCH  10  12
ATOM     12  C   UNL d   1     -41.756-123.220 -50.043  0.00  0.00     0.016 A 
ATOM     13  C   UNL d   1     -42.568-123.196 -49.898  0.00  0.00     0.001 A 
ATOM     14  C   UNL d   1     -42.856-123.339 -49.137  0.00  0.00     0.000 A 
ATOM     15  C   UNL d   1     -42.330-123.506 -48.518  0.00  0.00     0.000 A 
ATOM     16  C   UNL d   1     -41.519-123.530 -48.663  0.00  0.00     0.000 A 
ATOM     17  C   UNL d   1     -41.232-123.387 -49.428  0.00  0.00     0.001 A 
ENDBRANCH  10  12
ENDBRANCH   1  10
TORSDOF 2
ENDMDL
MODEL 3
REMARK VINA RESULT:      -4.6      2.161      3.515
REMARK  2 active torsions:
REMARK  status: ('A' for Active; 'I' for Inactive)
REMARK    1  A    between atoms: C_5  and  N_1 
REMARK    2  A    between atoms: C_7  and  C_5 
ROOT
ATOM      1  N   UNL d   1     -42.487-123.452 -49.773  0.00  0.00    -0.288 N 
ATOM      2  C   UNL d   1     -43.290-123.587 -49.673  0.00  0.00     0.183 A 
ATOM      3  N   UNL d   1     -43.430-123.681 -48.841  0.00  0.00    -0.224 NA
ATOM      4  C   UNL d   1     -42.123-123.456 -49.054  0.00  0.00     0.083 A 
ATOM      5  C   UNL d   1     -42.721-123.602 -48.463  0.00  0.00     0.099 A 
ATOM      6  C   UNL d   1     -41.337-123.352 -48.828  0.00  0.00     0.019 A 
ATOM      7  C   UNL d   1     -42.472-123.632 -47.665  0.00  0.00     0.021 A 
ATOM      8  C   UNL d   1     -41.128-123.388 -48.031  0.00  0.00     0.002 A 
ATOM      9  C   UNL d   1     -41.706-123.529 -47.459  0.00  0.00     0.002 A 
ENDROOT
BRANCH   1  10
ATOM     10  C   UNL d   1     -41.721-123.315 -49.950  0.00  0.00     0.066 C 
ATOM     11  C   UNL d   1     -41.125-123.453 -49.398  0.00  0.00     0.019 C 
BRANCH  10  12
ATOM     12  C   UNL d   1     -41.531-123.032 -50.701  0.00  0.00     0.016 A 
ATOM     13  C   UNL d   1     -41.314-123.558 -51.298  0.00  0.00     0.001 A 
ATOM     14  C   UNL d   1     -41.123-123.275 -52.049  0.00  0.00     0.000 A 
ATOM     15  C   UNL d   1     -41.149-122.461 -52.206  0.00  0.00     0.000 A 
ATOM     16  C   UNL d   1     -41.366-121.934 -51.609  0.00  0.00     0.000 A 
ATOM     17  C   UNL d   1     -41.557-122.222 -50.855  0.00  0.00     0.001 A 
ENDBRANCH  10  12
ENDBRANCH   1  10
TORSDOF 2
ENDMDL
