MODEL 1
REMARK VINA RESULT:      22.2      0.000      0.000
REMARK  2 active torsions:
REMARK  status: ('A' for Active; 'I' for Inactive)
REMARK    1  A    between atoms: C_7  and  C_1 
REMARK    2  A    between atoms: C_11  and  C_7 
ROOT
ATOM      1  C   UNL d   1      58.478  49.704  50.694  0.00  0.00     0.116 A 
ATOM      2  N   UNL d   1      57.061  49.701  50.543  0.00  0.00    -0.152 NA
ATOM      3  N   UNL d   1      57.897  49.704  49.390  0.00  0.00    -0.152 NA
ATOM      4  C   UNL d   1      58.568  49.705  49.872  0.00  0.00     0.288 A 
ATOM      5  C   UNL d   1      57.729  49.702  51.027  0.00  0.00     0.288 A 
ATOM      6  C   UNL d   1      57.148  49.702  49.724  0.00  0.00     0.374 A 
ATOM      7  O   UNL d   1      57.628  49.701  51.867  0.00  0.00    -0.265 OA
ATOM      8  O   UNL d   1      59.320  49.707  49.537  0.00  0.00    -0.265 OA
ATOM      9  O   UNL d   1      56.464  49.700  49.251  0.00  0.00    -0.242 OA
ENDROOT
BRANCH   1  10
ATOM     10  C   UNL d   1      59.154  49.705  51.187  0.00  0.00     0.010 C 
BRANCH  10  11
ATOM     11  C   UNL d   1      59.816  49.255  50.980  0.00  0.00     0.001 A 
ATOM     12  C   UNL d   1      60.474  49.616  50.649  0.00  0.00     0.003 A 
ATOM     13  C   UNL d   1      61.132  49.164  50.443  0.00  0.00     0.042 A 
ATOM     14  C   UNL d   1      61.125  48.356  50.570  0.00  0.00     0.196 A 
ATOM     15  C   UNL d   1      60.467  47.996  50.901  0.00  0.00     0.042 A 
ATOM     16  O   UNL d   1      61.792  47.888  50.363  0.00  0.00    -0.287 OA
ATOM     17  C   UNL d   1      59.808  48.439  51.109  0.00  0.00     0.003 A 
ENDBRANCH  10  11
ENDBRANCH   1  10
TORSDOF 2
ENDMDL
MODEL 2
REMARK VINA RESULT:      22.4      1.621      3.380
REMARK  2 active torsions:
REMARK  status: ('A' for Active; 'I' for Inactive)
REMARK    1  A    between atoms: C_7  and  C_1 
REMARK    2  A    between atoms: C_11  and  C_7 
ROOT
ATOM      1  C   UNL d   1      59.820  49.508  50.729  0.00  0.00     0.116 A 
ATOM      2  N   UNL d   1      60.023  49.511  52.139  0.00  0.00    -0.152 NA
ATOM      3  N   UNL d   1      61.128  49.707  51.262  0.00  0.00    -0.152 NA
ATOM      4  C   UNL d   1      60.627  49.640  50.609  0.00  0.00     0.288 A 
ATOM      5  C   UNL d   1      59.519  49.444  51.489  0.00  0.00     0.288 A 
ATOM      6  C   UNL d   1      60.828  49.643  52.023  0.00  0.00     0.374 A 
ATOM      7  O   UNL d   1      58.695  49.309  51.619  0.00  0.00    -0.265 OA
ATOM      8  O   UNL d   1      60.928  49.705  49.846  0.00  0.00    -0.265 OA
ATOM      9  O   UNL d   1      61.320  49.708  52.690  0.00  0.00    -0.242 OA
ENDROOT
BRANCH   1  10
ATOM     10  C   UNL d   1      59.307  49.439  50.071  0.00  0.00     0.010 C 
BRANCH  10  11
ATOM     11  C   UNL d   1      58.489  49.505  50.177  0.00  0.00     0.001 A 
ATOM     12  C   UNL d   1      57.982  49.444  49.536  0.00  0.00     0.003 A 
ATOM     13  C   UNL d   1      57.167  49.511  49.646  0.00  0.00     0.042 A 
ATOM     14  C   UNL d   1      56.870  49.638  50.397  0.00  0.00     0.196 A 
ATOM     15  C   UNL d   1      57.377  49.700  51.038  0.00  0.00     0.042 A 
ATOM     16  O   UNL d   1      56.040  49.707  50.518  0.00  0.00    -0.287 OA
ATOM     17  C   UNL d   1      58.188  49.634  50.936  0.00  0.00     0.003 A 
ENDBRANCH  10  11
ENDBRANCH   1  10
TORSDOF 2
ENDMDL
