MODEL 1
REMARK VINA RESULT:      43.9      0.000      0.000
REMARK  3 active torsions:
REMARK  status: ('A' for Active; 'I' for Inactive)
REMARK    1  A    between atoms: C_4  and  C_1 
REMARK    2  A    between atoms: C_5  and  C_6 
REMARK       I    between atoms: C_6  and  N_7 
REMARK    3  A    between atoms: N_7  and  C_8 
ROOT
ATOM      1  C   UNL d   1      13.918  12.582  -2.457  0.00  0.00     0.042 A 
ATOM      2  C   UNL d   1      14.148  13.255  -2.044  0.00  0.00     0.087 A 
ATOM      3  C   UNL d   1      13.948  11.836  -2.093  0.00  0.00     0.004 A 
ATOM      4  C   UNL d   1      14.408  13.191  -1.268  0.00  0.00     0.019 A 
ATOM      5  C   UNL d   1      14.211  11.781  -1.312  0.00  0.00     0.000 A 
ATOM      6  C   UNL d   1      14.440  12.459  -0.902  0.00  0.00     0.002 A 
ENDROOT
BRANCH   1   7
ATOM      7  C   UNL d   1      13.655  12.638  -3.237  0.00  0.00     0.112 A 
ATOM      8  N   UNL d   1      13.413  13.284  -3.671  0.00  0.00    -0.238 NA
ATOM      9  C   UNL d   1      13.209  13.017  -4.425  0.00  0.00     0.088 A 
ATOM     10  C   UNL d   1      12.928  13.415  -5.098  0.00  0.00     0.020 A 
ATOM     11  C   UNL d   1      13.329  12.205  -4.448  0.00  0.00     0.049 A 
ATOM     12  C   UNL d   1      12.769  12.996  -5.787  0.00  0.00     0.002 A 
ATOM     13  C   UNL d   1      12.888  12.178  -5.813  0.00  0.00     0.001 A 
ATOM     14  C   UNL d   1      13.169  11.780  -5.140  0.00  0.00     0.008 A 
ATOM     15  S   UNL d   1      13.604  11.973  -3.711  0.00  0.00    -0.066 SA
ENDBRANCH   1   7
BRANCH   2  16
ATOM     16  N   UNL d   1      14.115  13.994  -2.416  0.00  0.00    -0.206 NA
ATOM     17  C   UNL d   1      14.538  14.638  -2.094  0.00  0.00     0.304 C 
ATOM     18  O   UNL d   1      14.505  15.373  -2.464  0.00  0.00    -0.263 OA
BRANCH  17  19
ATOM     19  C   UNL d   1      14.988  14.543  -1.410  0.00  0.00     0.182 A 
ATOM     20  O   UNL d   1      14.741  14.883  -0.700  0.00  0.00    -0.296 OA
ATOM     21  C   UNL d   1      15.192  14.787  -0.015  0.00  0.00     0.150 A 
ATOM     22  C   UNL d   1      15.890  14.353  -0.041  0.00  0.00     0.149 A 
ATOM     23  O   UNL d   1      16.137  14.013  -0.752  0.00  0.00    -0.299 OA
ATOM     24  C   UNL d   1      15.686  14.108  -1.436  0.00  0.00     0.152 A 
ENDBRANCH  17  19
ENDBRANCH   2  16
TORSDOF 3
ENDMDL
MODEL 2
REMARK VINA RESULT:      44.5      1.619      4.116
REMARK  3 active torsions:
REMARK  status: ('A' for Active; 'I' for Inactive)
REMARK    1  A    between atoms: C_4  and  C_1 
REMARK    2  A    between atoms: C_5  and  C_6 
REMARK       I    between atoms: C_6  and  N_7 
REMARK    3  A    between atoms: N_7  and  C_8 
ROOT
ATOM      1  C   UNL d   1      14.389  13.208  -1.852  0.00  0.00     0.042 A 
ATOM      2  C   UNL d   1      13.972  13.209  -2.560  0.00  0.00     0.087 A 
ATOM      3  C   UNL d   1      14.538  12.494  -1.455  0.00  0.00     0.004 A 
ATOM      4  C   UNL d   1      13.699  12.501  -2.877  0.00  0.00     0.019 A 
ATOM      5  C   UNL d   1      14.261  11.788  -1.780  0.00  0.00     0.000 A 
ATOM      6  C   UNL d   1      13.842  11.794  -2.491  0.00  0.00     0.002 A 
ENDROOT
BRANCH   1   7
ATOM      7  C   UNL d   1      14.666  13.914  -1.528  0.00  0.00     0.112 A 
ATOM      8  N   UNL d   1      14.511  14.689  -1.730  0.00  0.00    -0.238 NA
ATOM      9  C   UNL d   1      14.940  15.172  -1.216  0.00  0.00     0.088 A 
ATOM     10  C   UNL d   1      15.003  15.998  -1.153  0.00  0.00     0.020 A 
ATOM     11  C   UNL d   1      15.357  14.688  -0.701  0.00  0.00     0.049 A 
ATOM     12  C   UNL d   1      15.482  16.331  -0.576  0.00  0.00     0.002 A 
ATOM     13  C   UNL d   1      15.904  15.846  -0.055  0.00  0.00     0.001 A 
ATOM     14  C   UNL d   1      15.841  15.020  -0.118  0.00  0.00     0.008 A 
ATOM     15  S   UNL d   1      15.186  13.910  -0.896  0.00  0.00    -0.066 SA
ENDBRANCH   1   7
BRANCH   2  16
ATOM     16  N   UNL d   1      13.828  13.925  -2.950  0.00  0.00    -0.206 NA
ATOM     17  C   UNL d   1      13.597  13.921  -3.752  0.00  0.00     0.304 C 
ATOM     18  O   UNL d   1      13.454  14.634  -4.139  0.00  0.00    -0.263 OA
BRANCH  17  19
ATOM     19  C   UNL d   1      13.510  13.209  -4.159  0.00  0.00     0.182 A 
ATOM     20  O   UNL d   1      14.070  12.981  -4.721  0.00  0.00    -0.296 OA
ATOM     21  C   UNL d   1      13.983  12.269  -5.128  0.00  0.00     0.150 A 
ATOM     22  C   UNL d   1      13.337  11.784  -4.973  0.00  0.00     0.149 A 
ATOM     23  O   UNL d   1      12.777  12.012  -4.410  0.00  0.00    -0.299 OA
ATOM     24  C   UNL d   1      12.864  12.725  -4.003  0.00  0.00     0.152 A 
ENDBRANCH  17  19
ENDBRANCH   2  16
TORSDOF 3
ENDMDL
