MODEL 1
REMARK VINA RESULT:      -5.1      0.000      0.000
REMARK  2 active torsions:
REMARK  status: ('A' for Active; 'I' for Inactive)
REMARK    1  A    between atoms: C_6  and  C_1 
REMARK    2  A    between atoms: C_7  and  C_5 
ROOT
ATOM      1  C   UNL d   1      56.906   0.123  31.777  0.00  0.00     0.085 A 
ATOM      2  C   UNL d   1      56.737  -0.680  31.874  0.00  0.00     0.137 A 
ATOM      3  C   UNL d   1      56.539   0.550  32.363  0.00  0.00     0.013 A 
ATOM      4  S   UNL d   1      56.255  -0.742  32.538  0.00  0.00    -0.066 SA
ATOM      5  C   UNL d   1      56.133  -0.000  32.835  0.00  0.00     0.031 A 
ATOM      6  N   UNL d   1      57.018  -1.279  31.379  0.00  0.00    -0.141 N 
ENDROOT
BRANCH   5   7
ATOM      7  C   UNL d   1      55.695   0.226  33.487  0.00  0.00     0.006 A 
ATOM      8  C   UNL d   1      54.904   0.386  33.403  0.00  0.00     0.001 A 
ATOM      9  C   UNL d   1      54.454   0.616  34.059  0.00  0.00     0.000 A 
ATOM     10  C   UNL d   1      54.806   0.682  34.793  0.00  0.00     0.000 A 
ATOM     11  C   UNL d   1      55.610   0.520  34.880  0.00  0.00     0.000 A 
ATOM     12  C   UNL d   1      56.049   0.293  34.229  0.00  0.00     0.001 A 
ENDBRANCH   5   7
BRANCH   1  13
ATOM     13  C   UNL d   1      57.381   0.462  31.171  0.00  0.00     0.299 C 
ATOM     14  O   UNL d   1      57.046   0.670  30.459  0.00  0.00    -0.264 OA
ATOM     15  N   UNL d   1      58.182   0.578  31.311  0.00  0.00    -0.102 N 
ENDBRANCH   1  13
TORSDOF 2
ENDMDL
MODEL 2
REMARK VINA RESULT:      -5.0      1.254      1.831
REMARK  2 active torsions:
REMARK  status: ('A' for Active; 'I' for Inactive)
REMARK    1  A    between atoms: C_6  and  C_1 
REMARK    2  A    between atoms: C_7  and  C_5 
ROOT
ATOM      1  C   UNL d   1      57.815  -0.000  30.708  0.00  0.00     0.085 A 
ATOM      2  C   UNL d   1      58.281   0.382  31.273  0.00  0.00     0.137 A 
ATOM      3  C   UNL d   1      57.108  -0.219  31.044  0.00  0.00     0.013 A 
ATOM      4  S   UNL d   1      57.845   0.396  31.970  0.00  0.00    -0.066 SA
ATOM      5  C   UNL d   1      57.135   0.032  31.835  0.00  0.00     0.031 A 
ATOM      6  N   UNL d   1      59.038   0.682  31.128  0.00  0.00    -0.141 N 
ENDROOT
BRANCH   5   7
ATOM      7  C   UNL d   1      56.515  -0.092  32.352  0.00  0.00     0.006 A 
ATOM      8  C   UNL d   1      56.123   0.543  32.669  0.00  0.00     0.001 A 
ATOM      9  C   UNL d   1      55.494   0.423  33.194  0.00  0.00     0.000 A 
ATOM     10  C   UNL d   1      55.267  -0.335  33.394  0.00  0.00     0.000 A 
ATOM     11  C   UNL d   1      55.665  -0.982  33.072  0.00  0.00     0.000 A 
ATOM     12  C   UNL d   1      56.285  -0.858  32.555  0.00  0.00     0.001 A 
ENDBRANCH   5   7
BRANCH   1  13
ATOM     13  C   UNL d   1      58.025  -0.148  29.906  0.00  0.00     0.299 C 
ATOM     14  O   UNL d   1      57.757   0.347  29.318  0.00  0.00    -0.264 OA
ATOM     15  N   UNL d   1      58.500  -0.794  29.732  0.00  0.00    -0.102 N 
ENDBRANCH   1  13
TORSDOF 2
ENDMDL
MODEL 3
REMARK VINA RESULT:      -4.4      1.943      3.710
REMARK  2 active torsions:
REMARK  status: ('A' for Active; 'I' for Inactive)
REMARK    1  A    between atoms: C_6  and  C_1 
REMARK    2  A    between atoms: C_7  and  C_5 
ROOT
ATOM      1  C   UNL d   1      56.419  -0.420  32.601  0.00  0.00     0.085 A 
ATOM      2  C   UNL d   1      56.872   0.197  32.913  0.00  0.00     0.137 A 
ATOM      3  C   UNL d   1      56.634  -0.550  31.828  0.00  0.00     0.013 A 
ATOM      4  S   UNL d   1      57.376   0.448  32.314  0.00  0.00    -0.066 SA
ATOM      5  C   UNL d   1      57.234  -0.001  31.656  0.00  0.00     0.031 A 
ATOM      6  N   UNL d   1      56.803   0.480  33.687  0.00  0.00    -0.141 N 
ENDROOT
BRANCH   5   7
ATOM      7  C   UNL d   1      57.592   0.036  30.923  0.00  0.00     0.006 A 
ATOM      8  C   UNL d   1      58.129  -0.533  30.709  0.00  0.00     0.001 A 
ATOM      9  C   UNL d   1      58.495  -0.502  29.967  0.00  0.00     0.000 A 
ATOM     10  C   UNL d   1      58.317   0.103  29.448  0.00  0.00     0.000 A 
ATOM     11  C   UNL d   1      57.770   0.682  29.664  0.00  0.00     0.000 A 
ATOM     12  C   UNL d   1      57.412   0.646  30.398  0.00  0.00     0.001 A 
ENDBRANCH   5   7
BRANCH   1  13
ATOM     13  C   UNL d   1      55.824  -0.856  33.006  0.00  0.00     0.299 C 
ATOM     14  O   UNL d   1      55.882  -1.665  33.066  0.00  0.00    -0.264 OA
ATOM     15  N   UNL d   1      55.191  -0.451  33.337  0.00  0.00    -0.102 N 
ENDBRANCH   1  13
TORSDOF 2
ENDMDL
MODEL 4
REMARK VINA RESULT:      -4.1      1.789      3.224
REMARK  2 active torsions:
REMARK  status: ('A' for Active; 'I' for Inactive)
REMARK    1  A    between atoms: C_6  and  C_1 
REMARK    2  A    between atoms: C_7  and  C_5 
ROOT
ATOM      1  C   UNL d   1      55.673   0.116  33.323  0.00  0.00     0.085 A 
ATOM      2  C   UNL d   1      55.728  -0.684  33.124  0.00  0.00     0.137 A 
ATOM      3  C   UNL d   1      56.206   0.543  32.883  0.00  0.00     0.013 A 
ATOM      4  S   UNL d   1      56.311  -0.744  32.547  0.00  0.00    -0.066 SA
ATOM      5  C   UNL d   1      56.602  -0.004  32.399  0.00  0.00     0.031 A 
ATOM      6  N   UNL d   1      55.269  -1.282  33.462  0.00  0.00    -0.141 N 
ENDROOT
BRANCH   5   7
ATOM      7  C   UNL d   1      57.185   0.223  31.874  0.00  0.00     0.006 A 
ATOM      8  C   UNL d   1      57.031   0.219  31.077  0.00  0.00     0.001 A 
ATOM      9  C   UNL d   1      57.618   0.448  30.540  0.00  0.00     0.000 A 
ATOM     10  C   UNL d   1      58.353   0.678  30.810  0.00  0.00     0.000 A 
ATOM     11  C   UNL d   1      58.511   0.682  31.619  0.00  0.00     0.000 A 
ATOM     12  C   UNL d   1      57.928   0.455  32.146  0.00  0.00     0.001 A 
ENDBRANCH   5   7
BRANCH   1  13
ATOM     13  C   UNL d   1      55.151   0.453  33.892  0.00  0.00     0.299 C 
ATOM     14  O   UNL d   1      54.381   0.620  33.688  0.00  0.00    -0.264 OA
ATOM     15  N   UNL d   1      55.432   0.608  34.647  0.00  0.00    -0.102 N 
ENDBRANCH   1  13
TORSDOF 2
ENDMDL
MODEL 5
REMARK VINA RESULT:      -2.1      3.768      5.477
REMARK  2 active torsions:
REMARK  status: ('A' for Active; 'I' for Inactive)
REMARK    1  A    between atoms: C_6  and  C_1 
REMARK    2  A    between atoms: C_7  and  C_5 
ROOT
ATOM      1  C   UNL d   1      58.472  -0.283  29.565  0.00  0.00     0.085 A 
ATOM      2  C   UNL d   1      58.687  -0.089  28.792  0.00  0.00     0.137 A 
ATOM      3  C   UNL d   1      58.646  -1.064  29.707  0.00  0.00     0.013 A 
ATOM      4  S   UNL d   1      59.000  -0.770  28.455  0.00  0.00    -0.066 SA
ATOM      5  C   UNL d   1      58.977  -1.362  29.006  0.00  0.00     0.031 A 
ATOM      6  N   UNL d   1      58.591   0.660  28.455  0.00  0.00    -0.141 N 
ENDROOT
BRANCH   5   7
ATOM      7  C   UNL d   1      59.223  -2.138  28.937  0.00  0.00     0.006 A 
ATOM      8  C   UNL d   1      58.679  -2.719  28.781  0.00  0.00     0.001 A 
ATOM      9  C   UNL d   1      58.922  -3.507  28.710  0.00  0.00     0.000 A 
ATOM     10  C   UNL d   1      59.711  -3.702  28.797  0.00  0.00     0.000 A 
ATOM     11  C   UNL d   1      60.265  -3.112  28.955  0.00  0.00     0.000 A 
ATOM     12  C   UNL d   1      60.019  -2.335  29.024  0.00  0.00     0.001 A 
ENDBRANCH   5   7
BRANCH   1  13
ATOM     13  C   UNL d   1      58.125   0.235  30.131  0.00  0.00     0.299 C 
ATOM     14  O   UNL d   1      57.316   0.307  30.175  0.00  0.00    -0.264 OA
ATOM     15  N   UNL d   1      58.616   0.663  30.632  0.00  0.00    -0.102 N 
ENDBRANCH   1  13
TORSDOF 2
ENDMDL
