MODEL 1
REMARK VINA RESULT:       6.5      0.000      0.000
REMARK  4 active torsions:
REMARK  status: ('A' for Active; 'I' for Inactive)
REMARK    1  A    between atoms: N_10  and  C_3 
REMARK    2  A    between atoms: C_11  and  C_5 
REMARK    3  A    between atoms: C_12  and  N_10 
REMARK    4  A    between atoms: O_18  and  C_15 
ROOT
ATOM      1  N   UNL d   1     -42.247-122.838 -50.330  0.00  0.00    -0.184 N 
ATOM      2  C   UNL d   1     -42.626-122.835 -49.582  0.00  0.00     0.168 A 
ATOM      3  C   UNL d   1     -42.630-122.507 -50.984  0.00  0.00     0.217 A 
ATOM      4  N   UNL d   1     -41.124-123.492 -49.759  0.00  0.00    -0.162 NA
ATOM      5  C   UNL d   1     -42.253-123.158 -48.943  0.00  0.00     0.055 A 
ATOM      6  N   UNL d   1     -43.376-122.503 -49.514  0.00  0.00    -0.227 NA
ATOM      7  C   UNL d   1     -43.370-122.183 -50.901  0.00  0.00     0.066 A 
ATOM      8  C   UNL d   1     -41.498-123.490 -49.022  0.00  0.00     0.104 A 
ATOM      9  C   UNL d   1     -43.756-122.177 -50.157  0.00  0.00     0.087 A 
ATOM     10  C   UNL d   1     -43.873-121.826 -51.428  0.00  0.00     0.006 A 
ATOM     11  C   UNL d   1     -41.127-123.814 -48.370  0.00  0.00     0.023 C 
ATOM     12  C   UNL d   1     -44.487-121.817 -50.244  0.00  0.00     0.019 A 
ATOM     13  C   UNL d   1     -44.557-121.598 -51.042  0.00  0.00     0.002 A 
ENDROOT
BRANCH   3  14
ATOM     14  N   UNL d   1     -42.250-122.507 -51.741  0.00  0.00    -0.383 NA
BRANCH  14  15
ATOM     15  C   UNL d   1     -41.882-122.657 -52.485  0.00  0.00     0.135 A 
ATOM     16  C   UNL d   1     -41.897-122.063 -53.076  0.00  0.00     0.056 A 
ATOM     17  C   UNL d   1     -41.524-122.210 -53.835  0.00  0.00     0.097 A 
ATOM     18  C   UNL d   1     -41.143-122.958 -53.976  0.00  0.00     0.024 A 
ATOM     19  C   UNL d   1     -41.134-123.548 -53.374  0.00  0.00     0.005 A 
ATOM     20  C   UNL d   1     -41.504-123.401 -52.622  0.00  0.00     0.032 A 
BRANCH  17  21
ATOM     21  O   UNL d   1     -41.535-121.624 -54.429  0.00  0.00    -0.328 OA
ATOM     22  C   UNL d   1     -42.082-121.676 -55.073  0.00  0.00     0.181 C 
ENDBRANCH  17  21
ENDBRANCH  14  15
ENDBRANCH   3  14
BRANCH   5  23
ATOM     23  C   UNL d   1     -42.624-123.156 -48.211  0.00  0.00     0.004 A 
ATOM     24  C   UNL d   1     -42.435-122.589 -47.653  0.00  0.00     0.000 A 
ATOM     25  C   UNL d   1     -42.811-122.587 -46.912  0.00  0.00     0.000 A 
ATOM     26  C   UNL d   1     -43.368-123.152 -46.745  0.00  0.00     0.000 A 
ATOM     27  C   UNL d   1     -43.561-123.726 -47.304  0.00  0.00     0.000 A 
ATOM     28  C   UNL d   1     -43.189-123.725 -48.033  0.00  0.00     0.000 A 
ENDBRANCH   5  23
TORSDOF 4
ENDMDL
MODEL 2
REMARK VINA RESULT:       8.6      1.448      2.112
REMARK  4 active torsions:
REMARK  status: ('A' for Active; 'I' for Inactive)
REMARK    1  A    between atoms: N_10  and  C_3 
REMARK    2  A    between atoms: C_11  and  C_5 
REMARK    3  A    between atoms: C_12  and  N_10 
REMARK    4  A    between atoms: O_18  and  C_15 
ROOT
ATOM      1  N   UNL d   1     -42.085-122.145 -51.608  0.00  0.00    -0.184 N 
ATOM      2  C   UNL d   1     -42.063-121.966 -50.789  0.00  0.00     0.168 A 
ATOM      3  C   UNL d   1     -41.841-121.577 -52.158  0.00  0.00     0.217 A 
ATOM      4  N   UNL d   1     -42.587-123.438 -51.311  0.00  0.00    -0.162 NA
ATOM      5  C   UNL d   1     -42.300-122.519 -50.251  0.00  0.00     0.055 A 
ATOM      6  N   UNL d   1     -41.797-121.225 -50.548  0.00  0.00    -0.227 NA
ATOM      7  C   UNL d   1     -41.582-120.851 -51.905  0.00  0.00     0.066 A 
ATOM      8  C   UNL d   1     -42.566-123.262 -50.504  0.00  0.00     0.104 A 
ATOM      9  C   UNL d   1     -41.556-120.663 -51.087  0.00  0.00     0.087 A 
ATOM     10  C   UNL d   1     -41.313-120.196 -52.302  0.00  0.00     0.006 A 
ATOM     11  C   UNL d   1     -42.805-123.817 -49.953  0.00  0.00     0.023 C 
ATOM     12  C   UNL d   1     -41.274-119.899 -51.002  0.00  0.00     0.019 A 
ATOM     13  C   UNL d   1     -41.123-119.609 -51.766  0.00  0.00     0.002 A 
ENDROOT
BRANCH   3  14
ATOM     14  N   UNL d   1     -41.862-121.755 -52.986  0.00  0.00    -0.383 NA
BRANCH  14  15
ATOM     15  C   UNL d   1     -41.841-122.070 -53.768  0.00  0.00     0.135 A 
ATOM     16  C   UNL d   1     -42.442-121.855 -54.311  0.00  0.00     0.056 A 
ATOM     17  C   UNL d   1     -42.427-122.173 -55.109  0.00  0.00     0.097 A 
ATOM     18  C   UNL d   1     -41.800-122.702 -55.335  0.00  0.00     0.024 A 
ATOM     19  C   UNL d   1     -41.201-122.910 -54.780  0.00  0.00     0.005 A 
ATOM     20  C   UNL d   1     -41.218-122.595 -53.990  0.00  0.00     0.032 A 
BRANCH  17  21
ATOM     21  O   UNL d   1     -43.022-121.964 -55.656  0.00  0.00    -0.328 OA
ATOM     22  C   UNL d   1     -42.821-121.778 -56.457  0.00  0.00     0.181 C 
ENDBRANCH  17  21
ENDBRANCH  14  15
ENDBRANCH   3  14
BRANCH   5  23
ATOM     23  C   UNL d   1     -42.279-122.343 -49.450  0.00  0.00     0.004 A 
ATOM     24  C   UNL d   1     -41.563-122.246 -49.067  0.00  0.00     0.000 A 
ATOM     25  C   UNL d   1     -41.542-122.068 -48.256  0.00  0.00     0.000 A 
ATOM     26  C   UNL d   1     -42.236-121.992 -47.844  0.00  0.00     0.000 A 
ATOM     27  C   UNL d   1     -42.960-122.089 -48.226  0.00  0.00     0.000 A 
ATOM     28  C   UNL d   1     -42.978-122.264 -49.025  0.00  0.00     0.000 A 
ENDBRANCH   5  23
TORSDOF 4
ENDMDL
