MODEL 1
REMARK VINA RESULT:      -4.8      0.000      0.000
REMARK  3 active torsions:
REMARK  status: ('A' for Active; 'I' for Inactive)
REMARK    1  A    between atoms: C_6  and  C_1 
REMARK       I    between atoms: N_10  and  C_6 
REMARK    2  A    between atoms: C_23  and  N_10 
REMARK    3  A    between atoms: C_22  and  C_23 
ROOT
ATOM      1  C   UNL d   1      32.870  20.564 -21.690  0.00  0.00     0.266 C 
ATOM      2  N   UNL d   1      32.824  20.156 -22.400  0.00  0.00    -0.210 NA
ATOM      3  O   UNL d   1      32.982  20.029 -21.084  0.00  0.00    -0.269 OA
ENDROOT
BRANCH   1   4
ATOM      4  C   UNL d   1      32.798  21.374 -21.738  0.00  0.00     0.150 A 
ATOM      5  C   UNL d   1      32.847  22.788 -22.014  0.00  0.00     0.028 A 
ATOM      6  C   UNL d   1      32.664  22.166 -21.715  0.00  0.00     0.078 A 
ATOM      7  C   UNL d   1      33.220  23.338 -22.509  0.00  0.00     0.002 C 
ATOM      8  C   UNL d   1      32.404  23.362 -21.618  0.00  0.00     0.002 C 
ATOM      9  C   UNL d   1      32.224  22.746 -21.324  0.00  0.00     0.012 C 
ATOM     10  C   UNL d   1      33.096  21.653 -22.109  0.00  0.00    -0.023 A 
ATOM     11  C   UNL d   1      32.116  22.161 -21.115  0.00  0.00     0.211 A 
ATOM     12  C   UNL d   1      33.240  20.963 -22.159  0.00  0.00    -0.015 A 
ATOM     13  C   UNL d   1      32.270  21.379 -21.161  0.00  0.00     0.219 A 
ATOM     14  O   UNL d   1      31.671  22.737 -20.717  0.00  0.00    -0.288 OA
ATOM     15  O   UNL d   1      31.722  21.365 -20.558  0.00  0.00    -0.287 OA
ENDBRANCH   1   4
BRANCH   2  16
ATOM     16  C   UNL d   1      32.891  19.332 -22.409  0.00  0.00     0.102 C 
BRANCH  16  17
ATOM     17  C   UNL d   1      32.810  18.653 -22.865  0.00  0.00     0.021 A 
ATOM     18  C   UNL d   1      32.293  18.653 -23.513  0.00  0.00     0.028 A 
ATOM     19  C   UNL d   1      32.209  17.964 -23.978  0.00  0.00     0.119 A 
ATOM     20  O   UNL d   1      31.752  17.799 -24.638  0.00  0.00    -0.300 OA
ATOM     21  C   UNL d   1      32.644  17.283 -23.787  0.00  0.00     0.119 A 
ATOM     22  C   UNL d   1      31.895  17.022 -24.864  0.00  0.00     0.304 A 
ATOM     23  O   UNL d   1      32.448  16.701 -24.338  0.00  0.00    -0.300 OA
ATOM     24  C   UNL d   1      33.157  17.293 -23.138  0.00  0.00     0.026 A 
ATOM     25  C   UNL d   1      33.241  17.974 -22.678  0.00  0.00     0.004 A 
ENDBRANCH  16  17
ENDBRANCH   2  16
TORSDOF 3
ENDMDL
MODEL 2
REMARK VINA RESULT:      -4.8      0.984      5.025
REMARK  3 active torsions:
REMARK  status: ('A' for Active; 'I' for Inactive)
REMARK    1  A    between atoms: C_6  and  C_1 
REMARK       I    between atoms: N_10  and  C_6 
REMARK    2  A    between atoms: C_23  and  N_10 
REMARK    3  A    between atoms: C_22  and  C_23 
ROOT
ATOM      1  C   UNL d   1      32.856  18.650 -23.317  0.00  0.00     0.266 C 
ATOM      2  N   UNL d   1      32.812  18.915 -22.542  0.00  0.00    -0.210 NA
ATOM      3  O   UNL d   1      33.067  19.274 -23.798  0.00  0.00    -0.269 OA
ENDROOT
BRANCH   1   4
ATOM      4  C   UNL d   1      32.688  17.862 -23.435  0.00  0.00     0.150 A 
ATOM      5  C   UNL d   1      32.597  16.425 -23.490  0.00  0.00     0.028 A 
ATOM      6  C   UNL d   1      32.451  17.113 -23.606  0.00  0.00     0.078 A 
ATOM      7  C   UNL d   1      32.969  15.741 -23.205  0.00  0.00     0.002 C 
ATOM      8  C   UNL d   1      32.027  16.003 -23.914  0.00  0.00     0.002 C 
ATOM      9  C   UNL d   1      31.883  16.685 -24.027  0.00  0.00     0.012 C 
ATOM     10  C   UNL d   1      33.002  17.477 -23.196  0.00  0.00    -0.023 A 
ATOM     11  C   UNL d   1      31.820  17.310 -24.080  0.00  0.00     0.211 A 
ATOM     12  C   UNL d   1      33.241  18.120 -23.023  0.00  0.00    -0.015 A 
ATOM     13  C   UNL d   1      32.079  18.042 -23.892  0.00  0.00     0.219 A 
ATOM     14  O   UNL d   1      31.247  16.888 -24.505  0.00  0.00    -0.288 OA
ATOM     15  O   UNL d   1      31.449  18.248 -24.366  0.00  0.00    -0.287 OA
ENDBRANCH   1   4
BRANCH   2  16
ATOM     16  C   UNL d   1      32.972  19.707 -22.365  0.00  0.00     0.102 C 
BRANCH  16  17
ATOM     17  C   UNL d   1      32.920  20.295 -21.794  0.00  0.00     0.021 A 
ATOM     18  C   UNL d   1      32.543  21.011 -21.976  0.00  0.00     0.028 A 
ATOM     19  C   UNL d   1      32.488  21.611 -21.398  0.00  0.00     0.119 A 
ATOM     20  O   UNL d   1      32.157  22.360 -21.412  0.00  0.00    -0.300 OA
ATOM     21  C   UNL d   1      32.813  21.486 -20.642  0.00  0.00     0.119 A 
ATOM     22  C   UNL d   1      32.269  22.707 -20.676  0.00  0.00     0.304 A 
ATOM     23  O   UNL d   1      32.675  22.167 -20.198  0.00  0.00    -0.300 OA
ATOM     24  C   UNL d   1      33.186  20.768 -20.471  0.00  0.00     0.026 A 
ATOM     25  C   UNL d   1      33.241  20.175 -21.043  0.00  0.00     0.004 A 
ENDBRANCH  16  17
ENDBRANCH   2  16
TORSDOF 3
ENDMDL
MODEL 3
REMARK VINA RESULT:      -2.8      0.974      4.982
REMARK  3 active torsions:
REMARK  status: ('A' for Active; 'I' for Inactive)
REMARK    1  A    between atoms: C_6  and  C_1 
REMARK       I    between atoms: N_10  and  C_6 
REMARK    2  A    between atoms: C_23  and  N_10 
REMARK    3  A    between atoms: C_22  and  C_23 
ROOT
ATOM      1  C   UNL d   1      33.051  19.355 -22.959  0.00  0.00     0.266 C 
ATOM      2  N   UNL d   1      33.040  19.565 -22.166  0.00  0.00    -0.210 NA
ATOM      3  O   UNL d   1      33.222  20.016 -23.406  0.00  0.00    -0.269 OA
ENDROOT
BRANCH   1   4
ATOM      4  C   UNL d   1      32.897  18.572 -23.123  0.00  0.00     0.150 A 
ATOM      5  C   UNL d   1      32.742  17.140 -23.187  0.00  0.00     0.028 A 
ATOM      6  C   UNL d   1      32.705  17.830 -23.366  0.00  0.00     0.078 A 
ATOM      7  C   UNL d   1      32.913  16.451 -22.760  0.00  0.00     0.002 C 
ATOM      8  C   UNL d   1      32.377  16.732 -23.805  0.00  0.00     0.002 C 
ATOM      9  C   UNL d   1      32.340  17.415 -23.980  0.00  0.00     0.012 C 
ATOM     10  C   UNL d   1      33.055  18.182 -22.768  0.00  0.00    -0.023 A 
ATOM     11  C   UNL d   1      32.347  18.039 -24.066  0.00  0.00     0.211 A 
ATOM     12  C   UNL d   1      33.240  18.818 -22.521  0.00  0.00    -0.015 A 
ATOM     13  C   UNL d   1      32.551  18.764 -23.799  0.00  0.00     0.219 A 
ATOM     14  O   UNL d   1      31.980  17.630 -24.687  0.00  0.00    -0.288 OA
ATOM     15  O   UNL d   1      32.195  18.982 -24.498  0.00  0.00    -0.287 OA
ENDBRANCH   1   4
BRANCH   2  16
ATOM     16  C   UNL d   1      33.189  20.346 -21.943  0.00  0.00     0.102 C 
BRANCH  16  17
ATOM     17  C   UNL d   1      32.952  20.969 -21.461  0.00  0.00     0.021 A 
ATOM     18  C   UNL d   1      33.236  21.016 -20.683  0.00  0.00     0.028 A 
ATOM     19  C   UNL d   1      32.997  21.647 -20.191  0.00  0.00     0.119 A 
ATOM     20  O   UNL d   1      33.179  21.839 -19.416  0.00  0.00    -0.300 OA
ATOM     21  C   UNL d   1      32.476  22.223 -20.484  0.00  0.00     0.119 A 
ATOM     22  C   UNL d   1      32.779  22.528 -19.218  0.00  0.00     0.304 A 
ATOM     23  O   UNL d   1      32.343  22.768 -19.879  0.00  0.00    -0.300 OA
ATOM     24  C   UNL d   1      32.198  22.167 -21.262  0.00  0.00     0.026 A 
ATOM     25  C   UNL d   1      32.434  21.543 -21.749  0.00  0.00     0.004 A 
ENDBRANCH  16  17
ENDBRANCH   2  16
TORSDOF 3
ENDMDL
MODEL 4
REMARK VINA RESULT:      -2.8      1.307      5.318
REMARK  3 active torsions:
REMARK  status: ('A' for Active; 'I' for Inactive)
REMARK    1  A    between atoms: C_6  and  C_1 
REMARK       I    between atoms: N_10  and  C_6 
REMARK    2  A    between atoms: C_23  and  N_10 
REMARK    3  A    between atoms: C_22  and  C_23 
ROOT
ATOM      1  C   UNL d   1      32.315  18.118 -24.143  0.00  0.00     0.266 C 
ATOM      2  N   UNL d   1      32.382  18.413 -23.381  0.00  0.00    -0.210 NA
ATOM      3  O   UNL d   1      32.758  18.582 -24.648  0.00  0.00    -0.269 OA
ENDROOT
BRANCH   1   4
ATOM      4  C   UNL d   1      31.844  17.458 -24.231  0.00  0.00     0.150 A 
ATOM      5  C   UNL d   1      30.814  16.459 -24.366  0.00  0.00     0.028 A 
ATOM      6  C   UNL d   1      31.461  16.758 -24.323  0.00  0.00     0.078 A 
ATOM      7  C   UNL d   1      29.989  16.379 -24.384  0.00  0.00     0.002 C 
ATOM      8  C   UNL d   1      30.950  15.651 -24.467  0.00  0.00     0.002 C 
ATOM      9  C   UNL d   1      31.589  15.948 -24.424  0.00  0.00     0.012 C 
ATOM     10  C   UNL d   1      31.296  17.512 -24.229  0.00  0.00    -0.023 A 
ATOM     11  C   UNL d   1      32.120  16.285 -24.376  0.00  0.00     0.211 A 
ATOM     12  C   UNL d   1      31.597  18.146 -24.146  0.00  0.00    -0.015 A 
ATOM     13  C   UNL d   1      32.473  16.995 -24.283  0.00  0.00     0.219 A 
ATOM     14  O   UNL d   1      32.257  15.473 -24.478  0.00  0.00    -0.288 OA
ATOM     15  O   UNL d   1      33.139  16.529 -24.336  0.00  0.00    -0.287 OA
ENDBRANCH   1   4
BRANCH   2  16
ATOM     16  C   UNL d   1      32.847  19.081 -23.236  0.00  0.00     0.102 C 
BRANCH  16  17
ATOM     17  C   UNL d   1      32.948  19.743 -22.760  0.00  0.00     0.021 A 
ATOM     18  C   UNL d   1      32.950  19.659 -21.935  0.00  0.00     0.028 A 
ATOM     19  C   UNL d   1      33.052  20.330 -21.448  0.00  0.00     0.119 A 
ATOM     20  O   UNL d   1      33.079  20.420 -20.635  0.00  0.00    -0.300 OA
ATOM     21  C   UNL d   1      33.150  21.079 -21.795  0.00  0.00     0.119 A 
ATOM     22  C   UNL d   1      33.193  21.216 -20.466  0.00  0.00     0.304 A 
ATOM     23  O   UNL d   1      33.237  21.625 -21.183  0.00  0.00    -0.300 OA
ATOM     24  C   UNL d   1      33.146  21.152 -22.619  0.00  0.00     0.026 A 
ATOM     25  C   UNL d   1      33.045  20.489 -23.101  0.00  0.00     0.004 A 
ENDBRANCH  16  17
ENDBRANCH   2  16
TORSDOF 3
ENDMDL
MODEL 5
REMARK VINA RESULT:      -2.5      2.580      4.347
REMARK  3 active torsions:
REMARK  status: ('A' for Active; 'I' for Inactive)
REMARK    1  A    between atoms: C_6  and  C_1 
REMARK       I    between atoms: N_10  and  C_6 
REMARK    2  A    between atoms: C_23  and  N_10 
REMARK    3  A    between atoms: C_22  and  C_23 
ROOT
ATOM      1  C   UNL d   1      31.804  17.417 -24.372  0.00  0.00     0.266 C 
ATOM      2  N   UNL d   1      31.016  17.371 -24.149  0.00  0.00    -0.210 NA
ATOM      3  O   UNL d   1      32.015  16.725 -24.748  0.00  0.00    -0.269 OA
ENDROOT
BRANCH   1   4
ATOM      4  C   UNL d   1      32.189  18.109 -24.180  0.00  0.00     0.150 A 
ATOM      5  C   UNL d   1      32.791  19.414 -24.075  0.00  0.00     0.028 A 
ATOM      6  C   UNL d   1      32.591  18.750 -23.909  0.00  0.00     0.078 A 
ATOM      7  C   UNL d   1      32.883  20.121 -24.498  0.00  0.00     0.002 C 
ATOM      8  C   UNL d   1      33.221  19.685 -23.424  0.00  0.00     0.002 C 
ATOM      9  C   UNL d   1      33.023  19.027 -23.261  0.00  0.00     0.012 C 
ATOM     10  C   UNL d   1      32.192  18.528 -24.538  0.00  0.00    -0.023 A 
ATOM     11  C   UNL d   1      32.809  18.439 -23.190  0.00  0.00     0.211 A 
ATOM     12  C   UNL d   1      31.831  17.985 -24.811  0.00  0.00    -0.015 A 
ATOM     13  C   UNL d   1      32.403  17.818 -23.486  0.00  0.00     0.219 A 
ATOM     14  O   UNL d   1      33.241  18.710 -22.535  0.00  0.00    -0.288 OA
ATOM     15  O   UNL d   1      32.617  17.498 -22.768  0.00  0.00    -0.287 OA
ENDBRANCH   1   4
BRANCH   2  16
ATOM     16  C   UNL d   1      30.578  16.691 -24.320  0.00  0.00     0.102 C 
BRANCH  16  17
ATOM     17  C   UNL d   1      29.826  16.359 -24.339  0.00  0.00     0.021 A 
ATOM     18  C   UNL d   1      29.280  16.543 -23.742  0.00  0.00     0.028 A 
ATOM     19  C   UNL d   1      28.516  16.208 -23.759  0.00  0.00     0.119 A 
ATOM     20  O   UNL d   1      27.871  16.283 -23.259  0.00  0.00    -0.300 OA
ATOM     21  C   UNL d   1      28.307  15.691 -24.376  0.00  0.00     0.119 A 
ATOM     22  C   UNL d   1      27.260  15.820 -23.553  0.00  0.00     0.304 A 
ATOM     23  O   UNL d   1      27.528  15.453 -24.245  0.00  0.00    -0.300 OA
ATOM     24  C   UNL d   1      28.858  15.514 -24.966  0.00  0.00     0.026 A 
ATOM     25  C   UNL d   1      29.614  15.845 -24.950  0.00  0.00     0.004 A 
ENDBRANCH  16  17
ENDBRANCH   2  16
TORSDOF 3
ENDMDL
