MODEL 1
REMARK VINA RESULT:      -6.6      0.000      0.000
REMARK  5 active torsions:
REMARK  status: ('A' for Active; 'I' for Inactive)
REMARK    1  A    between atoms: C_5  and  C_1 
REMARK    2  A    between atoms: C_2  and  C_5 
REMARK    3  A    between atoms: C_7  and  C_2 
REMARK    4  A    between atoms: N_4  and  C_11 
REMARK       I    between atoms: N_12  and  C_7 
REMARK    5  A    between atoms: C_17  and  N_12 
ROOT
ATOM      1  C   UNL d   1     -41.184-122.527 -51.224  0.00  0.00     0.126 C 
ATOM      2  C   UNL d   1     -41.156-121.711 -51.167  0.00  0.00     0.106 C 
ATOM      3  N   UNL d   1     -41.127-120.885 -51.112  0.00  0.00    -0.191 NA
ENDROOT
BRANCH   1   4
ATOM      4  C   UNL d   1     -41.134-122.990 -50.540  0.00  0.00     0.017 C 
BRANCH   4   5
ATOM      5  C   UNL d   1     -41.771-123.034 -50.019  0.00  0.00     0.020 A 
ATOM      6  C   UNL d   1     -42.551-122.818 -50.195  0.00  0.00     0.080 A 
ATOM      7  N   UNL d   1     -43.011-122.951 -49.514  0.00  0.00    -0.303 N 
ATOM      8  C   UNL d   1     -43.817-122.813 -49.439  0.00  0.00     0.100 C 
ATOM      9  C   UNL d   1     -42.510-123.248 -48.920  0.00  0.00     0.064 A 
ATOM     10  C   UNL d   1     -41.740-123.299 -49.237  0.00  0.00     0.018 A 
ATOM     11  C   UNL d   1     -42.648-123.479 -48.139  0.00  0.00     0.018 A 
ATOM     12  C   UNL d   1     -41.124-123.578 -48.768  0.00  0.00     0.002 A 
ATOM     13  C   UNL d   1     -41.269-123.805 -47.992  0.00  0.00     0.000 A 
ATOM     14  C   UNL d   1     -42.025-123.757 -47.677  0.00  0.00     0.002 A 
ENDBRANCH   4   5
ENDBRANCH   1   4
BRANCH   1  15
ATOM     15  C   UNL d   1     -41.264-122.891 -51.964  0.00  0.00     0.289 C 
ATOM     16  N   UNL d   1     -41.336-122.424 -52.641  0.00  0.00    -0.207 NA
ATOM     17  O   UNL d   1     -41.271-123.709 -52.020  0.00  0.00    -0.264 OA
BRANCH  16  18
ATOM     18  C   UNL d   1     -41.421-122.642 -53.434  0.00  0.00     0.086 A 
ATOM     19  C   UNL d   1     -41.761-122.123 -53.968  0.00  0.00     0.043 A 
ATOM     20  C   UNL d   1     -41.846-122.340 -54.759  0.00  0.00     0.128 A 
ATOM     21  C   UNL d   1     -41.583-123.090 -55.008  0.00  0.00     0.024 A 
ATOM     22  C   UNL d   1     -41.241-123.608 -54.461  0.00  0.00     0.003 A 
ATOM     23  C   UNL d   1     -41.162-123.380 -53.678  0.00  0.00     0.019 A 
BRANCH  20  24
ATOM     24  N   UNL d   1     -42.189-121.819 -55.301  0.00  0.00    -0.114 N 
ATOM     25  O   UNL d   1     -43.008-121.718 -55.307  0.00  0.00    -0.532 OA
ATOM     26  O   UNL d   1     -41.709-121.404 -55.835  0.00  0.00    -0.532 OA
ENDBRANCH  20  24
ENDBRANCH  16  18
ENDBRANCH   1  15
TORSDOF 5
ENDMDL
