MODEL 1
REMARK VINA RESULT:      51.7      0.000      0.000
REMARK  3 active torsions:
REMARK  status: ('A' for Active; 'I' for Inactive)
REMARK    1  A    between atoms: S_2  and  N_1 
REMARK    2  A    between atoms: C_8  and  S_2 
REMARK       I    between atoms: C_14  and  N_15 
REMARK    3  A    between atoms: N_15  and  C_19 
ROOT
ATOM      1  S   UNL d   1     -50.908  25.434  33.370  0.00  0.00     0.273 S 
ATOM      2  O   UNL d   1     -51.657  25.777  33.423  0.00  0.00    -0.200 OA
ATOM      3  O   UNL d   1     -50.833  24.618  33.311  0.00  0.00    -0.200 OA
ENDROOT
BRANCH   1   4
ATOM      4  N   UNL d   1     -50.232  25.904  33.375  0.00  0.00    -0.212 N 
ATOM      5  C   UNL d   1     -50.294  26.727  33.362  0.00  0.00     0.094 A 
ATOM      6  C   UNL d   1     -49.611  27.193  33.368  0.00  0.00     0.100 A 
ATOM      7  C   UNL d   1     -51.039  27.089  33.342  0.00  0.00     0.020 A 
ATOM      8  C   UNL d   1     -49.668  28.023  33.354  0.00  0.00     0.021 A 
ATOM      9  N   UNL d   1     -48.797  26.013  33.401  0.00  0.00    -0.223 NA
ATOM     10  C   UNL d   1     -50.423  28.385  33.334  0.00  0.00     0.002 A 
ATOM     11  C   UNL d   1     -51.101  27.912  33.329  0.00  0.00     0.002 A 
ATOM     12  C   UNL d   1     -50.487  29.202  33.321  0.00  0.00     0.000 C 
ATOM     13  C   UNL d   1     -51.846  28.260  33.310  0.00  0.00     0.000 C 
ATOM     14  C   UNL d   1     -49.484  25.545  33.395  0.00  0.00     0.193 A 
ENDBRANCH   1   4
BRANCH   1  15
ATOM     15  C   UNL d   1     -51.574  24.951  33.363  0.00  0.00     0.104 A 
ATOM     16  C   UNL d   1     -52.323  25.280  33.316  0.00  0.00     0.014 A 
ATOM     17  C   UNL d   1     -52.987  24.794  33.309  0.00  0.00     0.020 A 
ATOM     18  C   UNL d   1     -52.897  23.972  33.351  0.00  0.00     0.085 A 
ATOM     19  C   UNL d   1     -52.141  23.649  33.398  0.00  0.00     0.020 A 
ATOM     20  C   UNL d   1     -51.479  24.129  33.405  0.00  0.00     0.014 A 
BRANCH  18  21
ATOM     21  N   UNL d   1     -53.563  23.496  33.344  0.00  0.00    -0.208 NA
ATOM     22  C   UNL d   1     -54.187  23.664  33.856  0.00  0.00     0.279 C 
ATOM     23  O   UNL d   1     -54.861  23.192  33.858  0.00  0.00    -0.265 OA
ATOM     24  C   UNL d   1     -54.142  24.305  34.371  0.00  0.00     0.068 C 
ENDBRANCH  18  21
ENDBRANCH   1  15
TORSDOF 3
ENDMDL
MODEL 2
REMARK VINA RESULT:      52.9      1.406      4.377
REMARK  3 active torsions:
REMARK  status: ('A' for Active; 'I' for Inactive)
REMARK    1  A    between atoms: S_2  and  N_1 
REMARK    2  A    between atoms: C_8  and  S_2 
REMARK       I    between atoms: C_14  and  N_15 
REMARK    3  A    between atoms: N_15  and  C_19 
ROOT
ATOM      1  S   UNL d   1     -51.206  25.624  33.519  0.00  0.00     0.273 S 
ATOM      2  O   UNL d   1     -50.499  26.002  33.715  0.00  0.00    -0.200 OA
ATOM      3  O   UNL d   1     -51.864  26.068  33.308  0.00  0.00    -0.200 OA
ENDROOT
BRANCH   1   4
ATOM      4  N   UNL d   1     -51.259  24.803  33.534  0.00  0.00    -0.212 N 
ATOM      5  C   UNL d   1     -51.993  24.429  33.485  0.00  0.00     0.094 A 
ATOM      6  C   UNL d   1     -52.038  23.603  33.500  0.00  0.00     0.100 A 
ATOM      7  C   UNL d   1     -52.686  24.878  33.420  0.00  0.00     0.020 A 
ATOM      8  C   UNL d   1     -52.776  23.222  33.451  0.00  0.00     0.021 A 
ATOM      9  N   UNL d   1     -50.611  23.520  33.615  0.00  0.00    -0.223 NA
ATOM     10  C   UNL d   1     -53.474  23.679  33.385  0.00  0.00     0.002 A 
ATOM     11  C   UNL d   1     -53.420  24.504  33.370  0.00  0.00     0.002 A 
ATOM     12  C   UNL d   1     -54.204  23.310  33.336  0.00  0.00     0.000 C 
ATOM     13  C   UNL d   1     -54.101  24.960  33.306  0.00  0.00     0.000 C 
ATOM     14  C   UNL d   1     -50.566  24.350  33.599  0.00  0.00     0.193 A 
ENDBRANCH   1   4
BRANCH   1  15
ATOM     15  C   UNL d   1     -51.169  26.446  33.500  0.00  0.00     0.104 A 
ATOM     16  C   UNL d   1     -50.445  26.828  33.528  0.00  0.00     0.014 A 
ATOM     17  C   UNL d   1     -50.412  27.650  33.508  0.00  0.00     0.020 A 
ATOM     18  C   UNL d   1     -51.111  28.090  33.461  0.00  0.00     0.085 A 
ATOM     19  C   UNL d   1     -51.835  27.699  33.433  0.00  0.00     0.020 A 
ATOM     20  C   UNL d   1     -51.872  26.882  33.453  0.00  0.00     0.014 A 
BRANCH  18  21
ATOM     21  N   UNL d   1     -51.069  28.908  33.442  0.00  0.00    -0.208 NA
ATOM     22  C   UNL d   1     -50.335  29.274  33.364  0.00  0.00     0.279 C 
ATOM     23  O   UNL d   1     -50.280  30.095  33.344  0.00  0.00    -0.265 OA
ATOM     24  C   UNL d   1     -49.648  28.822  33.306  0.00  0.00     0.068 C 
ENDBRANCH  18  21
ENDBRANCH   1  15
TORSDOF 3
ENDMDL
