MODEL 1
REMARK VINA RESULT:      11.5      0.000      0.000
REMARK  4 active torsions:
REMARK  status: ('A' for Active; 'I' for Inactive)
REMARK    1  A    between atoms: C_6  and  N_1 
REMARK    2  A    between atoms: C_9  and  C_2 
REMARK    3  A    between atoms: O_14  and  C_10 
REMARK    4  A    between atoms: C_15  and  O_14 
ROOT
ATOM      1  C   UNL d   1      14.401  12.342  -1.780  0.00  0.00     0.086 A 
ATOM      2  C   UNL d   1      14.560  12.820  -2.431  0.00  0.00     0.021 A 
ATOM      3  C   UNL d   1      13.766  11.821  -1.797  0.00  0.00     0.021 A 
ATOM      4  C   UNL d   1      13.446  12.258  -3.123  0.00  0.00     0.100 A 
ATOM      5  C   UNL d   1      13.288  11.779  -2.469  0.00  0.00     0.026 A 
ATOM      6  C   UNL d   1      14.082  12.778  -3.102  0.00  0.00     0.026 A 
ENDROOT
BRANCH   1   7
ATOM      7  N   UNL d   1      14.879  12.384  -1.109  0.00  0.00    -0.191 N 
ATOM      8  C   UNL d   1      14.977  13.038  -0.621  0.00  0.00     0.200 A 
ATOM      9  N   UNL d   1      15.504  12.836  -0.015  0.00  0.00    -0.107 NA
ATOM     10  N   UNL d   1      15.730  12.064  -0.128  0.00  0.00    -0.022 NA
ATOM     11  N   UNL d   1      15.346  11.779  -0.805  0.00  0.00    -0.039 NA
BRANCH   8  12
ATOM     12  C   UNL d   1      14.610  13.781  -0.714  0.00  0.00     0.109 C 
ATOM     13 CL   UNL d   1      14.669  14.484  -0.277  0.00  0.00    -0.078 Cl
ENDBRANCH   8  12
ENDBRANCH   1   7
BRANCH   4  14
ATOM     14  O   UNL d   1      12.970  12.216  -3.791  0.00  0.00    -0.305 OA
BRANCH  14  15
ATOM     15  C   UNL d   1      13.280  11.936  -4.501  0.00  0.00     0.123 C 
ATOM     16  C   UNL d   1      12.785  11.840  -5.161  0.00  0.00     0.029 C 
ENDBRANCH  14  15
ENDBRANCH   4  14
TORSDOF 4
ENDMDL
