MODEL 1
REMARK VINA RESULT:      18.6      0.000      0.000
REMARK  3 active torsions:
REMARK  status: ('A' for Active; 'I' for Inactive)
REMARK    1  A    between atoms: C_8  and  C_1 
REMARK    2  A    between atoms: N_4  and  C_2 
REMARK       I    between atoms: C_6  and  N_4 
REMARK    3  A    between atoms: C_9  and  C_6 
ROOT
ATOM      1  C   UNL d   1      46.162 -18.577  42.469  0.00  0.00     0.177 A 
ATOM      2  C   UNL d   1      46.274 -18.262  43.224  0.00  0.00     0.114 A 
ATOM      3  O   UNL d   1      46.218 -19.408  42.522  0.00  0.00    -0.301 OA
ATOM      4  C   UNL d   1      46.399 -18.885  43.747  0.00  0.00     0.043 A 
ATOM      5  C   UNL d   1      46.364 -19.605  43.304  0.00  0.00     0.102 A 
ATOM      6  C   UNL d   1      46.539 -18.907  44.555  0.00  0.00     0.004 A 
ATOM      7  C   UNL d   1      46.470 -20.319  43.690  0.00  0.00     0.025 A 
ATOM      8  C   UNL d   1      46.647 -19.629  44.947  0.00  0.00     0.000 A 
ATOM      9  C   UNL d   1      46.614 -20.329  44.526  0.00  0.00     0.002 A 
ENDROOT
BRANCH   2  10
ATOM     10  N   UNL d   1      46.257 -17.433  43.403  0.00  0.00    -0.206 NA
ATOM     11  C   UNL d   1      45.749 -17.154  43.990  0.00  0.00     0.279 C 
ATOM     12  O   UNL d   1      45.241 -17.673  44.420  0.00  0.00    -0.265 OA
BRANCH  11  13
ATOM     13  C   UNL d   1      45.727 -16.342  44.173  0.00  0.00     0.058 A 
ATOM     14  C   UNL d   1      46.359 -15.845  44.024  0.00  0.00     0.007 A 
ATOM     15  C   UNL d   1      46.316 -15.037  44.214  0.00  0.00     0.030 A 
ATOM     16  C   UNL d   1      45.631 -14.732  44.556  0.00  0.00     0.140 A 
ATOM     17  C   UNL d   1      44.994 -15.217  44.709  0.00  0.00     0.030 A 
ATOM     18  F   UNL d   1      45.577 -13.933  44.749  0.00  0.00    -0.204 F 
ATOM     19  C   UNL d   1      45.032 -16.026  44.521  0.00  0.00     0.007 A 
ENDBRANCH  11  13
ENDBRANCH   2  10
BRANCH   1  20
ATOM     20  C   UNL d   1      46.021 -18.122  41.799  0.00  0.00     0.321 C 
ATOM     21  O   UNL d   1      45.257 -17.801  41.663  0.00  0.00    -0.261 OA
ATOM     22  N   UNL d   1      46.634 -17.974  41.249  0.00  0.00    -0.101 N 
ENDBRANCH   1  20
TORSDOF 3
ENDMDL
