MODEL 1
REMARK VINA RESULT:      76.1      0.000      0.000
REMARK  4 active torsions:
REMARK  status: ('A' for Active; 'I' for Inactive)
REMARK    1  A    between atoms: N_10  and  C_3 
REMARK    2  A    between atoms: C_11  and  C_5 
REMARK    3  A    between atoms: C_12  and  N_10 
REMARK    4  A    between atoms: O_21  and  C_14 
ROOT
ATOM      1  N   UNL d   1      14.014  14.976  -3.943  0.00  0.00    -0.184 N 
ATOM      2  C   UNL d   1      14.031  14.351  -3.383  0.00  0.00     0.168 A 
ATOM      3  C   UNL d   1      14.275  15.730  -3.722  0.00  0.00     0.217 A 
ATOM      4  N   UNL d   1      13.485  14.090  -4.917  0.00  0.00    -0.162 NA
ATOM      5  C   UNL d   1      13.777  13.616  -3.598  0.00  0.00     0.055 A 
ATOM      6  N   UNL d   1      14.306  14.502  -2.623  0.00  0.00    -0.227 NA
ATOM      7  C   UNL d   1      14.544  15.863  -2.968  0.00  0.00     0.066 A 
ATOM      8  C   UNL d   1      13.501  13.475  -4.366  0.00  0.00     0.104 A 
ATOM      9  C   UNL d   1      14.563  15.243  -2.402  0.00  0.00     0.087 A 
ATOM     10  C   UNL d   1      14.828  16.526  -2.597  0.00  0.00     0.006 A 
ATOM     11  C   UNL d   1      13.246  12.727  -4.576  0.00  0.00     0.023 C 
ATOM     12  C   UNL d   1      14.859  15.540  -1.698  0.00  0.00     0.019 A 
ATOM     13  C   UNL d   1      15.023  16.344  -1.824  0.00  0.00     0.002 A 
ENDROOT
BRANCH   3  14
ATOM     14  N   UNL d   1      14.260  16.363  -4.284  0.00  0.00    -0.383 NA
BRANCH  14  15
ATOM     15  C   UNL d   1      14.264  17.016  -4.813  0.00  0.00     0.134 A 
ATOM     16  C   UNL d   1      13.842  16.996  -5.528  0.00  0.00     0.034 A 
ATOM     17  C   UNL d   1      13.849  17.650  -6.054  0.00  0.00     0.027 A 
ATOM     18  C   UNL d   1      14.288  18.345  -5.865  0.00  0.00     0.094 A 
ATOM     19  C   UNL d   1      14.728  18.375  -5.129  0.00  0.00     0.027 A 
ATOM     20  C   UNL d   1      14.718  17.719  -4.605  0.00  0.00     0.034 A 
BRANCH  18  21
ATOM     21  O   UNL d   1      14.297  19.001  -6.389  0.00  0.00    -0.328 OA
ATOM     22  C   UNL d   1      14.372  19.787  -6.087  0.00  0.00     0.181 C 
ENDBRANCH  18  21
ENDBRANCH  14  15
ENDBRANCH   3  14
BRANCH   5  23
ATOM     23  C   UNL d   1      13.793  13.004  -3.051  0.00  0.00     0.004 A 
ATOM     24  C   UNL d   1      14.439  12.913  -2.551  0.00  0.00     0.000 A 
ATOM     25  C   UNL d   1      14.458  12.305  -2.005  0.00  0.00     0.000 A 
ATOM     26  C   UNL d   1      13.824  11.779  -1.954  0.00  0.00     0.000 A 
ATOM     27  C   UNL d   1      13.183  11.862  -2.443  0.00  0.00     0.000 A 
ATOM     28  C   UNL d   1      13.167  12.481  -2.997  0.00  0.00     0.000 A 
ENDBRANCH   5  23
TORSDOF 4
ENDMDL
