MODEL 1
REMARK VINA RESULT:      92.8      0.000      0.000
REMARK  6 active torsions:
REMARK  status: ('A' for Active; 'I' for Inactive)
REMARK    1  A    between atoms: S_12  and  C_5 
REMARK    2  A    between atoms: C_16  and  C_6 
REMARK    3  A    between atoms: C_10  and  C_14 
REMARK    4  A    between atoms: C_19  and  S_12 
REMARK    5  A    between atoms: C_13  and  C_19 
REMARK       I    between atoms: N_15  and  C_13 
REMARK    6  A    between atoms: C_22  and  N_15 
ROOT
ATOM      1  C   UNL d   1     -51.999  26.865  33.333  0.00  0.00     0.186 A 
ATOM      2  C   UNL d   1     -51.173  26.954  33.323  0.00  0.00     0.065 A 
ATOM      3  N   UNL d   1     -52.335  26.114  33.342  0.00  0.00    -0.203 NA
ATOM      4  N   UNL d   1     -51.020  25.542  33.330  0.00  0.00    -0.220 NA
ATOM      5  C   UNL d   1     -50.696  26.291  33.322  0.00  0.00     0.116 A 
ATOM      6  C   UNL d   1     -51.845  25.448  33.340  0.00  0.00     0.165 A 
ATOM      7  O   UNL d   1     -52.489  27.535  33.334  0.00  0.00    -0.289 OA
ATOM      8  C   UNL d   1     -50.842  27.713  33.314  0.00  0.00     0.007 A 
ATOM      9  C   UNL d   1     -52.165  28.289  33.325  0.00  0.00     0.102 A 
ATOM     10  C   UNL d   1     -51.335  28.379  33.315  0.00  0.00     0.023 A 
ATOM     11  C   UNL d   1     -52.642  28.947  33.326  0.00  0.00     0.025 A 
ATOM     12  C   UNL d   1     -51.008  29.136  33.306  0.00  0.00     0.002 A 
ATOM     13  C   UNL d   1     -51.502  29.798  33.308  0.00  0.00     0.000 A 
ATOM     14  C   UNL d   1     -52.324  29.709  33.318  0.00  0.00     0.002 A 
ENDROOT
BRANCH   5  15
ATOM     15  S   UNL d   1     -49.870  26.389  33.312  0.00  0.00    -0.062 SA
BRANCH  15  16
ATOM     16  C   UNL d   1     -49.444  26.301  34.015  0.00  0.00     0.099 C 
BRANCH  16  17
ATOM     17  C   UNL d   1     -48.940  26.897  34.270  0.00  0.00     0.286 C 
ATOM     18  N   UNL d   1     -49.239  27.531  34.696  0.00  0.00    -0.208 NA
ATOM     19  O   UNL d   1     -48.136  26.861  34.101  0.00  0.00    -0.265 OA
BRANCH  18  20
ATOM     20  C   UNL d   1     -48.734  28.131  34.952  0.00  0.00     0.085 A 
ATOM     21  C   UNL d   1     -48.466  28.691  34.419  0.00  0.00     0.019 A 
ATOM     22  C   UNL d   1     -47.966  29.286  34.669  0.00  0.00     0.008 A 
ATOM     23  C   UNL d   1     -47.731  29.321  35.465  0.00  0.00     0.065 A 
ATOM     24  C   UNL d   1     -48.003  28.758  35.996  0.00  0.00     0.008 A 
ATOM     25  C   UNL d   1     -48.506  28.159  35.743  0.00  0.00     0.019 A 
BRANCH  23  26
ATOM     26  C   UNL d   1     -47.228  29.918  35.722  0.00  0.00     0.211 C 
ATOM     27  O   UNL d   1     -46.424  29.760  35.808  0.00  0.00    -0.644 OA
ATOM     28  O   UNL d   1     -47.521  30.667  35.894  0.00  0.00    -0.644 OA
ENDBRANCH  23  26
ENDBRANCH  18  20
ENDBRANCH  16  17
ENDBRANCH  15  16
ENDBRANCH   5  15
BRANCH   6  29
ATOM     29  C   UNL d   1     -52.182  24.697  33.349  0.00  0.00     0.036 A 
ATOM     30  C   UNL d   1     -53.007  24.616  33.313  0.00  0.00     0.003 A 
ATOM     31  C   UNL d   1     -53.349  23.866  33.321  0.00  0.00     0.000 A 
ATOM     32  C   UNL d   1     -52.868  23.194  33.366  0.00  0.00     0.000 A 
ATOM     33  C   UNL d   1     -52.045  23.270  33.403  0.00  0.00     0.000 A 
ATOM     34  C   UNL d   1     -51.704  24.029  33.394  0.00  0.00     0.003 A 
ENDBRANCH   6  29
TORSDOF 6
ENDMDL
