MODEL 1
REMARK VINA RESULT:      -4.6      0.000      0.000
REMARK  0 active torsions:
REMARK  status: ('A' for Active; 'I' for Inactive)
ROOT
ATOM      1  C   UNL d   1      56.453  -0.668  32.232  0.00  0.00     0.116 A 
ATOM      2  C   UNL d   1      56.387   0.154  32.190  0.00  0.00     0.192 A 
ATOM      3  N   UNL d   1      57.287   0.158  31.089  0.00  0.00    -0.145 NA
ATOM      4  C   UNL d   1      56.030  -1.066  32.808  0.00  0.00     0.285 A 
ATOM      5  N   UNL d   1      55.915   0.561  32.708  0.00  0.00    -0.203 NA
ATOM      6  N   UNL d   1      56.803   0.565  31.620  0.00  0.00    -0.128 NA
ATOM      7  N   UNL d   1      55.547  -0.656  33.339  0.00  0.00    -0.185 NA
ATOM      8  C   UNL d   1      55.493   0.158  33.283  0.00  0.00     0.203 A 
ATOM      9  C   UNL d   1      57.348  -0.655  31.135  0.00  0.00     0.130 A 
ATOM     10  O   UNL d   1      56.085  -1.889  32.863  0.00  0.00    -0.265 OA
ENDROOT
TORSDOF 0
ENDMDL
MODEL 2
REMARK VINA RESULT:      -3.7      8.252      8.901
REMARK  0 active torsions:
REMARK  status: ('A' for Active; 'I' for Inactive)
ROOT
ATOM      1  C   UNL d   1      59.788  -7.221  35.953  0.00  0.00     0.116 A 
ATOM      2  C   UNL d   1      60.542  -7.444  36.204  0.00  0.00     0.192 A 
ATOM      3  N   UNL d   1      60.128  -8.804  36.206  0.00  0.00    -0.145 NA
ATOM      4  C   UNL d   1      59.634  -6.428  35.831  0.00  0.00     0.285 A 
ATOM      5  N   UNL d   1      61.120  -6.890  36.329  0.00  0.00    -0.203 NA
ATOM      6  N   UNL d   1      60.710  -8.233  36.330  0.00  0.00    -0.128 NA
ATOM      7  N   UNL d   1      60.220  -5.858  35.957  0.00  0.00    -0.185 NA
ATOM      8  C   UNL d   1      60.962  -6.096  36.205  0.00  0.00     0.203 A 
ATOM      9  C   UNL d   1      59.383  -8.579  35.957  0.00  0.00     0.130 A 
ATOM     10  O   UNL d   1      58.884  -6.188  35.580  0.00  0.00    -0.265 OA
ENDROOT
TORSDOF 0
ENDMDL
MODEL 3
REMARK VINA RESULT:      -3.3      8.975      9.425
REMARK  0 active torsions:
REMARK  status: ('A' for Active; 'I' for Inactive)
ROOT
ATOM      1  C   UNL d   1      59.848  -8.834  35.335  0.00  0.00     0.116 A 
ATOM      2  C   UNL d   1      60.172  -8.075  35.310  0.00  0.00     0.192 A 
ATOM      3  N   UNL d   1      61.094  -8.513  34.321  0.00  0.00    -0.145 NA
ATOM      4  C   UNL d   1      59.227  -8.979  35.847  0.00  0.00     0.285 A 
ATOM      5  N   UNL d   1      59.882  -7.483  35.781  0.00  0.00    -0.203 NA
ATOM      6  N   UNL d   1      60.793  -7.916  34.805  0.00  0.00    -0.128 NA
ATOM      7  N   UNL d   1      58.927  -8.378  36.330  0.00  0.00    -0.185 NA
ATOM      8  C   UNL d   1      59.259  -7.632  36.292  0.00  0.00     0.203 A 
ATOM      9  C   UNL d   1      60.771  -9.262  34.350  0.00  0.00     0.130 A 
ATOM     10  O   UNL d   1      58.892  -9.733  35.884  0.00  0.00    -0.265 OA
ENDROOT
TORSDOF 0
ENDMDL
MODEL 4
REMARK VINA RESULT:      -2.8      9.247      9.672
REMARK  0 active torsions:
REMARK  status: ('A' for Active; 'I' for Inactive)
ROOT
ATOM      1  C   UNL d   1      60.191  -8.571  34.949  0.00  0.00     0.116 A 
ATOM      2  C   UNL d   1      59.578  -9.090  35.140  0.00  0.00     0.192 A 
ATOM      3  N   UNL d   1      59.834  -9.816  33.945  0.00  0.00    -0.145 NA
ATOM      4  C   UNL d   1      60.357  -7.954  35.460  0.00  0.00     0.285 A 
ATOM      5  N   UNL d   1      59.148  -8.993  35.820  0.00  0.00    -0.203 NA
ATOM      6  N   UNL d   1      59.401  -9.710  34.640  0.00  0.00    -0.128 NA
ATOM      7  N   UNL d   1      59.921  -7.851  36.155  0.00  0.00    -0.185 NA
ATOM      8  C   UNL d   1      59.317  -8.374  36.330  0.00  0.00     0.203 A 
ATOM      9  C   UNL d   1      60.439  -9.300  33.760  0.00  0.00     0.130 A 
ATOM     10  O   UNL d   1      60.967  -7.427  35.282  0.00  0.00    -0.265 OA
ENDROOT
TORSDOF 0
ENDMDL
MODEL 5
REMARK VINA RESULT:      -2.7      1.890      2.197
REMARK  0 active torsions:
REMARK  status: ('A' for Active; 'I' for Inactive)
ROOT
ATOM      1  C   UNL d   1      56.019   0.547  34.151  0.00  0.00     0.116 A 
ATOM      2  C   UNL d   1      55.636   0.528  33.420  0.00  0.00     0.192 A 
ATOM      3  N   UNL d   1      56.895   0.395  32.774  0.00  0.00    -0.145 NA
ATOM      4  C   UNL d   1      55.569   0.624  34.828  0.00  0.00     0.285 A 
ATOM      5  N   UNL d   1      54.829   0.584  33.372  0.00  0.00    -0.203 NA
ATOM      6  N   UNL d   1      56.073   0.452  32.735  0.00  0.00    -0.128 NA
ATOM      7  N   UNL d   1      54.744   0.681  34.785  0.00  0.00    -0.185 NA
ATOM      8  C   UNL d   1      54.380   0.661  34.053  0.00  0.00     0.203 A 
ATOM      9  C   UNL d   1      57.270   0.414  33.499  0.00  0.00     0.130 A 
ATOM     10  O   UNL d   1      55.938   0.645  35.567  0.00  0.00    -0.265 OA
ENDROOT
TORSDOF 0
ENDMDL
MODEL 6
REMARK VINA RESULT:      -2.4      1.807      2.597
REMARK  0 active torsions:
REMARK  status: ('A' for Active; 'I' for Inactive)
ROOT
ATOM      1  C   UNL d   1      57.833  -0.826  30.456  0.00  0.00     0.116 A 
ATOM      2  C   UNL d   1      58.130  -0.154  30.080  0.00  0.00     0.192 A 
ATOM      3  N   UNL d   1      58.875  -0.988  29.202  0.00  0.00    -0.145 NA
ATOM      4  C   UNL d   1      57.314  -0.729  31.080  0.00  0.00     0.285 A 
ATOM      5  N   UNL d   1      57.914   0.589  30.322  0.00  0.00    -0.203 NA
ATOM      6  N   UNL d   1      58.650  -0.235  29.455  0.00  0.00    -0.128 NA
ATOM      7  N   UNL d   1      57.090   0.027  31.332  0.00  0.00    -0.185 NA
ATOM      8  C   UNL d   1      57.394   0.682  30.948  0.00  0.00     0.203 A 
ATOM      9  C   UNL d   1      58.578  -1.649  29.577  0.00  0.00     0.130 A 
ATOM     10  O   UNL d   1      57.008  -1.391  31.467  0.00  0.00    -0.265 OA
ENDROOT
TORSDOF 0
ENDMDL
MODEL 7
REMARK VINA RESULT:      -2.3      2.791      3.993
REMARK  0 active torsions:
REMARK  status: ('A' for Active; 'I' for Inactive)
ROOT
ATOM      1  C   UNL d   1      58.463  -0.022  29.891  0.00  0.00     0.116 A 
ATOM      2  C   UNL d   1      58.092  -0.728  30.106  0.00  0.00     0.192 A 
ATOM      3  N   UNL d   1      57.303  -0.013  31.048  0.00  0.00    -0.145 NA
ATOM      4  C   UNL d   1      59.041  -0.043  29.313  0.00  0.00     0.285 A 
ATOM      5  N   UNL d   1      58.294  -1.428  29.752  0.00  0.00    -0.203 NA
ATOM      6  N   UNL d   1      57.514  -0.722  30.682  0.00  0.00    -0.128 NA
ATOM      7  N   UNL d   1      59.250  -0.756  28.948  0.00  0.00    -0.185 NA
ATOM      8  C   UNL d   1      58.873  -1.445  29.173  0.00  0.00     0.203 A 
ATOM      9  C   UNL d   1      57.673   0.682  30.832  0.00  0.00     0.130 A 
ATOM     10  O   UNL d   1      59.421   0.654  29.087  0.00  0.00    -0.265 OA
ENDROOT
TORSDOF 0
ENDMDL
MODEL 8
REMARK VINA RESULT:      -2.3      4.213      4.962
REMARK  0 active torsions:
REMARK  status: ('A' for Active; 'I' for Inactive)
ROOT
ATOM      1  C   UNL d   1      59.578  -1.987  29.001  0.00  0.00     0.116 A 
ATOM      2  C   UNL d   1      58.789  -2.019  29.244  0.00  0.00     0.192 A 
ATOM      3  N   UNL d   1      58.801  -3.428  29.060  0.00  0.00    -0.145 NA
ATOM      4  C   UNL d   1      59.952  -1.261  28.977  0.00  0.00     0.285 A 
ATOM      5  N   UNL d   1      58.391  -1.345  29.455  0.00  0.00    -0.203 NA
ATOM      6  N   UNL d   1      58.403  -2.737  29.273  0.00  0.00    -0.128 NA
ATOM      7  N   UNL d   1      59.550  -0.569  29.191  0.00  0.00    -0.185 NA
ATOM      8  C   UNL d   1      58.769  -0.619  29.429  0.00  0.00     0.203 A 
ATOM      9  C   UNL d   1      59.580  -3.392  28.821  0.00  0.00     0.130 A 
ATOM     10  O   UNL d   1      60.740  -1.212  28.736  0.00  0.00    -0.265 OA
ENDROOT
TORSDOF 0
ENDMDL
MODEL 9
REMARK VINA RESULT:      -2.2      2.436      3.925
REMARK  0 active torsions:
REMARK  status: ('A' for Active; 'I' for Inactive)
ROOT
ATOM      1  C   UNL d   1      58.256  -1.076  29.827  0.00  0.00     0.116 A 
ATOM      2  C   UNL d   1      58.303  -0.293  29.572  0.00  0.00     0.192 A 
ATOM      3  N   UNL d   1      57.517   0.106  30.688  0.00  0.00    -0.145 NA
ATOM      4  C   UNL d   1      58.629  -1.655  29.387  0.00  0.00     0.285 A 
ATOM      5  N   UNL d   1      58.710  -0.097  28.900  0.00  0.00    -0.203 NA
ATOM      6  N   UNL d   1      57.934   0.296  30.002  0.00  0.00    -0.128 NA
ATOM      7  N   UNL d   1      59.047  -1.461  28.699  0.00  0.00    -0.185 NA
ATOM      8  C   UNL d   1      59.083  -0.680  28.461  0.00  0.00     0.203 A 
ATOM      9  C   UNL d   1      57.474  -0.671  30.936  0.00  0.00     0.130 A 
ATOM     10  O   UNL d   1      58.592  -2.444  29.628  0.00  0.00    -0.265 OA
ENDROOT
TORSDOF 0
ENDMDL
