MODEL 1
REMARK VINA RESULT:       1.2      0.000      0.000
REMARK  5 active torsions:
REMARK  status: ('A' for Active; 'I' for Inactive)
REMARK    1  A    between atoms: S_3  and  N_1 
REMARK    2  A    between atoms: C_7  and  C_4 
REMARK    3  A    between atoms: C_8  and  C_5 
REMARK    4  A    between atoms: O_17  and  C_12 
REMARK    5  A    between atoms: C_20  and  O_17 
ROOT
ATOM      1  N   UNL d   1     -42.744-123.012 -49.830  0.00  0.00    -0.155 N 
ATOM      2  N   UNL d   1     -42.770-123.011 -48.995  0.00  0.00    -0.155 NA
ATOM      3  C   UNL d   1     -41.971-123.075 -50.053  0.00  0.00     0.098 A 
ATOM      4  C   UNL d   1     -42.002-123.074 -48.730  0.00  0.00     0.110 A 
ATOM      5  C   UNL d   1     -41.479-123.116 -49.392  0.00  0.00     0.041 A 
ENDROOT
BRANCH   3   6
ATOM      6  C   UNL d   1     -41.703-123.096 -50.834  0.00  0.00     0.041 A 
ATOM      7  C   UNL d   1     -41.391-122.426 -51.181  0.00  0.00     0.102 A 
ATOM      8  C   UNL d   1     -41.123-122.447 -51.961  0.00  0.00     0.025 A 
ATOM      9  C   UNL d   1     -41.167-123.138 -52.393  0.00  0.00     0.002 A 
ATOM     10  C   UNL d   1     -41.480-123.817 -52.047  0.00  0.00     0.000 A 
ATOM     11  C   UNL d   1     -41.749-123.796 -51.267  0.00  0.00     0.004 A 
BRANCH   7  12
ATOM     12  O   UNL d   1     -41.344-121.721 -50.748  0.00  0.00    -0.305 OA
BRANCH  12  13
ATOM     13  C   UNL d   1     -41.124-121.023 -51.120  0.00  0.00     0.123 C 
ATOM     14  C   UNL d   1     -41.268-120.294 -50.754  0.00  0.00     0.029 C 
ENDBRANCH  12  13
ENDBRANCH   7  12
ENDBRANCH   3   6
BRANCH   1  15
ATOM     15  S   UNL d   1     -43.390-122.959 -50.310  0.00  0.00     0.266 S 
ATOM     16  O   UNL d   1     -43.315-123.768 -50.512  0.00  0.00    -0.203 OA
ATOM     17  O   UNL d   1     -43.494-122.169 -50.138  0.00  0.00    -0.203 OA
ATOM     18  C   UNL d   1     -44.065-122.926 -50.820  0.00  0.00     0.165 C 
ENDBRANCH   1  15
BRANCH   4  19
ATOM     19  C   UNL d   1     -41.745-123.096 -47.941  0.00  0.00     0.049 A 
ATOM     20  S   UNL d   1     -42.025-123.641 -47.398  0.00  0.00    -0.085 SA
ATOM     21  C   UNL d   1     -41.639-123.483 -46.685  0.00  0.00     0.035 A 
ATOM     22  C   UNL d   1     -41.123-122.843 -46.792  0.00  0.00     0.007 A 
ATOM     23  C   UNL d   1     -41.193-122.602 -47.585  0.00  0.00     0.009 A 
ENDBRANCH   4  19
TORSDOF 5
ENDMDL
