MODEL 1
REMARK VINA RESULT:      93.4      0.000      0.000
REMARK  8 active torsions:
REMARK  status: ('A' for Active; 'I' for Inactive)
REMARK    1  A    between atoms: C_6  and  N_1 
REMARK    2  A    between atoms: S_10  and  C_2 
REMARK    3  A    between atoms: C_12  and  C_3 
REMARK    4  A    between atoms: C_7  and  C_8 
REMARK    5  A    between atoms: C_21  and  S_10 
REMARK    6  A    between atoms: O_15  and  C_12 
REMARK    7  A    between atoms: C_13  and  C_21 
REMARK    8  A    between atoms: C_16  and  O_15 
ROOT
ATOM      1  N   UNL d   1      60.092  47.447  50.751  0.00  0.00    -0.268 N 
ATOM      2  C   UNL d   1      60.501  46.687  50.711  0.00  0.00     0.198 A 
ATOM      3  C   UNL d   1      59.240  47.298  50.703  0.00  0.00     0.196 A 
ATOM      4  N   UNL d   1      59.897  46.060  50.637  0.00  0.00    -0.122 NA
ATOM      5  N   UNL d   1      59.122  46.449  50.633  0.00  0.00    -0.126 NA
ENDROOT
BRANCH   3   6
ATOM      6  C   UNL d   1      58.619  47.902  50.722  0.00  0.00     0.162 C 
BRANCH   6   7
ATOM      7  O   UNL d   1      58.241  48.153  49.983  0.00  0.00    -0.300 OA
BRANCH   7   8
ATOM      8  C   UNL d   1      57.540  48.559  49.834  0.00  0.00     0.118 A 
ATOM      9  C   UNL d   1      57.145  48.926  50.456  0.00  0.00     0.104 A 
ATOM     10  N   UNL d   1      57.448  48.887  51.223  0.00  0.00    -0.242 NA
ATOM     11  C   UNL d   1      56.437  49.337  50.310  0.00  0.00     0.020 A 
ATOM     12  C   UNL d   1      57.042  49.259  51.839  0.00  0.00     0.099 A 
ATOM     13  C   UNL d   1      56.348  49.661  51.688  0.00  0.00     0.021 A 
ATOM     14  C   UNL d   1      56.048  49.699  50.929  0.00  0.00     0.003 A 
ATOM     15  C   UNL d   1      56.137  49.376  49.551  0.00  0.00     0.002 A 
ATOM     16  C   UNL d   1      56.533  49.009  48.929  0.00  0.00     0.002 A 
ATOM     17  C   UNL d   1      57.244  48.595  49.073  0.00  0.00     0.026 A 
ENDBRANCH   7   8
ENDBRANCH   6   7
ENDBRANCH   3   6
BRANCH   1  18
ATOM     18  C   UNL d   1      60.447  48.184  50.823  0.00  0.00     0.067 A 
ATOM     19  C   UNL d   1      60.685  48.452  51.558  0.00  0.00     0.021 A 
ATOM     20  C   UNL d   1      61.039  49.181  51.637  0.00  0.00     0.073 A 
ATOM     21  C   UNL d   1      61.159  49.656  50.968  0.00  0.00     0.004 A 
ATOM     22  C   UNL d   1      60.918  49.382  50.227  0.00  0.00     0.001 A 
ATOM     23  C   UNL d   1      60.566  48.654  50.156  0.00  0.00     0.018 A 
BRANCH  20  24
ATOM     24  C   UNL d   1      61.281  49.454  52.387  0.00  0.00     0.419 C 
ATOM     25  F   UNL d   1      61.501  49.705  53.077  0.00  0.00    -0.166 F 
ATOM     26  F   UNL d   1      62.079  49.693  52.669  0.00  0.00    -0.166 F 
ATOM     27  F   UNL d   1      60.801  49.581  53.115  0.00  0.00    -0.166 F 
ENDBRANCH  20  24
ENDBRANCH   1  18
BRANCH   2  28
ATOM     28  S   UNL d   1      61.352  46.570  50.739  0.00  0.00    -0.064 SA
BRANCH  28  29
ATOM     29  C   UNL d   1      61.801  46.414  50.015  0.00  0.00     0.162 C 
BRANCH  29  30
ATOM     30  C   UNL d   1      61.872  45.615  49.706  0.00  0.00     0.197 C 
ATOM     31  O   UNL d   1      61.377  44.980  50.030  0.00  0.00    -0.647 OA
ATOM     32  O   UNL d   1      62.434  45.445  49.075  0.00  0.00    -0.647 OA
ENDBRANCH  29  30
ENDBRANCH  28  29
ENDBRANCH   2  28
TORSDOF 8
ENDMDL
MODEL 2
REMARK VINA RESULT:      94.3      2.276      4.724
REMARK  8 active torsions:
REMARK  status: ('A' for Active; 'I' for Inactive)
REMARK    1  A    between atoms: C_6  and  N_1 
REMARK    2  A    between atoms: S_10  and  C_2 
REMARK    3  A    between atoms: C_12  and  C_3 
REMARK    4  A    between atoms: C_7  and  C_8 
REMARK    5  A    between atoms: C_21  and  S_10 
REMARK    6  A    between atoms: O_15  and  C_12 
REMARK    7  A    between atoms: C_13  and  C_21 
REMARK    8  A    between atoms: C_16  and  O_15 
ROOT
ATOM      1  N   UNL d   1      60.814  48.698  50.788  0.00  0.00    -0.268 N 
ATOM      2  C   UNL d   1      61.077  49.000  51.555  0.00  0.00     0.198 A 
ATOM      3  C   UNL d   1      61.267  47.983  50.611  0.00  0.00     0.196 A 
ATOM      4  N   UNL d   1      61.699  48.466  51.855  0.00  0.00    -0.122 NA
ATOM      5  N   UNL d   1      61.809  47.841  51.264  0.00  0.00    -0.126 NA
ENDROOT
BRANCH   3   6
ATOM      6  C   UNL d   1      61.186  47.496  49.898  0.00  0.00     0.162 C 
BRANCH   6   7
ATOM      7  O   UNL d   1      61.896  47.197  49.500  0.00  0.00    -0.300 OA
BRANCH   7   8
ATOM      8  C   UNL d   1      62.158  46.431  49.345  0.00  0.00     0.118 A 
ATOM      9  C   UNL d   1      61.686  45.791  49.557  0.00  0.00     0.104 A 
ATOM     10  N   UNL d   1      60.955  45.915  49.920  0.00  0.00    -0.242 NA
ATOM     11  C   UNL d   1      61.947  45.017  49.403  0.00  0.00     0.020 A 
ATOM     12  C   UNL d   1      60.489  45.265  50.128  0.00  0.00     0.099 A 
ATOM     13  C   UNL d   1      60.752  44.507  49.973  0.00  0.00     0.021 A 
ATOM     14  C   UNL d   1      61.476  44.385  49.614  0.00  0.00     0.003 A 
ATOM     15  C   UNL d   1      62.670  44.894  49.043  0.00  0.00     0.002 A 
ATOM     16  C   UNL d   1      63.143  45.535  48.832  0.00  0.00     0.002 A 
ATOM     17  C   UNL d   1      62.882  46.313  48.986  0.00  0.00     0.026 A 
ENDBRANCH   7   8
ENDBRANCH   6   7
ENDBRANCH   3   6
BRANCH   1  18
ATOM     18  C   UNL d   1      60.235  49.032  50.311  0.00  0.00     0.067 A 
ATOM     19  C   UNL d   1      59.454  49.022  50.550  0.00  0.00     0.021 A 
ATOM     20  C   UNL d   1      58.874  49.351  50.082  0.00  0.00     0.073 A 
ATOM     21  C   UNL d   1      59.077  49.699  49.358  0.00  0.00     0.004 A 
ATOM     22  C   UNL d   1      59.868  49.707  49.119  0.00  0.00     0.001 A 
ATOM     23  C   UNL d   1      60.440  49.377  49.591  0.00  0.00     0.018 A 
BRANCH  20  24
ATOM     24  C   UNL d   1      58.076  49.340  50.327  0.00  0.00     0.419 C 
ATOM     25  F   UNL d   1      57.344  49.329  50.551  0.00  0.00    -0.166 F 
ATOM     26  F   UNL d   1      57.700  49.703  51.034  0.00  0.00    -0.166 F 
ATOM     27  F   UNL d   1      57.381  48.959  49.944  0.00  0.00    -0.166 F 
ENDBRANCH  20  24
ENDBRANCH   1  18
BRANCH   2  28
ATOM     28  S   UNL d   1      60.778  49.702  51.950  0.00  0.00    -0.064 SA
BRANCH  28  29
ATOM     29  C   UNL d   1      60.650  49.707  52.806  0.00  0.00     0.162 C 
BRANCH  29  30
ATOM     30  C   UNL d   1      61.301  49.564  53.348  0.00  0.00     0.197 C 
ATOM     31  O   UNL d   1      61.139  49.304  54.160  0.00  0.00    -0.647 OA
ATOM     32  O   UNL d   1      62.114  49.678  53.086  0.00  0.00    -0.647 OA
ENDBRANCH  29  30
ENDBRANCH  28  29
ENDBRANCH   2  28
TORSDOF 8
ENDMDL
