MODEL 1
REMARK VINA RESULT:       3.2      0.000      0.000
REMARK  2 active torsions:
REMARK  status: ('A' for Active; 'I' for Inactive)
REMARK    1  A    between atoms: S_6  and  C_1 
REMARK    2  A    between atoms: C_7  and  S_6 
ROOT
ATOM      1  C   UNL d   1      24.661  12.580  -2.646  0.00  0.00     0.194 A 
ATOM      2  N   UNL d   1      24.456  11.926  -2.145  0.00  0.00    -0.220 NA
ATOM      3  N   UNL d   1      24.636  13.262  -2.186  0.00  0.00    -0.220 NA
ATOM      4  C   UNL d   1      24.315  12.222  -1.406  0.00  0.00     0.101 A 
ATOM      5  C   UNL d   1      24.428  13.066  -1.432  0.00  0.00     0.101 A 
ATOM      6  C   UNL d   1      24.094  11.885  -0.671  0.00  0.00     0.021 A 
ATOM      7  C   UNL d   1      24.321  13.517  -0.751  0.00  0.00     0.021 A 
ATOM      8  C   UNL d   1      24.103  13.153  -0.044  0.00  0.00     0.002 A 
ATOM      9  C   UNL d   1      23.993  12.334  -0.018  0.00  0.00     0.002 A 
ENDROOT
BRANCH   1  10
ATOM     10  S   UNL d   1      24.768  12.127  -3.327  0.00  0.00    -0.049 SA
BRANCH  10  11
ATOM     11  C   UNL d   1      24.756  12.489  -4.069  0.00  0.00     0.032 C 
ATOM     12  C   UNL d   1      24.726  12.029  -4.753  0.00  0.00     0.007 C 
ATOM     13  C   UNL d   1      24.768  13.272  -4.330  0.00  0.00     0.007 C 
ENDBRANCH  10  11
ENDBRANCH   1  10
TORSDOF 2
ENDMDL
MODEL 2
REMARK VINA RESULT:       3.6     10.611     10.762
REMARK  2 active torsions:
REMARK  status: ('A' for Active; 'I' for Inactive)
REMARK    1  A    between atoms: S_6  and  C_1 
REMARK    2  A    between atoms: C_7  and  S_6 
ROOT
ATOM      1  C   UNL d   1      13.615  12.001  -2.687  0.00  0.00     0.194 A 
ATOM      2  N   UNL d   1      13.163  11.794  -1.999  0.00  0.00    -0.220 NA
ATOM      3  N   UNL d   1      14.367  12.217  -2.433  0.00  0.00    -0.220 NA
ATOM      4  C   UNL d   1      13.643  11.887  -1.356  0.00  0.00     0.101 A 
ATOM      5  C   UNL d   1      14.404  12.154  -1.631  0.00  0.00     0.101 A 
ATOM      6  C   UNL d   1      13.546  11.780  -0.530  0.00  0.00     0.021 A 
ATOM      7  C   UNL d   1      15.010  12.298  -1.090  0.00  0.00     0.021 A 
ATOM      8  C   UNL d   1      14.880  12.182  -0.283  0.00  0.00     0.002 A 
ATOM      9  C   UNL d   1      14.143  11.923  -0.017  0.00  0.00     0.002 A 
ENDROOT
BRANCH   1  10
ATOM     10  S   UNL d   1      13.008  11.857  -3.227  0.00  0.00    -0.049 SA
BRANCH  10  11
ATOM     11  C   UNL d   1      13.016  12.230  -3.964  0.00  0.00     0.032 C 
ATOM     12  C   UNL d   1      13.134  11.786  -4.650  0.00  0.00     0.007 C 
ATOM     13  C   UNL d   1      12.927  13.010  -4.218  0.00  0.00     0.007 C 
ENDBRANCH  10  11
ENDBRANCH   1  10
TORSDOF 2
ENDMDL
