MODEL 1
REMARK VINA RESULT:       2.1      0.000      0.000
REMARK  4 active torsions:
REMARK  status: ('A' for Active; 'I' for Inactive)
REMARK    1  A    between atoms: N_7  and  C_1 
REMARK    2  A    between atoms: C_11  and  C_2 
REMARK       I    between atoms: C_8  and  N_7 
REMARK    3  A    between atoms: C_13  and  C_8 
REMARK    4  A    between atoms: N_9  and  C_13 
ROOT
ATOM      1  C   UNL d   1      58.192   0.373  31.404  0.00  0.00     0.142 A 
ATOM      2  C   UNL d   1      58.624   0.284  30.715  0.00  0.00     0.024 A 
ATOM      3  C   UNL d   1      58.581   0.567  32.105  0.00  0.00     0.297 A 
ATOM      4  C   UNL d   1      59.439   0.383  30.708  0.00  0.00     0.020 A 
ATOM      5  N   UNL d   1      59.402   0.672  32.117  0.00  0.00    -0.207 NA
ATOM      6  C   UNL d   1      59.828   0.577  31.409  0.00  0.00     0.085 A 
ATOM      7  C   UNL d   1      59.867   0.294  30.022  0.00  0.00     0.008 A 
ATOM      8  O   UNL d   1      58.153   0.662  32.814  0.00  0.00    -0.264 OA
ATOM      9  C   UNL d   1      60.646   0.682  31.424  0.00  0.00     0.020 A 
ATOM     10  C   UNL d   1      60.679   0.393  30.016  0.00  0.00     0.035 A 
ATOM     11  C   UNL d   1      61.068   0.587  30.717  0.00  0.00     0.008 A 
ATOM     12 BR   UNL d   1      61.132   0.304  29.316  0.00  0.00    -0.049 Br
ENDROOT
BRANCH   1  13
ATOM     13  N   UNL d   1      57.362   0.274  31.419  0.00  0.00    -0.202 NA
ATOM     14  C   UNL d   1      57.009  -0.083  32.097  0.00  0.00     0.297 C 
ATOM     15  O   UNL d   1      57.404  -0.269  32.587  0.00  0.00    -0.264 OA
BRANCH  14  16
ATOM     16  C   UNL d   1      56.195  -0.181  32.112  0.00  0.00     0.144 C 
BRANCH  16  17
ATOM     17  N   UNL d   1      55.798  -0.135  32.846  0.00  0.00    -0.295 N 
ATOM     18  C   UNL d   1      55.613  -0.823  33.252  0.00  0.00     0.107 A 
ATOM     19  C   UNL d   1      55.213  -0.776  33.992  0.00  0.00     0.142 A 
ATOM     20  O   UNL d   1      55.010  -0.043  34.305  0.00  0.00    -0.300 OA
ATOM     21  C   UNL d   1      55.208   0.664  33.874  0.00  0.00     0.142 A 
ATOM     22  C   UNL d   1      55.598   0.605  33.153  0.00  0.00     0.107 A 
ENDBRANCH  16  17
ENDBRANCH  14  16
ENDBRANCH   1  13
BRANCH   2  23
ATOM     23  C   UNL d   1      58.226   0.085  29.999  0.00  0.00     0.002 A 
ATOM     24  C   UNL d   1      57.980   0.681  29.489  0.00  0.00     0.000 A 
ATOM     25  C   UNL d   1      57.593   0.487  28.792  0.00  0.00     0.000 A 
ATOM     26  C   UNL d   1      57.440  -0.306  28.585  0.00  0.00     0.000 A 
ATOM     27  C   UNL d   1      57.697  -0.899  29.118  0.00  0.00     0.000 A 
ATOM     28  C   UNL d   1      58.085  -0.706  29.815  0.00  0.00     0.000 A 
ENDBRANCH   2  23
TORSDOF 4
ENDMDL
