MODEL 1
REMARK VINA RESULT:      -8.5      0.000      0.000
REMARK  3 active torsions:
REMARK  status: ('A' for Active; 'I' for Inactive)
REMARK    1  A    between atoms: C_4  and  C_1 
REMARK    2  A    between atoms: C_11  and  C_10 
REMARK    3  A    between atoms: O_20  and  C_11 
ROOT
ATOM      1  C   UNL d   1      53.205  32.558  53.852  0.00  0.00     0.004 A 
ATOM      2  C   UNL d   1      52.642  31.478  53.106  0.00  0.00     0.102 A 
ATOM      3  C   UNL d   1      53.178  31.756  53.669  0.00  0.00     0.023 A 
ATOM      4  O   UNL d   1      52.133  32.003  52.727  0.00  0.00    -0.307 OA
ATOM      5  C   UNL d   1      52.160  32.805  52.911  0.00  0.00     0.102 A 
ATOM      6  C   UNL d   1      52.696  33.083  53.474  0.00  0.00     0.023 A 
ATOM      7  C   UNL d   1      52.615  30.677  52.922  0.00  0.00     0.046 A 
ATOM      8  C   UNL d   1      53.687  31.231  54.047  0.00  0.00     0.004 A 
ATOM      9  C   UNL d   1      51.651  33.330  52.532  0.00  0.00     0.046 A 
ATOM     10  C   UNL d   1      53.126  30.148  53.302  0.00  0.00     0.105 A 
ATOM     11  C   UNL d   1      53.662  30.425  53.864  0.00  0.00     0.021 A 
ATOM     12  C   UNL d   1      52.723  33.885  53.657  0.00  0.00     0.004 A 
ATOM     13  N   UNL d   1      53.101  29.338  53.119  0.00  0.00    -0.148 N 
ATOM     14  C   UNL d   1      51.676  34.139  52.715  0.00  0.00     0.105 A 
ATOM     15  C   UNL d   1      52.212  34.417  53.278  0.00  0.00     0.021 A 
ATOM     16  N   UNL d   1      51.165  34.668  52.335  0.00  0.00    -0.148 N 
ENDROOT
BRANCH   1  17
ATOM     17  C   UNL d   1      53.741  32.836  54.415  0.00  0.00     0.005 A 
ATOM     18  C   UNL d   1      54.508  33.034  54.192  0.00  0.00     0.063 A 
ATOM     19  C   UNL d   1      55.046  33.313  54.757  0.00  0.00     0.005 A 
ATOM     20  C   UNL d   1      54.816  33.392  55.543  0.00  0.00     0.000 A 
ATOM     21  C   UNL d   1      54.045  33.193  55.770  0.00  0.00     0.000 A 
ATOM     22  C   UNL d   1      53.506  32.915  55.204  0.00  0.00     0.000 A 
BRANCH  18  23
ATOM     23  C   UNL d   1      55.079  33.092  53.564  0.00  0.00     0.296 C 
ATOM     24  O   UNL d   1      55.749  33.690  53.772  0.00  0.00    -0.259 OA
BRANCH  23  25
ATOM     25  O   UNL d   1      55.470  32.961  52.828  0.00  0.00    -0.296 OA
ATOM     26  C   UNL d   1      55.939  33.587  52.267  0.00  0.00     0.185 C 
ENDBRANCH  23  25
ENDBRANCH  18  23
ENDBRANCH   1  17
TORSDOF 3
ENDMDL
MODEL 2
REMARK VINA RESULT:      -8.2      0.930      1.594
REMARK  3 active torsions:
REMARK  status: ('A' for Active; 'I' for Inactive)
REMARK    1  A    between atoms: C_4  and  C_1 
REMARK    2  A    between atoms: C_11  and  C_10 
REMARK    3  A    between atoms: O_20  and  C_11 
ROOT
ATOM      1  C   UNL d   1      53.419  32.528  53.311  0.00  0.00     0.004 A 
ATOM      2  C   UNL d   1      52.551  31.401  53.189  0.00  0.00     0.102 A 
ATOM      3  C   UNL d   1      53.283  31.720  53.394  0.00  0.00     0.023 A 
ATOM      4  O   UNL d   1      51.953  31.890  52.900  0.00  0.00    -0.307 OA
ATOM      5  C   UNL d   1      52.090  32.697  52.817  0.00  0.00     0.102 A 
ATOM      6  C   UNL d   1      52.823  33.016  53.022  0.00  0.00     0.023 A 
ATOM      7  C   UNL d   1      52.414  30.593  53.272  0.00  0.00     0.046 A 
ATOM      8  C   UNL d   1      53.879  31.232  53.683  0.00  0.00     0.004 A 
ATOM      9  C   UNL d   1      51.493  33.186  52.528  0.00  0.00     0.046 A 
ATOM     10  C   UNL d   1      53.012  30.101  53.562  0.00  0.00     0.105 A 
ATOM     11  C   UNL d   1      53.745  30.420  53.767  0.00  0.00     0.021 A 
ATOM     12  C   UNL d   1      52.958  33.824  52.939  0.00  0.00     0.004 A 
ATOM     13  N   UNL d   1      52.878  29.285  53.647  0.00  0.00    -0.148 N 
ATOM     14  C   UNL d   1      51.627  34.001  52.443  0.00  0.00     0.105 A 
ATOM     15  C   UNL d   1      52.360  34.320  52.648  0.00  0.00     0.021 A 
ATOM     16  N   UNL d   1      51.029  34.493  52.153  0.00  0.00    -0.148 N 
ENDROOT
BRANCH   1  17
ATOM     17  C   UNL d   1      54.151  32.847  53.516  0.00  0.00     0.005 A 
ATOM     18  C   UNL d   1      54.260  33.187  54.258  0.00  0.00     0.063 A 
ATOM     19  C   UNL d   1      54.996  33.508  54.464  0.00  0.00     0.005 A 
ATOM     20  C   UNL d   1      55.621  33.487  53.928  0.00  0.00     0.000 A 
ATOM     21  C   UNL d   1      55.513  33.146  53.182  0.00  0.00     0.000 A 
ATOM     22  C   UNL d   1      54.777  32.825  52.976  0.00  0.00     0.000 A 
BRANCH  18  23
ATOM     23  C   UNL d   1      53.919  33.388  55.011  0.00  0.00     0.296 C 
ATOM     24  O   UNL d   1      54.451  33.104  55.708  0.00  0.00    -0.259 OA
BRANCH  23  25
ATOM     25  O   UNL d   1      53.384  33.693  55.588  0.00  0.00    -0.296 OA
ATOM     26  C   UNL d   1      53.371  34.556  56.010  0.00  0.00     0.185 C 
ENDBRANCH  23  25
ENDBRANCH  18  23
ENDBRANCH   1  17
TORSDOF 3
ENDMDL
MODEL 3
REMARK VINA RESULT:      -8.2      0.930      3.065
REMARK  3 active torsions:
REMARK  status: ('A' for Active; 'I' for Inactive)
REMARK    1  A    between atoms: C_4  and  C_1 
REMARK    2  A    between atoms: C_11  and  C_10 
REMARK    3  A    between atoms: O_20  and  C_11 
ROOT
ATOM      1  C   UNL d   1      53.420  32.527  53.311  0.00  0.00     0.004 A 
ATOM      2  C   UNL d   1      52.091  32.696  52.816  0.00  0.00     0.102 A 
ATOM      3  C   UNL d   1      52.823  33.016  53.021  0.00  0.00     0.023 A 
ATOM      4  O   UNL d   1      51.955  31.888  52.900  0.00  0.00    -0.307 OA
ATOM      5  C   UNL d   1      52.551  31.400  53.189  0.00  0.00     0.102 A 
ATOM      6  C   UNL d   1      53.284  31.720  53.394  0.00  0.00     0.023 A 
ATOM      7  C   UNL d   1      51.494  33.184  52.527  0.00  0.00     0.046 A 
ATOM      8  C   UNL d   1      52.959  33.823  52.938  0.00  0.00     0.004 A 
ATOM      9  C   UNL d   1      52.415  30.592  53.273  0.00  0.00     0.046 A 
ATOM     10  C   UNL d   1      51.630  33.996  52.442  0.00  0.00     0.105 A 
ATOM     11  C   UNL d   1      52.362  34.315  52.647  0.00  0.00     0.021 A 
ATOM     12  C   UNL d   1      53.880  31.230  53.684  0.00  0.00     0.004 A 
ATOM     13  N   UNL d   1      51.030  34.492  52.150  0.00  0.00    -0.148 N 
ATOM     14  C   UNL d   1      53.014  30.097  53.564  0.00  0.00     0.105 A 
ATOM     15  C   UNL d   1      53.746  30.416  53.770  0.00  0.00     0.021 A 
ATOM     16  N   UNL d   1      52.879  29.285  53.649  0.00  0.00    -0.148 N 
ENDROOT
BRANCH   1  17
ATOM     17  C   UNL d   1      54.152  32.846  53.516  0.00  0.00     0.005 A 
ATOM     18  C   UNL d   1      54.261  33.186  54.258  0.00  0.00     0.063 A 
ATOM     19  C   UNL d   1      54.997  33.506  54.464  0.00  0.00     0.005 A 
ATOM     20  C   UNL d   1      55.621  33.486  53.928  0.00  0.00     0.000 A 
ATOM     21  C   UNL d   1      55.514  33.145  53.182  0.00  0.00     0.000 A 
ATOM     22  C   UNL d   1      54.778  32.824  52.975  0.00  0.00     0.000 A 
BRANCH  18  23
ATOM     23  C   UNL d   1      53.920  33.386  55.011  0.00  0.00     0.296 C 
ATOM     24  O   UNL d   1      54.451  33.102  55.708  0.00  0.00    -0.259 OA
BRANCH  23  25
ATOM     25  O   UNL d   1      53.385  33.691  55.588  0.00  0.00    -0.296 OA
ATOM     26  C   UNL d   1      53.371  34.556  56.008  0.00  0.00     0.185 C 
ENDBRANCH  23  25
ENDBRANCH  18  23
ENDBRANCH   1  17
TORSDOF 3
ENDMDL
MODEL 4
REMARK VINA RESULT:      -6.2      1.611      3.199
REMARK  3 active torsions:
REMARK  status: ('A' for Active; 'I' for Inactive)
REMARK    1  A    between atoms: C_4  and  C_1 
REMARK    2  A    between atoms: C_11  and  C_10 
REMARK    3  A    between atoms: O_20  and  C_11 
ROOT
ATOM      1  C   UNL d   1      53.260  32.907  53.521  0.00  0.00     0.004 A 
ATOM      2  C   UNL d   1      53.439  31.541  53.898  0.00  0.00     0.102 A 
ATOM      3  C   UNL d   1      53.143  32.105  53.374  0.00  0.00     0.023 A 
ATOM      4  O   UNL d   1      53.852  31.778  54.570  0.00  0.00    -0.307 OA
ATOM      5  C   UNL d   1      53.969  32.580  54.716  0.00  0.00     0.102 A 
ATOM      6  C   UNL d   1      53.673  33.144  54.192  0.00  0.00     0.023 A 
ATOM      7  C   UNL d   1      53.322  30.739  53.751  0.00  0.00     0.046 A 
ATOM      8  C   UNL d   1      52.730  31.868  52.703  0.00  0.00     0.004 A 
ATOM      9  C   UNL d   1      54.382  32.817  55.388  0.00  0.00     0.046 A 
ATOM     10  C   UNL d   1      52.907  30.499  53.077  0.00  0.00     0.105 A 
ATOM     11  C   UNL d   1      52.611  31.063  52.553  0.00  0.00     0.021 A 
ATOM     12  C   UNL d   1      53.790  33.946  54.340  0.00  0.00     0.004 A 
ATOM     13  N   UNL d   1      52.787  29.691  52.925  0.00  0.00    -0.148 N 
ATOM     14  C   UNL d   1      54.502  33.625  55.540  0.00  0.00     0.105 A 
ATOM     15  C   UNL d   1      54.206  34.189  55.015  0.00  0.00     0.021 A 
ATOM     16  N   UNL d   1      54.917  33.865  56.214  0.00  0.00    -0.148 N 
ENDROOT
BRANCH   1  17
ATOM     17  C   UNL d   1      52.964  33.471  52.997  0.00  0.00     0.005 A 
ATOM     18  C   UNL d   1      52.182  33.721  53.058  0.00  0.00     0.063 A 
ATOM     19  C   UNL d   1      51.885  34.288  52.531  0.00  0.00     0.005 A 
ATOM     20  C   UNL d   1      52.371  34.602  51.945  0.00  0.00     0.000 A 
ATOM     21  C   UNL d   1      53.157  34.352  51.882  0.00  0.00     0.000 A 
ATOM     22  C   UNL d   1      53.454  33.785  52.409  0.00  0.00     0.000 A 
BRANCH  18  23
ATOM     23  C   UNL d   1      51.440  33.657  53.468  0.00  0.00     0.296 C 
ATOM     24  O   UNL d   1      51.053  34.484  53.597  0.00  0.00    -0.259 OA
BRANCH  23  25
ATOM     25  O   UNL d   1      50.774  33.322  53.863  0.00  0.00    -0.296 OA
ATOM     26  C   UNL d   1      49.863  33.630  53.889  0.00  0.00     0.185 C 
ENDBRANCH  23  25
ENDBRANCH  18  23
ENDBRANCH   1  17
TORSDOF 3
ENDMDL
MODEL 5
REMARK VINA RESULT:      -6.2      1.613      3.678
REMARK  3 active torsions:
REMARK  status: ('A' for Active; 'I' for Inactive)
REMARK    1  A    between atoms: C_4  and  C_1 
REMARK    2  A    between atoms: C_11  and  C_10 
REMARK    3  A    between atoms: O_20  and  C_11 
ROOT
ATOM      1  C   UNL d   1      53.256  32.917  53.521  0.00  0.00     0.004 A 
ATOM      2  C   UNL d   1      53.967  32.591  54.716  0.00  0.00     0.102 A 
ATOM      3  C   UNL d   1      53.671  33.155  54.192  0.00  0.00     0.023 A 
ATOM      4  O   UNL d   1      53.850  31.789  54.569  0.00  0.00    -0.307 OA
ATOM      5  C   UNL d   1      53.436  31.552  53.899  0.00  0.00     0.102 A 
ATOM      6  C   UNL d   1      53.139  32.116  53.375  0.00  0.00     0.023 A 
ATOM      7  C   UNL d   1      54.382  32.829  55.386  0.00  0.00     0.046 A 
ATOM      8  C   UNL d   1      53.788  33.956  54.338  0.00  0.00     0.004 A 
ATOM      9  C   UNL d   1      53.319  30.750  53.752  0.00  0.00     0.046 A 
ATOM     10  C   UNL d   1      54.501  33.634  55.535  0.00  0.00     0.105 A 
ATOM     11  C   UNL d   1      54.204  34.198  55.011  0.00  0.00     0.021 A 
ATOM     12  C   UNL d   1      52.725  31.877  52.704  0.00  0.00     0.004 A 
ATOM     13  N   UNL d   1      54.918  33.878  56.211  0.00  0.00    -0.148 N 
ATOM     14  C   UNL d   1      52.901  30.507  53.077  0.00  0.00     0.105 A 
ATOM     15  C   UNL d   1      52.604  31.070  52.553  0.00  0.00     0.021 A 
ATOM     16  N   UNL d   1      52.782  29.701  52.929  0.00  0.00    -0.148 N 
ENDROOT
BRANCH   1  17
ATOM     17  C   UNL d   1      52.959  33.480  52.997  0.00  0.00     0.005 A 
ATOM     18  C   UNL d   1      52.178  33.732  53.060  0.00  0.00     0.063 A 
ATOM     19  C   UNL d   1      51.880  34.299  52.534  0.00  0.00     0.005 A 
ATOM     20  C   UNL d   1      52.364  34.611  51.946  0.00  0.00     0.000 A 
ATOM     21  C   UNL d   1      53.149  34.360  51.880  0.00  0.00     0.000 A 
ATOM     22  C   UNL d   1      53.448  33.793  52.407  0.00  0.00     0.000 A 
BRANCH  18  23
ATOM     23  C   UNL d   1      51.437  33.670  53.473  0.00  0.00     0.296 C 
ATOM     24  O   UNL d   1      51.033  34.493  53.567  0.00  0.00    -0.259 OA
BRANCH  23  25
ATOM     25  O   UNL d   1      50.778  33.338  53.883  0.00  0.00    -0.296 OA
ATOM     26  C   UNL d   1      49.858  33.617  53.882  0.00  0.00     0.185 C 
ENDBRANCH  23  25
ENDBRANCH  18  23
ENDBRANCH   1  17
TORSDOF 3
ENDMDL
