MODEL 1
REMARK VINA RESULT:      55.3      0.000      0.000
REMARK  5 active torsions:
REMARK  status: ('A' for Active; 'I' for Inactive)
REMARK    1  A    between atoms: C_16  and  N_5 
REMARK    2  A    between atoms: C_15  and  C_6 
REMARK    3  A    between atoms: C_19  and  C_16 
REMARK    4  A    between atoms: O_20  and  C_17 
REMARK    5  A    between atoms: C_22  and  C_19 
ROOT
ATOM      1  O   UNL d   1      43.143 -13.823  43.935  0.00  0.00    -0.326 OA
ATOM      2  C   UNL d   1      43.101 -14.473  44.451  0.00  0.00     0.118 C 
ATOM      3  C   UNL d   1      43.181 -13.175  43.422  0.00  0.00     0.181 C 
ENDROOT
BRANCH   2   4
ATOM      4  C   UNL d   1      43.660 -14.899  44.894  0.00  0.00     0.045 C 
BRANCH   4   5
ATOM      5  C   UNL d   1      44.494 -14.915  44.930  0.00  0.00     0.086 C 
BRANCH   5   6
ATOM      6  N   UNL d   1      44.918 -15.399  44.397  0.00  0.00    -0.258 N 
ATOM      7  C   UNL d   1      44.742 -16.201  44.337  0.00  0.00     0.272 A 
ATOM      8  C   UNL d   1      45.162 -16.674  43.809  0.00  0.00     0.137 A 
ATOM      9  O   UNL d   1      44.148 -16.530  44.802  0.00  0.00    -0.266 OA
ATOM     10  C   UNL d   1      45.760 -16.347  43.340  0.00  0.00     0.192 A 
ATOM     11  C   UNL d   1      44.987 -17.479  43.747  0.00  0.00     0.205 A 
ATOM     12  N   UNL d   1      45.937 -15.550  43.398  0.00  0.00    -0.204 NA
ATOM     13  O   UNL d   1      46.175 -16.824  42.817  0.00  0.00    -0.289 OA
ATOM     14  C   UNL d   1      45.515 -15.068  43.930  0.00  0.00     0.152 A 
ATOM     15  C   UNL d   1      45.996 -17.627  42.759  0.00  0.00     0.107 A 
ATOM     16  C   UNL d   1      45.401 -17.948  43.227  0.00  0.00     0.062 A 
ATOM     17  C   UNL d   1      46.418 -18.107  42.228  0.00  0.00     0.049 A 
ATOM     18  C   UNL d   1      45.222 -18.754  43.169  0.00  0.00     0.007 A 
ATOM     19  C   UNL d   1      45.644 -19.228  42.640  0.00  0.00     0.024 A 
ATOM     20  C   UNL d   1      46.238 -18.907  42.172  0.00  0.00     0.096 A 
ATOM     21  O   UNL d   1      44.393 -17.801  44.215  0.00  0.00    -0.286 OA
BRANCH  14  22
ATOM     22  C   UNL d   1      45.694 -14.265  43.987  0.00  0.00     0.035 A 
ATOM     23  C   UNL d   1      45.775 -13.922  44.735  0.00  0.00     0.003 A 
ATOM     24  C   UNL d   1      45.953 -13.123  44.790  0.00  0.00     0.000 A 
ATOM     25  C   UNL d   1      46.050 -12.667  44.112  0.00  0.00     0.000 A 
ATOM     26  C   UNL d   1      45.968 -13.014  43.368  0.00  0.00     0.000 A 
ATOM     27  C   UNL d   1      45.790 -13.810  43.309  0.00  0.00     0.003 A 
ENDBRANCH  14  22
BRANCH  20  28
ATOM     28  O   UNL d   1      46.647 -19.386  41.653  0.00  0.00    -0.328 OA
ATOM     29  C   UNL d   1      46.472 -20.190  41.619  0.00  0.00     0.181 C 
ENDBRANCH  20  28
ENDBRANCH   5   6
ENDBRANCH   4   5
ENDBRANCH   2   4
TORSDOF 5
ENDMDL
MODEL 2
REMARK VINA RESULT:      57.5      1.489      2.296
REMARK  5 active torsions:
REMARK  status: ('A' for Active; 'I' for Inactive)
REMARK    1  A    between atoms: C_16  and  N_5 
REMARK    2  A    between atoms: C_15  and  C_6 
REMARK    3  A    between atoms: C_19  and  C_16 
REMARK    4  A    between atoms: O_20  and  C_17 
REMARK    5  A    between atoms: C_22  and  C_19 
ROOT
ATOM      1  O   UNL d   1      44.857 -13.362  41.184  0.00  0.00    -0.326 OA
ATOM      2  C   UNL d   1      45.536 -13.237  41.646  0.00  0.00     0.118 C 
ATOM      3  C   UNL d   1      44.183 -13.485  40.721  0.00  0.00     0.181 C 
ENDROOT
BRANCH   2   4
ATOM      4  C   UNL d   1      45.736 -13.393  42.438  0.00  0.00     0.045 C 
BRANCH   4   5
ATOM      5  C   UNL d   1      46.362 -13.794  42.819  0.00  0.00     0.086 C 
BRANCH   5   6
ATOM      6  N   UNL d   1      46.193 -14.471  43.280  0.00  0.00    -0.258 N 
ATOM      7  C   UNL d   1      46.336 -15.223  42.980  0.00  0.00     0.272 A 
ATOM      8  C   UNL d   1      46.168 -15.887  43.439  0.00  0.00     0.137 A 
ATOM      9  O   UNL d   1      46.647 -15.314  42.223  0.00  0.00    -0.266 OA
ATOM     10  C   UNL d   1      45.856 -15.799  44.200  0.00  0.00     0.192 A 
ATOM     11  C   UNL d   1      46.311 -16.643  43.138  0.00  0.00     0.205 A 
ATOM     12  N   UNL d   1      45.712 -15.052  44.501  0.00  0.00    -0.204 NA
ATOM     13  O   UNL d   1      45.690 -16.464  44.651  0.00  0.00    -0.289 OA
ATOM     14  C   UNL d   1      45.881 -14.379  44.041  0.00  0.00     0.152 A 
ATOM     15  C   UNL d   1      45.835 -17.216  44.347  0.00  0.00     0.107 A 
ATOM     16  C   UNL d   1      46.146 -17.299  43.590  0.00  0.00     0.062 A 
ATOM     17  C   UNL d   1      45.666 -17.888  44.808  0.00  0.00     0.049 A 
ATOM     18  C   UNL d   1      46.291 -18.055  43.285  0.00  0.00     0.007 A 
ATOM     19  C   UNL d   1      46.122 -18.720  43.745  0.00  0.00     0.024 A 
ATOM     20  C   UNL d   1      45.812 -18.637  44.502  0.00  0.00     0.096 A 
ATOM     21  O   UNL d   1      46.622 -16.726  42.382  0.00  0.00    -0.286 OA
BRANCH  14  22
ATOM     22  C   UNL d   1      45.736 -13.626  44.345  0.00  0.00     0.035 A 
ATOM     23  C   UNL d   1      46.374 -13.133  44.525  0.00  0.00     0.003 A 
ATOM     24  C   UNL d   1      46.228 -12.385  44.827  0.00  0.00     0.000 A 
ATOM     25  C   UNL d   1      45.457 -12.126  44.952  0.00  0.00     0.000 A 
ATOM     26  C   UNL d   1      44.822 -12.622  44.771  0.00  0.00     0.000 A 
ATOM     27  C   UNL d   1      44.965 -13.369  44.469  0.00  0.00     0.003 A 
ENDBRANCH  14  22
BRANCH  20  28
ATOM     28  O   UNL d   1      45.650 -19.302  44.946  0.00  0.00    -0.328 OA
ATOM     29  C   UNL d   1      46.166 -19.942  44.922  0.00  0.00     0.181 C 
ENDBRANCH  20  28
ENDBRANCH   5   6
ENDBRANCH   4   5
ENDBRANCH   2   4
TORSDOF 5
ENDMDL
