MODEL 1
REMARK VINA RESULT:      -5.8      0.000      0.000
REMARK  4 active torsions:
REMARK  status: ('A' for Active; 'I' for Inactive)
REMARK    1  A    between atoms: S_10  and  C_3 
REMARK    2  A    between atoms: C_11  and  C_7 
REMARK    3  A    between atoms: C_13  and  S_10 
REMARK    4  A    between atoms: C_14  and  C_13 
ROOT
ATOM      1  N   UNL d   1      58.579  -0.588  29.658  0.00  0.00    -0.186 N 
ATOM      2  N   UNL d   1      58.618  -1.400  29.579  0.00  0.00    -0.162 NA
ATOM      3  C   UNL d   1      58.175  -0.104  30.196  0.00  0.00     0.217 A 
ATOM      4  C   UNL d   1      58.992  -0.094  29.143  0.00  0.00     0.187 A 
ATOM      5  N   UNL d   1      58.345   0.674  30.004  0.00  0.00    -0.120 NA
ATOM      6  N   UNL d   1      58.850   0.682  29.354  0.00  0.00    -0.127 NA
ATOM      7  C   UNL d   1      59.077  -1.729  28.975  0.00  0.00     0.102 A 
ATOM      8  C   UNL d   1      59.453  -0.426  28.537  0.00  0.00     0.042 A 
ATOM      9  C   UNL d   1      59.494  -1.238  28.455  0.00  0.00     0.024 A 
ENDROOT
BRANCH   3  10
ATOM     10  S   UNL d   1      57.687  -0.342  30.817  0.00  0.00    -0.046 SA
BRANCH  10  11
ATOM     11  C   UNL d   1      57.418   0.200  31.362  0.00  0.00     0.038 C 
BRANCH  11  12
ATOM     12  C   UNL d   1      56.853  -0.015  31.910  0.00  0.00     0.007 A 
ATOM     13  C   UNL d   1      56.431   0.564  32.320  0.00  0.00     0.001 A 
ATOM     14  C   UNL d   1      55.855   0.350  32.879  0.00  0.00     0.000 A 
ATOM     15  C   UNL d   1      55.698  -0.439  33.031  0.00  0.00     0.000 A 
ATOM     16  C   UNL d   1      56.119  -1.027  32.623  0.00  0.00     0.000 A 
ATOM     17  C   UNL d   1      55.123  -0.634  33.590  0.00  0.00     0.000 C 
ATOM     18  C   UNL d   1      56.691  -0.810  32.068  0.00  0.00     0.001 A 
ENDBRANCH  11  12
ENDBRANCH  10  11
ENDBRANCH   3  10
BRANCH   7  19
ATOM     19  C   UNL d   1      59.121  -2.548  28.890  0.00  0.00     0.022 A 
ATOM     20  C   UNL d   1      59.787  -2.956  29.152  0.00  0.00     0.022 A 
ATOM     21  C   UNL d   1      59.835  -3.772  29.070  0.00  0.00     0.099 A 
ATOM     22  N   UNL d   1      59.217  -4.182  28.726  0.00  0.00    -0.242 NA
ATOM     23  C   UNL d   1      58.530  -3.769  28.455  0.00  0.00     0.099 A 
ATOM     24  C   UNL d   1      58.503  -2.954  28.547  0.00  0.00     0.022 A 
ENDBRANCH   7  19
TORSDOF 4
ENDMDL
