MODEL 1
REMARK VINA RESULT:      -8.5      0.000      0.000
REMARK  3 active torsions:
REMARK  status: ('A' for Active; 'I' for Inactive)
REMARK    1  A    between atoms: C_6  and  C_3 
REMARK    2  A    between atoms: C_9  and  C_6 
REMARK    3  A    between atoms: O_15  and  C_10 
ROOT
ATOM      1  C   UNL d   1      53.787  32.357  53.549  0.00  0.00     0.001 A 
ATOM      2  C   UNL d   1      52.903  30.998  53.206  0.00  0.00     0.094 A 
ATOM      3  C   UNL d   1      54.006  31.638  53.886  0.00  0.00     0.002 A 
ATOM      4  C   UNL d   1      53.135  32.405  53.046  0.00  0.00     0.002 A 
ATOM      5  C   UNL d   1      53.555  30.950  53.709  0.00  0.00     0.024 A 
ATOM      6  C   UNL d   1      52.701  31.752  52.874  0.00  0.00     0.024 A 
ENDROOT
BRANCH   1   7
ATOM      7  C   UNL d   1      54.258  33.005  53.751  0.00  0.00     0.011 C 
BRANCH   7   8
ATOM      8  C   UNL d   1      54.015  33.617  54.268  0.00  0.00     0.092 A 
ATOM      9  C   UNL d   1      54.343  33.845  54.959  0.00  0.00     0.288 A 
ATOM     10  N   UNL d   1      53.921  34.455  55.258  0.00  0.00    -0.163 NA
ATOM     11  O   UNL d   1      55.042  33.481  55.310  0.00  0.00    -0.265 OA
ATOM     12  C   UNL d   1      53.303  34.595  54.706  0.00  0.00     0.313 A 
ATOM     13  S   UNL d   1      53.395  34.060  54.112  0.00  0.00    -0.021 SA
ATOM     14  O   UNL d   1      52.709  35.190  54.784  0.00  0.00    -0.258 OA
ENDBRANCH   7   8
ENDBRANCH   1   7
BRANCH   2  15
ATOM     15  O   UNL d   1      52.468  30.316  53.040  0.00  0.00    -0.328 OA
ATOM     16  C   UNL d   1      52.700  29.605  53.347  0.00  0.00     0.181 C 
ENDBRANCH   2  15
TORSDOF 3
ENDMDL
MODEL 2
REMARK VINA RESULT:      -8.4      1.801      3.762
REMARK  3 active torsions:
REMARK  status: ('A' for Active; 'I' for Inactive)
REMARK    1  A    between atoms: C_6  and  C_3 
REMARK    2  A    between atoms: C_9  and  C_6 
REMARK    3  A    between atoms: O_15  and  C_10 
ROOT
ATOM      1  C   UNL d   1      53.753  32.249  53.707  0.00  0.00     0.001 A 
ATOM      2  C   UNL d   1      53.638  33.601  54.658  0.00  0.00     0.094 A 
ATOM      3  C   UNL d   1      54.402  32.481  54.159  0.00  0.00     0.002 A 
ATOM      4  C   UNL d   1      53.052  32.683  53.725  0.00  0.00     0.002 A 
ATOM      5  C   UNL d   1      54.340  33.168  54.640  0.00  0.00     0.024 A 
ATOM      6  C   UNL d   1      52.987  33.339  54.183  0.00  0.00     0.024 A 
ENDROOT
BRANCH   1   7
ATOM      7  C   UNL d   1      53.860  31.570  53.250  0.00  0.00     0.011 C 
BRANCH   7   8
ATOM      8  C   UNL d   1      53.474  30.841  53.398  0.00  0.00     0.092 A 
ATOM      9  C   UNL d   1      52.953  30.451  52.937  0.00  0.00     0.288 A 
ATOM     10  N   UNL d   1      52.732  29.778  53.306  0.00  0.00    -0.163 NA
ATOM     11  O   UNL d   1      52.683  30.728  52.165  0.00  0.00    -0.265 OA
ATOM     12  C   UNL d   1      53.152  29.771  54.035  0.00  0.00     0.313 A 
ATOM     13  S   UNL d   1      53.596  30.441  54.053  0.00  0.00    -0.021 SA
ATOM     14  O   UNL d   1      53.098  29.164  54.619  0.00  0.00    -0.258 OA
ENDBRANCH   7   8
ENDBRANCH   1   7
BRANCH   2  15
ATOM     15  O   UNL d   1      53.589  34.275  55.135  0.00  0.00    -0.328 OA
ATOM     16  C   UNL d   1      53.255  34.951  54.845  0.00  0.00     0.181 C 
ENDBRANCH   2  15
TORSDOF 3
ENDMDL
MODEL 3
REMARK VINA RESULT:      -8.3      0.646      1.429
REMARK  3 active torsions:
REMARK  status: ('A' for Active; 'I' for Inactive)
REMARK    1  A    between atoms: C_6  and  C_3 
REMARK    2  A    between atoms: C_9  and  C_6 
REMARK    3  A    between atoms: O_15  and  C_10 
ROOT
ATOM      1  C   UNL d   1      53.447  32.125  53.364  0.00  0.00     0.001 A 
ATOM      2  C   UNL d   1      52.994  30.532  53.329  0.00  0.00     0.094 A 
ATOM      3  C   UNL d   1      52.735  31.916  53.006  0.00  0.00     0.002 A 
ATOM      4  C   UNL d   1      53.932  31.551  53.702  0.00  0.00     0.002 A 
ATOM      5  C   UNL d   1      52.508  31.106  52.991  0.00  0.00     0.024 A 
ATOM      6  C   UNL d   1      53.721  30.776  53.690  0.00  0.00     0.024 A 
ENDROOT
BRANCH   1   7
ATOM      7  C   UNL d   1      53.628  32.931  53.356  0.00  0.00     0.011 C 
BRANCH   7   8
ATOM      8  C   UNL d   1      53.847  33.368  54.035  0.00  0.00     0.092 A 
ATOM      9  C   UNL d   1      53.434  33.935  54.417  0.00  0.00     0.288 A 
ATOM     10  N   UNL d   1      53.864  34.196  55.038  0.00  0.00    -0.163 NA
ATOM     11  O   UNL d   1      52.650  34.208  54.182  0.00  0.00    -0.265 OA
ATOM     12  C   UNL d   1      54.578  33.753  55.021  0.00  0.00     0.313 A 
ATOM     13  S   UNL d   1      54.529  33.256  54.390  0.00  0.00    -0.021 SA
ATOM     14  O   UNL d   1      55.212  33.834  55.573  0.00  0.00    -0.258 OA
ENDBRANCH   7   8
ENDBRANCH   1   7
BRANCH   2  15
ATOM     15  O   UNL d   1      52.760  29.739  53.307  0.00  0.00    -0.328 OA
ATOM     16  C   UNL d   1      52.987  29.236  53.898  0.00  0.00     0.181 C 
ENDBRANCH   2  15
TORSDOF 3
ENDMDL
MODEL 4
REMARK VINA RESULT:      -8.2      2.057      3.061
REMARK  3 active torsions:
REMARK  status: ('A' for Active; 'I' for Inactive)
REMARK    1  A    between atoms: C_6  and  C_3 
REMARK    2  A    between atoms: C_9  and  C_6 
REMARK    3  A    between atoms: O_15  and  C_10 
ROOT
ATOM      1  C   UNL d   1      52.209  33.211  52.969  0.00  0.00     0.001 A 
ATOM      2  C   UNL d   1      50.832  34.132  52.930  0.00  0.00     0.094 A 
ATOM      3  C   UNL d   1      52.228  33.951  52.606  0.00  0.00     0.002 A 
ATOM      4  C   UNL d   1      51.514  32.929  53.311  0.00  0.00     0.002 A 
ATOM      5  C   UNL d   1      51.527  34.415  52.588  0.00  0.00     0.024 A 
ATOM      6  C   UNL d   1      50.841  33.368  53.297  0.00  0.00     0.024 A 
ENDROOT
BRANCH   1   7
ATOM      7  C   UNL d   1      52.920  32.791  52.963  0.00  0.00     0.011 C 
BRANCH   7   8
ATOM      8  C   UNL d   1      53.386  32.650  53.644  0.00  0.00     0.092 A 
ATOM      9  C   UNL d   1      53.658  31.954  53.925  0.00  0.00     0.288 A 
ATOM     10  N   UNL d   1      54.079  32.090  54.591  0.00  0.00    -0.163 NA
ATOM     11  O   UNL d   1      53.510  31.188  53.557  0.00  0.00    -0.265 OA
ATOM     12  C   UNL d   1      54.053  32.922  54.709  0.00  0.00     0.313 A 
ATOM     13  S   UNL d   1      53.618  33.230  54.106  0.00  0.00    -0.021 SA
ATOM     14  O   UNL d   1      54.423  33.332  55.348  0.00  0.00    -0.258 OA
ENDBRANCH   7   8
ENDBRANCH   1   7
BRANCH   2  15
ATOM     15  O   UNL d   1      50.149  34.597  52.907  0.00  0.00    -0.328 OA
ATOM     16  C   UNL d   1      49.647  34.545  52.275  0.00  0.00     0.181 C 
ENDBRANCH   2  15
TORSDOF 3
ENDMDL
