MODEL 1
REMARK VINA RESULT:     -10.2      0.000      0.000
REMARK  4 active torsions:
REMARK  status: ('A' for Active; 'I' for Inactive)
REMARK    1  A    between atoms: C_8  and  N_2 
REMARK    2  A    between atoms: C_13  and  C_8 
REMARK    3  A    between atoms: O_17  and  C_13 
REMARK    4  A    between atoms: O_18  and  C_15 
ROOT
ATOM      1  C   UNL d   1      53.262  32.422  53.457  0.00  0.00     0.166 A 
ATOM      2  N   UNL d   1      53.409  33.232  53.519  0.00  0.00    -0.285 N 
ATOM      3  C   UNL d   1      52.512  32.328  53.118  0.00  0.00     0.117 A 
ATOM      4  C   UNL d   1      52.196  33.074  52.971  0.00  0.00     0.039 A 
ATOM      5  C   UNL d   1      52.750  33.632  53.218  0.00  0.00     0.067 A 
ATOM      6  N   UNL d   1      53.713  31.772  53.665  0.00  0.00    -0.225 NA
ATOM      7  N   UNL d   1      52.216  31.571  52.989  0.00  0.00    -0.241 NA
ATOM      8  C   UNL d   1      53.422  31.005  53.538  0.00  0.00     0.101 A 
ATOM      9  C   UNL d   1      52.671  30.910  53.199  0.00  0.00     0.099 A 
ATOM     10  C   UNL d   1      52.595  34.448  53.143  0.00  0.00     0.020 A 
ATOM     11  C   UNL d   1      51.489  33.322  52.650  0.00  0.00     0.027 A 
ATOM     12  C   UNL d   1      51.324  34.128  52.571  0.00  0.00     0.094 A 
ATOM     13  C   UNL d   1      51.878  34.687  52.818  0.00  0.00     0.026 A 
ATOM     14  C   UNL d   1      52.376  30.154  53.070  0.00  0.00     0.021 A 
ATOM     15  C   UNL d   1      53.863  30.350  53.741  0.00  0.00     0.021 A 
ATOM     16  C   UNL d   1      53.570  29.586  53.613  0.00  0.00     0.002 A 
ATOM     17  C   UNL d   1      52.820  29.491  53.275  0.00  0.00     0.002 A 
ENDROOT
BRANCH   2  18
ATOM     18  C   UNL d   1      54.091  33.580  53.825  0.00  0.00     0.150 C 
BRANCH  18  19
ATOM     19  C   UNL d   1      54.198  33.624  54.645  0.00  0.00     0.314 C 
ATOM     20  O   UNL d   1      53.590  33.927  55.119  0.00  0.00    -0.257 OA
BRANCH  19  21
ATOM     21  O   UNL d   1      54.893  33.371  54.979  0.00  0.00    -0.295 OA
ATOM     22  C   UNL d   1      55.319  33.868  55.487  0.00  0.00     0.185 C 
ENDBRANCH  19  21
ENDBRANCH  18  19
ENDBRANCH   2  18
BRANCH  12  23
ATOM     23  O   UNL d   1      50.608  34.367  52.246  0.00  0.00    -0.328 OA
ATOM     24  C   UNL d   1      49.968  34.552  52.732  0.00  0.00     0.181 C 
ENDBRANCH  12  23
TORSDOF 4
ENDMDL
MODEL 2
REMARK VINA RESULT:      -9.7      0.673      2.869
REMARK  4 active torsions:
REMARK  status: ('A' for Active; 'I' for Inactive)
REMARK    1  A    between atoms: C_8  and  N_2 
REMARK    2  A    between atoms: C_13  and  C_8 
REMARK    3  A    between atoms: O_17  and  C_13 
REMARK    4  A    between atoms: O_18  and  C_15 
ROOT
ATOM      1  C   UNL d   1      52.756  32.319  53.259  0.00  0.00     0.166 A 
ATOM      2  N   UNL d   1      52.569  33.119  53.184  0.00  0.00    -0.285 N 
ATOM      3  C   UNL d   1      53.352  32.252  53.830  0.00  0.00     0.117 A 
ATOM      4  C   UNL d   1      53.534  33.006  54.107  0.00  0.00     0.039 A 
ATOM      5  C   UNL d   1      53.050  33.541  53.708  0.00  0.00     0.067 A 
ATOM      6  N   UNL d   1      52.459  31.656  52.883  0.00  0.00    -0.225 NA
ATOM      7  N   UNL d   1      53.650  31.510  54.022  0.00  0.00    -0.241 NA
ATOM      8  C   UNL d   1      52.755  30.903  53.071  0.00  0.00     0.101 A 
ATOM      9  C   UNL d   1      53.351  30.836  53.642  0.00  0.00     0.099 A 
ATOM     10  C   UNL d   1      53.100  34.358  53.866  0.00  0.00     0.020 A 
ATOM     11  C   UNL d   1      54.066  33.279  54.661  0.00  0.00     0.027 A 
ATOM     12  C   UNL d   1      54.124  34.086  54.825  0.00  0.00     0.094 A 
ATOM     13  C   UNL d   1      53.641  34.622  54.426  0.00  0.00     0.026 A 
ATOM     14  C   UNL d   1      53.650  30.094  53.833  0.00  0.00     0.021 A 
ATOM     15  C   UNL d   1      52.467  30.235  52.702  0.00  0.00     0.021 A 
ATOM     16  C   UNL d   1      52.763  29.485  52.891  0.00  0.00     0.002 A 
ATOM     17  C   UNL d   1      53.360  29.418  53.462  0.00  0.00     0.002 A 
ENDROOT
BRANCH   2  18
ATOM     18  C   UNL d   1      52.004  33.441  52.677  0.00  0.00     0.150 C 
BRANCH  18  19
ATOM     19  C   UNL d   1      51.260  33.654  52.973  0.00  0.00     0.314 C 
ATOM     20  O   UNL d   1      50.842  33.118  53.449  0.00  0.00    -0.257 OA
BRANCH  19  21
ATOM     21  O   UNL d   1      50.944  34.380  52.797  0.00  0.00    -0.295 OA
ATOM     22  C   UNL d   1      50.134  34.459  52.639  0.00  0.00     0.185 C 
ENDBRANCH  19  21
ENDBRANCH  18  19
ENDBRANCH   2  18
BRANCH  12  23
ATOM     23  O   UNL d   1      54.665  34.349  55.386  0.00  0.00    -0.328 OA
ATOM     24  C   UNL d   1      55.461  34.143  55.329  0.00  0.00     0.181 C 
ENDBRANCH  12  23
TORSDOF 4
ENDMDL
MODEL 3
REMARK VINA RESULT:      -9.6      1.204      3.378
REMARK  4 active torsions:
REMARK  status: ('A' for Active; 'I' for Inactive)
REMARK    1  A    between atoms: C_8  and  N_2 
REMARK    2  A    between atoms: C_13  and  C_8 
REMARK    3  A    between atoms: O_17  and  C_13 
REMARK    4  A    between atoms: O_18  and  C_15 
ROOT
ATOM      1  C   UNL d   1      52.987  32.836  53.390  0.00  0.00     0.166 A 
ATOM      2  N   UNL d   1      53.693  32.452  53.575  0.00  0.00    -0.285 N 
ATOM      3  C   UNL d   1      52.423  32.256  53.210  0.00  0.00     0.117 A 
ATOM      4  C   UNL d   1      52.778  31.516  53.284  0.00  0.00     0.039 A 
ATOM      5  C   UNL d   1      53.562  31.638  53.509  0.00  0.00     0.067 A 
ATOM      6  N   UNL d   1      52.793  33.631  53.363  0.00  0.00    -0.225 NA
ATOM      7  N   UNL d   1      51.660  32.481  53.003  0.00  0.00    -0.241 NA
ATOM      8  C   UNL d   1      52.024  33.866  53.155  0.00  0.00     0.101 A 
ATOM      9  C   UNL d   1      51.461  33.286  52.976  0.00  0.00     0.099 A 
ATOM     10  C   UNL d   1      54.074  30.991  53.630  0.00  0.00     0.020 A 
ATOM     11  C   UNL d   1      52.501  30.757  53.178  0.00  0.00     0.027 A 
ATOM     12  C   UNL d   1      52.999  30.109  53.295  0.00  0.00     0.094 A 
ATOM     13  C   UNL d   1      53.783  30.229  53.521  0.00  0.00     0.026 A 
ATOM     14  C   UNL d   1      50.697  33.510  52.769  0.00  0.00     0.021 A 
ATOM     15  C   UNL d   1      51.820  34.655  53.126  0.00  0.00     0.021 A 
ATOM     16  C   UNL d   1      51.053  34.887  52.918  0.00  0.00     0.002 A 
ATOM     17  C   UNL d   1      50.489  34.307  52.739  0.00  0.00     0.002 A 
ENDROOT
BRANCH   2  18
ATOM     18  C   UNL d   1      54.402  32.814  53.787  0.00  0.00     0.150 C 
BRANCH  18  19
ATOM     19  C   UNL d   1      54.505  33.096  54.560  0.00  0.00     0.314 C 
ATOM     20  O   UNL d   1      54.251  32.634  55.199  0.00  0.00    -0.257 OA
BRANCH  19  21
ATOM     21  O   UNL d   1      54.850  33.819  54.686  0.00  0.00    -0.295 OA
ATOM     22  C   UNL d   1      55.332  33.944  55.349  0.00  0.00     0.185 C 
ENDBRANCH  19  21
ENDBRANCH  18  19
ENDBRANCH   2  18
BRANCH  12  23
ATOM     23  O   UNL d   1      52.709  29.348  53.186  0.00  0.00    -0.328 OA
ATOM     24  C   UNL d   1      52.692  28.812  53.813  0.00  0.00     0.181 C 
ENDBRANCH  12  23
TORSDOF 4
ENDMDL
MODEL 4
REMARK VINA RESULT:      -9.3      1.336      3.916
REMARK  4 active torsions:
REMARK  status: ('A' for Active; 'I' for Inactive)
REMARK    1  A    between atoms: C_8  and  N_2 
REMARK    2  A    between atoms: C_13  and  C_8 
REMARK    3  A    between atoms: O_17  and  C_13 
REMARK    4  A    between atoms: O_18  and  C_15 
ROOT
ATOM      1  C   UNL d   1      53.208  32.730  53.646  0.00  0.00     0.166 A 
ATOM      2  N   UNL d   1      52.675  32.377  53.125  0.00  0.00    -0.285 N 
ATOM      3  C   UNL d   1      53.622  32.126  54.032  0.00  0.00     0.117 A 
ATOM      4  C   UNL d   1      53.348  31.401  53.752  0.00  0.00     0.039 A 
ATOM      5  C   UNL d   1      52.762  31.556  53.192  0.00  0.00     0.067 A 
ATOM      6  N   UNL d   1      53.362  33.516  53.812  0.00  0.00    -0.225 NA
ATOM      7  N   UNL d   1      54.196  32.317  54.588  0.00  0.00    -0.241 NA
ATOM      8  C   UNL d   1      53.940  33.718  54.372  0.00  0.00     0.101 A 
ATOM      9  C   UNL d   1      54.355  33.114  54.758  0.00  0.00     0.099 A 
ATOM     10  C   UNL d   1      52.372  30.932  52.802  0.00  0.00     0.020 A 
ATOM     11  C   UNL d   1      53.546  30.630  53.926  0.00  0.00     0.027 A 
ATOM     12  C   UNL d   1      53.165  30.004  53.545  0.00  0.00     0.094 A 
ATOM     13  C   UNL d   1      52.579  30.158  52.985  0.00  0.00     0.026 A 
ATOM     14  C   UNL d   1      54.929  33.305  55.315  0.00  0.00     0.021 A 
ATOM     15  C   UNL d   1      54.103  34.498  54.545  0.00  0.00     0.021 A 
ATOM     16  C   UNL d   1      54.680  34.698  55.105  0.00  0.00     0.002 A 
ATOM     17  C   UNL d   1      55.094  34.093  55.491  0.00  0.00     0.002 A 
ENDROOT
BRANCH   2  18
ATOM     18  C   UNL d   1      52.148  32.769  52.627  0.00  0.00     0.150 C 
BRANCH  18  19
ATOM     19  C   UNL d   1      51.470  33.126  52.943  0.00  0.00     0.314 C 
ATOM     20  O   UNL d   1      50.967  32.683  53.430  0.00  0.00    -0.257 OA
BRANCH  19  21
ATOM     21  O   UNL d   1      51.303  33.902  52.775  0.00  0.00    -0.295 OA
ATOM     22  C   UNL d   1      50.518  34.153  52.692  0.00  0.00     0.185 C 
ENDBRANCH  19  21
ENDBRANCH  18  19
ENDBRANCH   2  18
BRANCH  12  23
ATOM     23  O   UNL d   1      53.373  29.229  53.729  0.00  0.00    -0.328 OA
ATOM     24  C   UNL d   1      53.254  28.933  54.489  0.00  0.00     0.181 C 
ENDBRANCH  12  23
TORSDOF 4
ENDMDL
MODEL 5
REMARK VINA RESULT:      -8.7      1.313      2.959
REMARK  4 active torsions:
REMARK  status: ('A' for Active; 'I' for Inactive)
REMARK    1  A    between atoms: C_8  and  N_2 
REMARK    2  A    between atoms: C_13  and  C_8 
REMARK    3  A    between atoms: O_17  and  C_13 
REMARK    4  A    between atoms: O_18  and  C_15 
ROOT
ATOM      1  C   UNL d   1      53.006  33.060  53.525  0.00  0.00     0.166 A 
ATOM      2  N   UNL d   1      52.504  32.694  52.982  0.00  0.00    -0.285 N 
ATOM      3  C   UNL d   1      52.647  33.766  53.767  0.00  0.00     0.117 A 
ATOM      4  C   UNL d   1      51.925  33.838  53.375  0.00  0.00     0.039 A 
ATOM      5  C   UNL d   1      51.837  33.176  52.891  0.00  0.00     0.067 A 
ATOM      6  N   UNL d   1      53.735  32.838  53.823  0.00  0.00    -0.225 NA
ATOM      7  N   UNL d   1      53.026  34.250  54.312  0.00  0.00    -0.241 NA
ATOM      8  C   UNL d   1      54.125  33.321  54.375  0.00  0.00     0.101 A 
ATOM      9  C   UNL d   1      53.765  34.027  54.616  0.00  0.00     0.099 A 
ATOM     10  C   UNL d   1      51.157  33.084  52.418  0.00  0.00     0.020 A 
ATOM     11  C   UNL d   1      51.342  34.407  53.391  0.00  0.00     0.027 A 
ATOM     12  C   UNL d   1      50.664  34.325  52.927  0.00  0.00     0.094 A 
ATOM     13  C   UNL d   1      50.575  33.664  52.442  0.00  0.00     0.026 A 
ATOM     14  C   UNL d   1      54.145  34.511  55.161  0.00  0.00     0.021 A 
ATOM     15  C   UNL d   1      54.852  33.109  54.678  0.00  0.00     0.021 A 
ATOM     16  C   UNL d   1      55.239  33.593  55.228  0.00  0.00     0.002 A 
ATOM     17  C   UNL d   1      54.879  34.299  55.469  0.00  0.00     0.002 A 
ENDROOT
BRANCH   2  18
ATOM     18  C   UNL d   1      52.640  31.978  52.599  0.00  0.00     0.150 C 
BRANCH  18  19
ATOM     19  C   UNL d   1      52.508  31.265  53.000  0.00  0.00     0.314 C 
ATOM     20  O   UNL d   1      51.767  31.123  53.344  0.00  0.00    -0.257 OA
BRANCH  19  21
ATOM     21  O   UNL d   1      53.099  30.712  53.053  0.00  0.00    -0.295 OA
ATOM     22  C   UNL d   1      52.915  29.904  53.096  0.00  0.00     0.185 C 
ENDBRANCH  19  21
ENDBRANCH  18  19
ENDBRANCH   2  18
BRANCH  12  23
ATOM     23  O   UNL d   1      50.082  34.906  52.951  0.00  0.00    -0.328 OA
ATOM     24  C   UNL d   1      49.368  34.800  52.551  0.00  0.00     0.181 C 
ENDBRANCH  12  23
TORSDOF 4
ENDMDL
MODEL 6
REMARK VINA RESULT:      -8.6      1.364      3.860
REMARK  4 active torsions:
REMARK  status: ('A' for Active; 'I' for Inactive)
REMARK    1  A    between atoms: C_8  and  N_2 
REMARK    2  A    between atoms: C_13  and  C_8 
REMARK    3  A    between atoms: O_17  and  C_13 
REMARK    4  A    between atoms: O_18  and  C_15 
ROOT
ATOM      1  C   UNL d   1      52.298  32.960  53.105  0.00  0.00     0.166 A 
ATOM      2  N   UNL d   1      52.913  32.413  53.162  0.00  0.00    -0.285 N 
ATOM      3  C   UNL d   1      52.460  33.577  53.634  0.00  0.00     0.117 A 
ATOM      4  C   UNL d   1      53.172  33.413  54.016  0.00  0.00     0.039 A 
ATOM      5  C   UNL d   1      53.451  32.694  53.724  0.00  0.00     0.067 A 
ATOM      6  N   UNL d   1      51.623  32.970  52.644  0.00  0.00    -0.225 NA
ATOM      7  N   UNL d   1      51.936  34.207  53.696  0.00  0.00    -0.241 NA
ATOM      8  C   UNL d   1      51.088  33.603  52.701  0.00  0.00     0.101 A 
ATOM      9  C   UNL d   1      51.250  34.220  53.230  0.00  0.00     0.099 A 
ATOM     10  C   UNL d   1      54.167  32.372  54.003  0.00  0.00     0.020 A 
ATOM     11  C   UNL d   1      53.600  33.813  54.583  0.00  0.00     0.027 A 
ATOM     12  C   UNL d   1      54.311  33.503  54.866  0.00  0.00     0.094 A 
ATOM     13  C   UNL d   1      54.591  32.784  54.575  0.00  0.00     0.026 A 
ATOM     14  C   UNL d   1      50.726  34.850  53.292  0.00  0.00     0.021 A 
ATOM     15  C   UNL d   1      50.412  33.623  52.246  0.00  0.00     0.021 A 
ATOM     16  C   UNL d   1      49.880  34.255  52.305  0.00  0.00     0.002 A 
ATOM     17  C   UNL d   1      50.042  34.872  52.833  0.00  0.00     0.002 A 
ENDROOT
BRANCH   2  18
ATOM     18  C   UNL d   1      52.980  31.711  52.735  0.00  0.00     0.150 C 
BRANCH  18  19
ATOM     19  C   UNL d   1      52.735  30.996  53.075  0.00  0.00     0.314 C 
ATOM     20  O   UNL d   1      51.939  30.899  53.285  0.00  0.00    -0.257 OA
BRANCH  19  21
ATOM     21  O   UNL d   1      53.270  30.400  53.201  0.00  0.00    -0.295 OA
ATOM     22  C   UNL d   1      53.017  29.612  53.244  0.00  0.00     0.185 C 
ENDBRANCH  19  21
ENDBRANCH  18  19
ENDBRANCH   2  18
BRANCH  12  23
ATOM     23  O   UNL d   1      54.735  33.915  55.437  0.00  0.00    -0.328 OA
ATOM     24  C   UNL d   1      55.534  34.084  55.325  0.00  0.00     0.181 C 
ENDBRANCH  12  23
TORSDOF 4
ENDMDL
