MODEL 1
REMARK VINA RESULT:      -6.1      0.000      0.000
REMARK  3 active torsions:
REMARK  status: ('A' for Active; 'I' for Inactive)
REMARK    1  A    between atoms: C_16  and  C_4 
REMARK    2  A    between atoms: C_10  and  O_14 
REMARK    3  A    between atoms: O_14  and  C_16 
ROOT
ATOM      1  C   UNL d   1     -41.776-122.690 -54.506  0.00  0.00     0.030 A 
ATOM      2  C   UNL d   1     -41.797-122.308 -53.792  0.00  0.00     0.105 A 
ATOM      3  C   UNL d   1     -41.476-122.680 -53.127  0.00  0.00     0.118 A 
ATOM      4  N   UNL d   1     -42.128-121.562 -53.712  0.00  0.00    -0.242 NA
ATOM      5  C   UNL d   1     -41.446-123.433 -54.584  0.00  0.00     0.059 A 
ATOM      6  C   UNL d   1     -41.141-123.421 -53.182  0.00  0.00     0.027 A 
ATOM      7  C   UNL d   1     -41.123-123.807 -53.916  0.00  0.00     0.013 A 
ATOM      8 CL   UNL d   1     -41.428-123.817 -55.319  0.00  0.00    -0.082 Cl
ATOM      9  C   UNL d   1     -42.094-122.324 -55.170  0.00  0.00     0.004 A 
ATOM     10  C   UNL d   1     -42.451-121.188 -54.380  0.00  0.00     0.099 A 
ATOM     11  C   UNL d   1     -42.433-121.573 -55.114  0.00  0.00     0.021 A 
ENDROOT
BRANCH   3  12
ATOM     12  O   UNL d   1     -41.493-122.295 -52.393  0.00  0.00    -0.302 OA
BRANCH  12  13
ATOM     13  C   UNL d   1     -41.504-121.905 -51.660  0.00  0.00     0.144 C 
BRANCH  13  14
ATOM     14  C   UNL d   1     -41.780-122.300 -50.986  0.00  0.00     0.142 A 
ATOM     15  N   UNL d   1     -42.541-122.333 -50.734  0.00  0.00    -0.057 NA
ATOM     16  C   UNL d   1     -42.564-122.772 -50.059  0.00  0.00     0.735 A 
ATOM     17  N   UNL d   1     -41.785-123.017 -49.892  0.00  0.00    -0.136 N 
ATOM     18  N   UNL d   1     -43.178-122.998 -49.552  0.00  0.00    -0.059 NA
ATOM     19  C   UNL d   1     -41.312-122.724 -50.464  0.00  0.00     0.120 A 
ATOM     20  C   UNL d   1     -41.636-123.479 -49.229  0.00  0.00     0.100 A 
ATOM     21  C   UNL d   1     -42.245-123.700 -48.730  0.00  0.00     0.041 A 
ATOM     22  C   UNL d   1     -43.027-123.457 -48.894  0.00  0.00     0.119 A 
ENDBRANCH  13  14
ENDBRANCH  12  13
ENDBRANCH   3  12
TORSDOF 3
ENDMDL
