MODEL 1
REMARK VINA RESULT:      65.2      0.000      0.000
REMARK  2 active torsions:
REMARK  status: ('A' for Active; 'I' for Inactive)
REMARK    1  A    between atoms: C_10  and  N_1 
REMARK    2  A    between atoms: N_11  and  C_10 
ROOT
ATOM      1  N   UNL d   1      58.436  49.592  50.947  0.00  0.00    -0.175 N 
ATOM      2  N   UNL d   1      59.203  49.546  50.119  0.00  0.00    -0.161 NA
ATOM      3  C   UNL d   1      59.959  49.562  50.442  0.00  0.00     0.102 A 
ATOM      4  C   UNL d   1      60.061  49.606  51.257  0.00  0.00     0.024 A 
ATOM      5  C   UNL d   1      58.714  49.634  51.719  0.00  0.00     0.282 A 
ATOM      6  C   UNL d   1      59.523  49.640  51.873  0.00  0.00     0.059 A 
ATOM      7  C   UNL d   1      60.879  49.612  51.412  0.00  0.00     0.002 A 
ATOM      8  C   UNL d   1      60.706  49.541  50.097  0.00  0.00     0.019 A 
ATOM      9  C   UNL d   1      61.273  49.572  50.693  0.00  0.00     0.002 A 
ATOM     10  O   UNL d   1      58.161  49.669  52.346  0.00  0.00    -0.265 OA
ATOM     11  C   UNL d   1      59.794  49.682  52.656  0.00  0.00     0.005 A 
ATOM     12  C   UNL d   1      61.148  49.653  52.182  0.00  0.00     0.000 A 
ATOM     13  C   UNL d   1      60.947  49.498  49.308  0.00  0.00     0.002 A 
ATOM     14  C   UNL d   1      62.073  49.560  50.498  0.00  0.00     0.000 A 
ATOM     15  C   UNL d   1      60.612  49.689  52.812  0.00  0.00     0.000 A 
ATOM     16  C   UNL d   1      61.754  49.486  49.116  0.00  0.00     0.000 A 
ATOM     17  C   UNL d   1      62.314  49.517  49.710  0.00  0.00     0.000 A 
ENDROOT
BRANCH   1  18
ATOM     18  C   UNL d   1      57.607  49.596  50.983  0.00  0.00     0.188 C 
BRANCH  18  19
ATOM     19  N   UNL d   1      57.168  49.288  50.350  0.00  0.00    -0.283 N 
ATOM     20  C   UNL d   1      56.748  48.589  50.448  0.00  0.00     0.108 A 
ATOM     21  C   UNL d   1      56.308  48.280  49.818  0.00  0.00     0.142 A 
ATOM     22  O   UNL d   1      56.296  48.681  49.091  0.00  0.00    -0.300 OA
ATOM     23  C   UNL d   1      56.719  49.383  48.997  0.00  0.00     0.142 A 
ATOM     24  C   UNL d   1      57.162  49.692  49.638  0.00  0.00     0.108 A 
ENDBRANCH  18  19
ENDBRANCH   1  18
TORSDOF 2
ENDMDL
