MODEL 1
REMARK VINA RESULT:      38.7      0.000      0.000
REMARK  5 active torsions:
REMARK  status: ('A' for Active; 'I' for Inactive)
REMARK    1  A    between atoms: N_5  and  S_1 
REMARK    2  A    between atoms: C_9  and  S_1 
REMARK    3  A    between atoms: C_6  and  C_2 
REMARK    4  A    between atoms: C_4  and  N_5 
REMARK    5  A    between atoms: O_20  and  C_17 
ROOT
ATOM      1  S   UNL d   1     -50.887  25.486  33.349  0.00  0.00     0.287 S 
ATOM      2  O   UNL d   1     -50.305  24.889  33.390  0.00  0.00    -0.198 OA
ATOM      3  O   UNL d   1     -51.481  26.090  33.308  0.00  0.00    -0.198 OA
ENDROOT
BRANCH   1   4
ATOM      4  N   UNL d   1     -50.289  26.081  33.356  0.00  0.00    -0.132 NA
BRANCH   4   5
ATOM      5  C   UNL d   1     -50.136  26.522  34.043  0.00  0.00     0.206 A 
ATOM      6  N   UNL d   1     -50.386  26.435  34.856  0.00  0.00    -0.216 NA
ATOM      7  C   UNL d   1     -50.037  27.064  35.276  0.00  0.00     0.161 A 
ATOM      8  C   UNL d   1     -49.600  27.518  34.775  0.00  0.00     0.061 A 
ATOM      9  S   UNL d   1     -49.643  27.210  34.021  0.00  0.00    -0.046 SA
BRANCH   7  10
ATOM     10  C   UNL d   1     -50.113  27.221  36.081  0.00  0.00     0.436 C 
ATOM     11  F   UNL d   1     -50.138  27.404  36.888  0.00  0.00    -0.165 F 
ATOM     12  F   UNL d   1     -50.836  26.954  36.523  0.00  0.00    -0.165 F 
ATOM     13  F   UNL d   1     -49.534  27.608  36.441  0.00  0.00    -0.165 F 
ENDBRANCH   7  10
ENDBRANCH   4   5
ENDBRANCH   1   4
BRANCH   1  14
ATOM     14  C   UNL d   1     -51.496  24.898  33.343  0.00  0.00     0.105 A 
ATOM     15  C   UNL d   1     -52.271  25.147  33.366  0.00  0.00     0.015 A 
ATOM     16  C   UNL d   1     -52.872  24.596  33.360  0.00  0.00     0.025 A 
ATOM     17  C   UNL d   1     -52.704  23.786  33.331  0.00  0.00     0.094 A 
ATOM     18  C   UNL d   1     -51.930  23.525  33.306  0.00  0.00     0.025 A 
ATOM     19  C   UNL d   1     -51.325  24.064  33.312  0.00  0.00     0.015 A 
BRANCH  17  20
ATOM     20  O   UNL d   1     -53.308  23.195  33.323  0.00  0.00    -0.328 OA
ATOM     21  C   UNL d   1     -54.057  23.360  33.669  0.00  0.00     0.181 C 
ENDBRANCH  17  20
ENDBRANCH   1  14
TORSDOF 5
ENDMDL
MODEL 2
REMARK VINA RESULT:      40.6      1.079      1.423
REMARK  5 active torsions:
REMARK  status: ('A' for Active; 'I' for Inactive)
REMARK    1  A    between atoms: N_5  and  S_1 
REMARK    2  A    between atoms: C_9  and  S_1 
REMARK    3  A    between atoms: C_6  and  C_2 
REMARK    4  A    between atoms: C_4  and  N_5 
REMARK    5  A    between atoms: O_20  and  C_17 
ROOT
ATOM      1  S   UNL d   1     -50.893  26.548  33.316  0.00  0.00     0.287 S 
ATOM      2  O   UNL d   1     -50.167  26.135  33.313  0.00  0.00    -0.198 OA
ATOM      3  O   UNL d   1     -51.632  26.963  33.319  0.00  0.00    -0.198 OA
ENDROOT
BRANCH   1   4
ATOM      4  N   UNL d   1     -50.484  27.284  33.306  0.00  0.00    -0.132 NA
BRANCH   4   5
ATOM      5  C   UNL d   1     -49.872  27.438  33.847  0.00  0.00     0.206 A 
ATOM      6  N   UNL d   1     -49.827  27.926  34.548  0.00  0.00    -0.216 NA
ATOM      7  C   UNL d   1     -49.053  27.840  34.843  0.00  0.00     0.161 A 
ATOM      8  C   UNL d   1     -48.635  27.338  34.372  0.00  0.00     0.061 A 
ATOM      9  S   UNL d   1     -49.110  27.081  33.761  0.00  0.00    -0.046 SA
BRANCH   7  10
ATOM     10  C   UNL d   1     -48.738  28.201  35.513  0.00  0.00     0.436 C 
ATOM     11  F   UNL d   1     -48.379  28.583  36.154  0.00  0.00    -0.165 F 
ATOM     12  F   UNL d   1     -49.154  28.134  36.295  0.00  0.00    -0.165 F 
ATOM     13  F   UNL d   1     -48.068  28.601  35.440  0.00  0.00    -0.165 F 
ENDBRANCH   7  10
ENDBRANCH   4   5
ENDBRANCH   1   4
BRANCH   1  14
ATOM     14  C   UNL d   1     -51.315  25.814  33.325  0.00  0.00     0.105 A 
ATOM     15  C   UNL d   1     -50.884  25.123  33.307  0.00  0.00     0.015 A 
ATOM     16  C   UNL d   1     -51.272  24.406  33.315  0.00  0.00     0.025 A 
ATOM     17  C   UNL d   1     -52.098  24.370  33.342  0.00  0.00     0.094 A 
ATOM     18  C   UNL d   1     -52.540  25.057  33.361  0.00  0.00     0.025 A 
ATOM     19  C   UNL d   1     -52.165  25.775  33.353  0.00  0.00     0.015 A 
BRANCH  17  20
ATOM     20  O   UNL d   1     -52.523  23.640  33.352  0.00  0.00    -0.328 OA
ATOM     21  C   UNL d   1     -53.194  23.554  33.852  0.00  0.00     0.181 C 
ENDBRANCH  17  20
ENDBRANCH   1  14
TORSDOF 5
ENDMDL
