MODEL 1
REMARK VINA RESULT:      28.3      0.000      0.000
REMARK  2 active torsions:
REMARK  status: ('A' for Active; 'I' for Inactive)
REMARK       I    between atoms: C_7  and  N_1 
REMARK    1  A    between atoms: C_6  and  C_3 
REMARK    2  A    between atoms: C_8  and  C_4 
ROOT
ATOM      1  N   UNL d   1      45.566 -17.426  42.839  0.00  0.00    -0.195 N 
ATOM      2  N   UNL d   1      45.412 -16.644  42.998  0.00  0.00    -0.163 NA
ATOM      3  C   UNL d   1      45.914 -17.764  43.505  0.00  0.00     0.091 A 
ATOM      4  C   UNL d   1      45.666 -16.495  43.770  0.00  0.00     0.104 A 
ATOM      5  C   UNL d   1      45.973 -17.187  44.075  0.00  0.00     0.040 A 
ATOM      6  C   UNL d   1      45.399 -17.835  42.110  0.00  0.00     0.281 C 
ATOM      7  O   UNL d   1      45.581 -18.612  42.027  0.00  0.00    -0.265 OA
ATOM      8  C   UNL d   1      45.048 -17.414  41.495  0.00  0.00     0.068 C 
ENDROOT
BRANCH   3   9
ATOM      9  C   UNL d   1      46.157 -18.554  43.574  0.00  0.00     0.057 A 
ATOM     10  C   UNL d   1      46.149 -18.915  44.294  0.00  0.00     0.197 A 
ATOM     11  O   UNL d   1      45.904 -18.514  44.955  0.00  0.00    -0.286 OA
ATOM     12  C   UNL d   1      46.392 -19.706  44.370  0.00  0.00     0.042 A 
ATOM     13  C   UNL d   1      46.644 -20.132  43.709  0.00  0.00     0.003 A 
ATOM     14  C   UNL d   1      46.646 -19.747  42.985  0.00  0.00     0.000 A 
ATOM     15  C   UNL d   1      46.410 -18.982  42.916  0.00  0.00     0.005 A 
ENDBRANCH   3   9
BRANCH   4  16
ATOM     16  C   UNL d   1      45.618 -15.772  44.164  0.00  0.00     0.039 A 
ATOM     17  C   UNL d   1      44.921 -15.557  44.548  0.00  0.00     0.101 A 
ATOM     18  N   UNL d   1      44.873 -14.833  44.942  0.00  0.00    -0.242 NA
ATOM     19  C   UNL d   1      45.523 -14.325  44.951  0.00  0.00     0.099 A 
ATOM     20  C   UNL d   1      46.220 -14.540  44.566  0.00  0.00     0.021 A 
ATOM     21  C   UNL d   1      46.268 -15.264  44.172  0.00  0.00     0.005 A 
ENDBRANCH   4  16
TORSDOF 2
ENDMDL
MODEL 2
REMARK VINA RESULT:      30.1      6.191      7.805
REMARK  2 active torsions:
REMARK  status: ('A' for Active; 'I' for Inactive)
REMARK       I    between atoms: C_7  and  N_1 
REMARK    1  A    between atoms: C_6  and  C_3 
REMARK    2  A    between atoms: C_8  and  C_4 
ROOT
ATOM      1  N   UNL d   1      44.261 -16.085  37.368  0.00  0.00    -0.195 N 
ATOM      2  N   UNL d   1      43.465 -16.240  37.318  0.00  0.00    -0.163 NA
ATOM      3  C   UNL d   1      44.413 -15.373  36.981  0.00  0.00     0.091 A 
ATOM      4  C   UNL d   1      43.119 -15.619  36.897  0.00  0.00     0.104 A 
ATOM      5  C   UNL d   1      43.706 -15.091  36.693  0.00  0.00     0.040 A 
ATOM      6  C   UNL d   1      44.847 -16.570  37.752  0.00  0.00     0.281 C 
ATOM      7  O   UNL d   1      45.619 -16.350  37.760  0.00  0.00    -0.265 OA
ATOM      8  C   UNL d   1      44.602 -17.268  38.114  0.00  0.00     0.068 C 
ENDROOT
BRANCH   3   9
ATOM      9  C   UNL d   1      45.157 -15.015  36.903  0.00  0.00     0.057 A 
ATOM     10  C   UNL d   1      45.309 -14.321  37.284  0.00  0.00     0.197 A 
ATOM     11  O   UNL d   1      44.742 -13.967  37.742  0.00  0.00    -0.286 OA
ATOM     12  C   UNL d   1      46.053 -13.957  37.210  0.00  0.00     0.042 A 
ATOM     13  C   UNL d   1      46.644 -14.301  36.747  0.00  0.00     0.003 A 
ATOM     14  C   UNL d   1      46.469 -15.007  36.369  0.00  0.00     0.000 A 
ATOM     15  C   UNL d   1      45.749 -15.356  36.442  0.00  0.00     0.005 A 
ENDBRANCH   3   9
BRANCH   4  16
ATOM     16  C   UNL d   1      42.318 -15.546  36.714  0.00  0.00     0.039 A 
ATOM     17  C   UNL d   1      41.863 -16.220  36.577  0.00  0.00     0.101 A 
ATOM     18  N   UNL d   1      41.061 -16.148  36.395  0.00  0.00    -0.242 NA
ATOM     19  C   UNL d   1      40.715 -15.399  36.349  0.00  0.00     0.099 A 
ATOM     20  C   UNL d   1      41.171 -14.725  36.486  0.00  0.00     0.021 A 
ATOM     21  C   UNL d   1      41.973 -14.798  36.669  0.00  0.00     0.005 A 
ENDBRANCH   4  16
TORSDOF 2
ENDMDL
