MODEL 1
REMARK VINA RESULT:     -11.6      0.000      0.000
REMARK  4 active torsions:
REMARK  status: ('A' for Active; 'I' for Inactive)
REMARK    1  A    between atoms: N_7  and  C_1 
REMARK    2  A    between atoms: C_8  and  C_4 
REMARK    3  A    between atoms: C_10  and  N_7 
REMARK    4  A    between atoms: C_12  and  C_8 
ROOT
ATOM      1  C   UNL d   1      52.648  33.496  53.536  0.00  0.00     0.184 A 
ATOM      2  N   UNL d   1      52.397  32.830  53.113  0.00  0.00    -0.129 NA
ATOM      3  N   UNL d   1      52.810  32.118  53.183  0.00  0.00    -0.147 NA
ATOM      4  C   UNL d   1      53.475  32.063  53.673  0.00  0.00     0.103 A 
ATOM      5  C   UNL d   1      53.311  33.440  54.024  0.00  0.00     0.039 A 
ATOM      6  C   UNL d   1      53.724  32.728  54.094  0.00  0.00     0.022 A 
ATOM      7  C   UNL d   1      53.562  34.106  54.447  0.00  0.00     0.003 A 
ATOM      8  C   UNL d   1      54.391  32.678  54.587  0.00  0.00     0.002 A 
ATOM      9  C   UNL d   1      54.639  33.342  55.006  0.00  0.00     0.000 A 
ATOM     10  C   UNL d   1      54.224  34.058  54.936  0.00  0.00     0.000 A 
ENDROOT
BRANCH   1  11
ATOM     11  N   UNL d   1      52.241  34.212  53.472  0.00  0.00    -0.225 NA
BRANCH  11  12
ATOM     12  C   UNL d   1      51.562  34.252  53.006  0.00  0.00     0.083 A 
ATOM     13  C   UNL d   1      50.825  34.216  53.359  0.00  0.00     0.020 A 
ATOM     14  C   UNL d   1      50.142  34.255  52.904  0.00  0.00     0.013 A 
ATOM     15  C   UNL d   1      50.199  34.332  52.076  0.00  0.00     0.058 A 
ATOM     16  C   UNL d   1      50.945  34.368  51.723  0.00  0.00     0.013 A 
ATOM     17 CL   UNL d   1      49.513  34.372  51.614  0.00  0.00    -0.082 Cl
ATOM     18  C   UNL d   1      51.629  34.328  52.188  0.00  0.00     0.020 A 
ENDBRANCH  11  12
ENDBRANCH   1  11
BRANCH   4  19
ATOM     19  C   UNL d   1      53.888  31.350  53.743  0.00  0.00     0.021 C 
BRANCH  19  20
ATOM     20  C   UNL d   1      53.491  30.633  53.654  0.00  0.00     0.005 A 
ATOM     21  C   UNL d   1      53.247  30.388  52.906  0.00  0.00     0.021 A 
ATOM     22  C   UNL d   1      52.850  29.671  52.818  0.00  0.00     0.099 A 
ATOM     23  N   UNL d   1      52.698  29.198  53.478  0.00  0.00    -0.242 NA
ATOM     24  C   UNL d   1      52.949  29.451  54.233  0.00  0.00     0.099 A 
ATOM     25  C   UNL d   1      53.345  30.170  54.312  0.00  0.00     0.021 A 
ENDBRANCH  19  20
ENDBRANCH   4  19
TORSDOF 4
ENDMDL
MODEL 2
REMARK VINA RESULT:     -10.5      1.513      4.010
REMARK  4 active torsions:
REMARK  status: ('A' for Active; 'I' for Inactive)
REMARK    1  A    between atoms: N_7  and  C_1 
REMARK    2  A    between atoms: C_8  and  C_4 
REMARK    3  A    between atoms: C_10  and  N_7 
REMARK    4  A    between atoms: C_12  and  C_8 
ROOT
ATOM      1  C   UNL d   1      53.565  32.335  53.724  0.00  0.00     0.184 A 
ATOM      2  N   UNL d   1      52.935  32.328  53.186  0.00  0.00    -0.129 NA
ATOM      3  N   UNL d   1      52.496  33.016  53.059  0.00  0.00    -0.147 NA
ATOM      4  C   UNL d   1      52.679  33.714  53.465  0.00  0.00     0.103 A 
ATOM      5  C   UNL d   1      53.746  33.030  54.127  0.00  0.00     0.039 A 
ATOM      6  C   UNL d   1      53.306  33.718  54.000  0.00  0.00     0.022 A 
ATOM      7  C   UNL d   1      54.376  33.037  54.665  0.00  0.00     0.003 A 
ATOM      8  C   UNL d   1      53.494  34.416  54.410  0.00  0.00     0.002 A 
ATOM      9  C   UNL d   1      54.121  34.420  54.945  0.00  0.00     0.000 A 
ATOM     10  C   UNL d   1      54.563  33.728  55.073  0.00  0.00     0.000 A 
ENDROOT
BRANCH   1  11
ATOM     11  N   UNL d   1      54.010  31.651  53.856  0.00  0.00    -0.225 NA
BRANCH  11  12
ATOM     12  C   UNL d   1      53.658  30.912  53.755  0.00  0.00     0.083 A 
ATOM     13  C   UNL d   1      53.572  30.602  53.003  0.00  0.00     0.020 A 
ATOM     14  C   UNL d   1      53.223  29.867  52.892  0.00  0.00     0.013 A 
ATOM     15  C   UNL d   1      52.954  29.432  53.550  0.00  0.00     0.058 A 
ATOM     16  C   UNL d   1      53.044  29.748  54.308  0.00  0.00     0.013 A 
ATOM     17 CL   UNL d   1      52.602  28.690  53.442  0.00  0.00    -0.082 Cl
ATOM     18  C   UNL d   1      53.396  30.489  54.413  0.00  0.00     0.020 A 
ENDBRANCH  11  12
ENDBRANCH   1  11
BRANCH   4  19
ATOM     19  C   UNL d   1      52.238  34.402  53.338  0.00  0.00     0.021 C 
BRANCH  19  20
ATOM     20  C   UNL d   1      51.532  34.368  52.914  0.00  0.00     0.005 A 
ATOM     21  C   UNL d   1      50.813  34.334  53.316  0.00  0.00     0.021 A 
ATOM     22  C   UNL d   1      50.106  34.299  52.892  0.00  0.00     0.099 A 
ATOM     23  N   UNL d   1      50.119  34.299  52.066  0.00  0.00    -0.242 NA
ATOM     24  C   UNL d   1      50.850  34.334  51.664  0.00  0.00     0.099 A 
ATOM     25  C   UNL d   1      51.552  34.368  52.097  0.00  0.00     0.021 A 
ENDBRANCH  19  20
ENDBRANCH   4  19
TORSDOF 4
ENDMDL
MODEL 3
REMARK VINA RESULT:     -10.2      1.144      2.923
REMARK  4 active torsions:
REMARK  status: ('A' for Active; 'I' for Inactive)
REMARK    1  A    between atoms: N_7  and  C_1 
REMARK    2  A    between atoms: C_8  and  C_4 
REMARK    3  A    between atoms: C_10  and  N_7 
REMARK    4  A    between atoms: C_12  and  C_8 
ROOT
ATOM      1  C   UNL d   1      52.425  32.503  52.885  0.00  0.00     0.184 A 
ATOM      2  N   UNL d   1      52.798  33.189  53.160  0.00  0.00    -0.129 NA
ATOM      3  N   UNL d   1      53.498  33.131  53.595  0.00  0.00    -0.147 NA
ATOM      4  C   UNL d   1      53.831  32.391  53.760  0.00  0.00     0.103 A 
ATOM      5  C   UNL d   1      52.758  31.767  53.050  0.00  0.00     0.039 A 
ATOM      6  C   UNL d   1      53.458  31.709  53.485  0.00  0.00     0.022 A 
ATOM      7  C   UNL d   1      52.384  31.080  52.776  0.00  0.00     0.003 A 
ATOM      8  C   UNL d   1      53.788  30.964  53.648  0.00  0.00     0.002 A 
ATOM      9  C   UNL d   1      53.415  30.283  53.374  0.00  0.00     0.000 A 
ATOM     10  C   UNL d   1      52.711  30.341  52.936  0.00  0.00     0.000 A 
ENDROOT
BRANCH   1  11
ATOM     11  N   UNL d   1      51.725  32.553  52.450  0.00  0.00    -0.225 NA
BRANCH  11  12
ATOM     12  C   UNL d   1      51.215  33.189  52.571  0.00  0.00     0.083 A 
ATOM     13  C   UNL d   1      51.205  33.809  52.038  0.00  0.00     0.020 A 
ATOM     14  C   UNL d   1      50.701  34.448  52.150  0.00  0.00     0.013 A 
ATOM     15  C   UNL d   1      50.196  34.466  52.812  0.00  0.00     0.058 A 
ATOM     16  C   UNL d   1      50.209  33.838  53.348  0.00  0.00     0.013 A 
ATOM     17 CL   UNL d   1      49.686  35.109  52.928  0.00  0.00    -0.082 Cl
ATOM     18  C   UNL d   1      50.719  33.198  53.230  0.00  0.00     0.020 A 
ENDBRANCH  11  12
ENDBRANCH   1  11
BRANCH   4  19
ATOM     19  C   UNL d   1      54.532  32.333  54.195  0.00  0.00     0.021 C 
BRANCH  19  20
ATOM     20  C   UNL d   1      54.796  32.975  54.640  0.00  0.00     0.005 A 
ATOM     21  C   UNL d   1      54.497  33.100  55.398  0.00  0.00     0.021 A 
ATOM     22  C   UNL d   1      54.761  33.743  55.843  0.00  0.00     0.099 A 
ATOM     23  N   UNL d   1      55.324  34.259  55.530  0.00  0.00    -0.242 NA
ATOM     24  C   UNL d   1      55.624  34.127  54.762  0.00  0.00     0.099 A 
ATOM     25  C   UNL d   1      55.354  33.482  54.324  0.00  0.00     0.021 A 
ENDBRANCH  19  20
ENDBRANCH   4  19
TORSDOF 4
ENDMDL
