MODEL 1
REMARK VINA RESULT:      -2.5      0.000      0.000
REMARK  3 active torsions:
REMARK  status: ('A' for Active; 'I' for Inactive)
REMARK    1  A    between atoms: C_5  and  N_1 
REMARK    2  A    between atoms: C_11  and  C_3 
REMARK    3  A    between atoms: C_7  and  C_5 
ROOT
ATOM      1  N   UNL d   1      59.532  -9.746  34.083  0.00  0.00    -0.286 N 
ATOM      2  N   UNL d   1      58.707  -9.753  33.015  0.00  0.00    -0.224 NA
ATOM      3  C   UNL d   1      58.739  -9.776  33.849  0.00  0.00     0.191 A 
ATOM      4  C   UNL d   1      60.004  -9.703  33.396  0.00  0.00     0.083 A 
ATOM      5  C   UNL d   1      59.492  -9.708  32.743  0.00  0.00     0.099 A 
ATOM      6  C   UNL d   1      60.828  -9.661  33.273  0.00  0.00     0.019 A 
ATOM      7  C   UNL d   1      59.800  -9.670  31.965  0.00  0.00     0.021 A 
ATOM      8  C   UNL d   1      61.133  -9.624  32.508  0.00  0.00     0.002 A 
ATOM      9  C   UNL d   1      60.621  -9.628  31.855  0.00  0.00     0.002 A 
ENDROOT
BRANCH   1  10
ATOM     10  C   UNL d   1      59.650  -9.765  34.899  0.00  0.00     0.082 C 
BRANCH  10  11
ATOM     11  C   UNL d   1      59.874  -9.085  35.299  0.00  0.00     0.018 A 
ATOM     12  C   UNL d   1      60.510  -9.100  35.813  0.00  0.00     0.001 A 
ATOM     13  C   UNL d   1      60.735  -8.419  36.214  0.00  0.00     0.000 A 
ATOM     14  C   UNL d   1      60.922  -9.806  35.926  0.00  0.00     0.000 C 
ATOM     15  C   UNL d   1      60.320  -7.716  36.099  0.00  0.00     0.000 A 
ATOM     16  C   UNL d   1      59.679  -7.699  35.581  0.00  0.00     0.000 A 
ATOM     17  C   UNL d   1      59.457  -8.383  35.181  0.00  0.00     0.002 A 
ATOM     18  C   UNL d   1      59.261  -6.996  35.463  0.00  0.00     0.000 C 
ENDBRANCH  10  11
ENDBRANCH   1  10
BRANCH   3  19
ATOM     19  C   UNL d   1      57.928  -9.818  33.962  0.00  0.00     0.271 C 
ATOM     20  O   UNL d   1      57.415  -9.697  33.328  0.00  0.00    -0.280 OA
ENDBRANCH   3  19
TORSDOF 3
ENDMDL
MODEL 2
REMARK VINA RESULT:      -2.4      8.944     10.237
REMARK  3 active torsions:
REMARK  status: ('A' for Active; 'I' for Inactive)
REMARK    1  A    between atoms: C_5  and  N_1 
REMARK    2  A    between atoms: C_11  and  C_3 
REMARK    3  A    between atoms: C_7  and  C_5 
ROOT
ATOM      1  N   UNL d   1      58.273  -0.266  30.108  0.00  0.00    -0.286 N 
ATOM      2  N   UNL d   1      57.725  -1.408  30.574  0.00  0.00    -0.224 NA
ATOM      3  C   UNL d   1      58.255  -1.088  30.014  0.00  0.00     0.191 A 
ATOM      4  C   UNL d   1      57.753  -0.064  30.729  0.00  0.00     0.083 A 
ATOM      5  C   UNL d   1      57.419  -0.770  31.011  0.00  0.00     0.099 A 
ATOM      6  C   UNL d   1      57.537   0.663  31.077  0.00  0.00     0.019 A 
ATOM      7  C   UNL d   1      56.868  -0.752  31.642  0.00  0.00     0.021 A 
ATOM      8  C   UNL d   1      56.995   0.681  31.698  0.00  0.00     0.002 A 
ATOM      9  C   UNL d   1      56.661  -0.024  31.980  0.00  0.00     0.002 A 
ENDROOT
BRANCH   1  10
ATOM     10  C   UNL d   1      58.778   0.128  29.587  0.00  0.00     0.082 C 
BRANCH  10  11
ATOM     11  C   UNL d   1      59.543   0.312  29.816  0.00  0.00     0.018 A 
ATOM     12  C   UNL d   1      60.108   0.497  29.254  0.00  0.00     0.001 A 
ATOM     13  C   UNL d   1      60.875   0.682  29.482  0.00  0.00     0.000 A 
ATOM     14  C   UNL d   1      59.899   0.496  28.455  0.00  0.00     0.000 C 
ATOM     15  C   UNL d   1      61.080   0.681  30.281  0.00  0.00     0.000 A 
ATOM     16  C   UNL d   1      60.512   0.495  30.849  0.00  0.00     0.000 A 
ATOM     17  C   UNL d   1      59.744   0.310  30.616  0.00  0.00     0.002 A 
ATOM     18  C   UNL d   1      60.713   0.493  31.650  0.00  0.00     0.000 C 
ENDBRANCH  10  11
ENDBRANCH   1  10
BRANCH   3  19
ATOM     19  C   UNL d   1      58.463  -1.806  29.677  0.00  0.00     0.271 C 
ATOM     20  O   UNL d   1      57.888  -2.381  29.539  0.00  0.00    -0.280 OA
ENDBRANCH   3  19
TORSDOF 3
ENDMDL
MODEL 3
REMARK VINA RESULT:      -2.1      8.252      9.184
REMARK  3 active torsions:
REMARK  status: ('A' for Active; 'I' for Inactive)
REMARK    1  A    between atoms: C_5  and  N_1 
REMARK    2  A    between atoms: C_11  and  C_3 
REMARK    3  A    between atoms: C_7  and  C_5 
ROOT
ATOM      1  N   UNL d   1      58.999  -2.031  28.742  0.00  0.00    -0.286 N 
ATOM      2  N   UNL d   1      59.009  -3.378  28.827  0.00  0.00    -0.224 NA
ATOM      3  C   UNL d   1      58.541  -2.713  28.641  0.00  0.00     0.191 A 
ATOM      4  C   UNL d   1      59.760  -2.265  28.995  0.00  0.00     0.083 A 
ATOM      5  C   UNL d   1      59.760  -3.094  29.045  0.00  0.00     0.099 A 
ATOM      6  C   UNL d   1      60.452  -1.840  29.185  0.00  0.00     0.019 A 
ATOM      7  C   UNL d   1      60.451  -3.501  29.286  0.00  0.00     0.021 A 
ATOM      8  C   UNL d   1      61.133  -2.240  29.422  0.00  0.00     0.002 A 
ATOM      9  C   UNL d   1      61.133  -3.069  29.473  0.00  0.00     0.002 A 
ENDROOT
BRANCH   1  10
ATOM     10  C   UNL d   1      58.606  -1.325  28.577  0.00  0.00     0.082 C 
BRANCH  10  11
ATOM     11  C   UNL d   1      58.405  -0.813  29.184  0.00  0.00     0.018 A 
ATOM     12  C   UNL d   1      58.586  -0.018  29.129  0.00  0.00     0.001 A 
ATOM     13  C   UNL d   1      58.385   0.496  29.738  0.00  0.00     0.000 A 
ATOM     14  C   UNL d   1      58.973   0.264  28.457  0.00  0.00     0.000 C 
ATOM     15  C   UNL d   1      57.999   0.211  30.409  0.00  0.00     0.000 A 
ATOM     16  C   UNL d   1      57.815  -0.591  30.466  0.00  0.00     0.000 A 
ATOM     17  C   UNL d   1      58.019  -1.102  29.854  0.00  0.00     0.002 A 
ATOM     18  C   UNL d   1      57.429  -0.880  31.136  0.00  0.00     0.000 C 
ENDBRANCH  10  11
ENDBRANCH   1  10
BRANCH   3  19
ATOM     19  C   UNL d   1      57.864  -3.137  28.455  0.00  0.00     0.271 C 
ATOM     20  O   UNL d   1      57.873  -3.961  28.477  0.00  0.00    -0.280 OA
ENDBRANCH   3  19
TORSDOF 3
ENDMDL
MODEL 4
REMARK VINA RESULT:      -2.1      8.851      9.984
REMARK  3 active torsions:
REMARK  status: ('A' for Active; 'I' for Inactive)
REMARK    1  A    between atoms: C_5  and  N_1 
REMARK    2  A    between atoms: C_11  and  C_3 
REMARK    3  A    between atoms: C_7  and  C_5 
ROOT
ATOM      1  N   UNL d   1      55.928  -0.126  32.558  0.00  0.00    -0.286 N 
ATOM      2  N   UNL d   1      56.470  -1.325  32.260  0.00  0.00    -0.224 NA
ATOM      3  C   UNL d   1      55.910  -0.934  32.739  0.00  0.00     0.191 A 
ATOM      4  C   UNL d   1      56.500  -0.006  31.963  0.00  0.00     0.083 A 
ATOM      5  C   UNL d   1      56.831  -0.746  31.783  0.00  0.00     0.099 A 
ATOM      6  C   UNL d   1      56.767   0.674  31.559  0.00  0.00     0.019 A 
ATOM      7  C   UNL d   1      57.428  -0.811  31.200  0.00  0.00     0.021 A 
ATOM      8  C   UNL d   1      57.356   0.612  30.984  0.00  0.00     0.002 A 
ATOM      9  C   UNL d   1      57.686  -0.129  30.805  0.00  0.00     0.002 A 
ENDROOT
BRANCH   1  10
ATOM     10  C   UNL d   1      55.399   0.335  32.992  0.00  0.00     0.082 C 
BRANCH  10  11
ATOM     11  C   UNL d   1      55.517   0.450  33.795  0.00  0.00     0.018 A 
ATOM     12  C   UNL d   1      54.877   0.538  34.297  0.00  0.00     0.001 A 
ATOM     13  C   UNL d   1      54.994   0.654  35.102  0.00  0.00     0.000 A 
ATOM     14  C   UNL d   1      54.113   0.510  33.987  0.00  0.00     0.000 C 
ATOM     15  C   UNL d   1      55.759   0.682  35.408  0.00  0.00     0.000 A 
ATOM     16  C   UNL d   1      56.406   0.593  34.904  0.00  0.00     0.000 A 
ATOM     17  C   UNL d   1      56.284   0.477  34.098  0.00  0.00     0.002 A 
ATOM     18  C   UNL d   1      57.174   0.620  35.207  0.00  0.00     0.000 C 
ENDBRANCH  10  11
ENDBRANCH   1  10
BRANCH   3  19
ATOM     19  C   UNL d   1      55.653  -1.605  33.132  0.00  0.00     0.271 C 
ATOM     20  O   UNL d   1      55.411  -2.268  32.704  0.00  0.00    -0.280 OA
ENDBRANCH   3  19
TORSDOF 3
ENDMDL
MODEL 5
REMARK VINA RESULT:      -2.0      8.567      9.796
REMARK  3 active torsions:
REMARK  status: ('A' for Active; 'I' for Inactive)
REMARK    1  A    between atoms: C_5  and  N_1 
REMARK    2  A    between atoms: C_11  and  C_3 
REMARK    3  A    between atoms: C_7  and  C_5 
ROOT
ATOM      1  N   UNL d   1      58.384  -0.929  29.314  0.00  0.00    -0.286 N 
ATOM      2  N   UNL d   1      58.559   0.388  29.553  0.00  0.00    -0.224 NA
ATOM      3  C   UNL d   1      58.703  -0.228  29.009  0.00  0.00     0.191 A 
ATOM      4  C   UNL d   1      58.036  -0.755  30.053  0.00  0.00     0.083 A 
ATOM      5  C   UNL d   1      58.146   0.056  30.194  0.00  0.00     0.099 A 
ATOM      6  C   UNL d   1      57.634  -1.221  30.616  0.00  0.00     0.019 A 
ATOM      7  C   UNL d   1      57.857   0.404  30.899  0.00  0.00     0.021 A 
ATOM      8  C   UNL d   1      57.348  -0.879  31.310  0.00  0.00     0.002 A 
ATOM      9  C   UNL d   1      57.459  -0.069  31.451  0.00  0.00     0.002 A 
ENDROOT
BRANCH   1  10
ATOM     10  C   UNL d   1      58.485  -1.590  28.832  0.00  0.00     0.082 C 
BRANCH  10  11
ATOM     11  C   UNL d   1      59.075  -2.134  28.999  0.00  0.00     0.018 A 
ATOM     12  C   UNL d   1      58.960  -2.928  28.840  0.00  0.00     0.001 A 
ATOM     13  C   UNL d   1      59.550  -3.475  29.007  0.00  0.00     0.000 A 
ATOM     14  C   UNL d   1      58.245  -3.175  28.511  0.00  0.00     0.000 C 
ATOM     15  C   UNL d   1      60.264  -3.224  29.337  0.00  0.00     0.000 A 
ATOM     16  C   UNL d   1      60.382  -2.424  29.498  0.00  0.00     0.000 A 
ATOM     17  C   UNL d   1      59.787  -1.880  29.329  0.00  0.00     0.002 A 
ATOM     18  C   UNL d   1      61.095  -2.169  29.828  0.00  0.00     0.000 C 
ENDBRANCH  10  11
ENDBRANCH   1  10
BRANCH   3  19
ATOM     19  C   UNL d   1      59.097   0.235  28.460  0.00  0.00     0.271 C 
ATOM     20  O   UNL d   1      59.754   0.680  28.687  0.00  0.00    -0.280 OA
ENDBRANCH   3  19
TORSDOF 3
ENDMDL
MODEL 6
REMARK VINA RESULT:      -1.9      1.218      3.194
REMARK  3 active torsions:
REMARK  status: ('A' for Active; 'I' for Inactive)
REMARK    1  A    between atoms: C_5  and  N_1 
REMARK    2  A    between atoms: C_11  and  C_3 
REMARK    3  A    between atoms: C_7  and  C_5 
ROOT
ATOM      1  N   UNL d   1      60.059  -9.060  35.196  0.00  0.00    -0.286 N 
ATOM      2  N   UNL d   1      59.409  -8.657  36.309  0.00  0.00    -0.224 NA
ATOM      3  C   UNL d   1      59.529  -9.297  35.787  0.00  0.00     0.191 A 
ATOM      4  C   UNL d   1      60.274  -8.267  35.345  0.00  0.00     0.083 A 
ATOM      5  C   UNL d   1      59.872  -8.024  36.030  0.00  0.00     0.099 A 
ATOM      6  C   UNL d   1      60.779  -7.731  34.952  0.00  0.00     0.019 A 
ATOM      7  C   UNL d   1      59.973  -7.247  36.325  0.00  0.00     0.021 A 
ATOM      8  C   UNL d   1      60.880  -6.966  35.242  0.00  0.00     0.002 A 
ATOM      9  C   UNL d   1      60.478  -6.724  35.927  0.00  0.00     0.002 A 
ENDROOT
BRANCH   1  10
ATOM     10  C   UNL d   1      60.231  -9.640  34.636  0.00  0.00     0.082 C 
BRANCH  10  11
ATOM     11  C   UNL d   1      59.871  -9.621  33.900  0.00  0.00     0.018 A 
ATOM     12  C   UNL d   1      60.318  -9.710  33.221  0.00  0.00     0.001 A 
ATOM     13  C   UNL d   1      59.958  -9.692  32.482  0.00  0.00     0.000 A 
ATOM     14  C   UNL d   1      61.133  -9.818  33.284  0.00  0.00     0.000 C 
ATOM     15  C   UNL d   1      59.142  -9.584  32.423  0.00  0.00     0.000 A 
ATOM     16  C   UNL d   1      58.690  -9.494  33.107  0.00  0.00     0.000 A 
ATOM     17  C   UNL d   1      59.055  -9.513  33.844  0.00  0.00     0.002 A 
ATOM     18  C   UNL d   1      57.873  -9.386  33.051  0.00  0.00     0.000 C 
ENDBRANCH  10  11
ENDBRANCH   1  10
BRANCH   3  19
ATOM     19  C   UNL d   1      59.032  -9.818  36.178  0.00  0.00     0.271 C 
ATOM     20  O   UNL d   1      58.245  -9.613  36.317  0.00  0.00    -0.280 OA
ENDBRANCH   3  19
TORSDOF 3
ENDMDL
MODEL 7
REMARK VINA RESULT:      -1.4      9.022     10.578
REMARK  3 active torsions:
REMARK  status: ('A' for Active; 'I' for Inactive)
REMARK    1  A    between atoms: C_5  and  N_1 
REMARK    2  A    between atoms: C_11  and  C_3 
REMARK    3  A    between atoms: C_7  and  C_5 
ROOT
ATOM      1  N   UNL d   1      55.637   0.660  33.989  0.00  0.00    -0.286 N 
ATOM      2  N   UNL d   1      54.716   0.658  34.976  0.00  0.00    -0.224 NA
ATOM      3  C   UNL d   1      54.825   0.654  34.148  0.00  0.00     0.191 A 
ATOM      4  C   UNL d   1      56.044   0.666  34.718  0.00  0.00     0.083 A 
ATOM      5  C   UNL d   1      55.474   0.665  35.321  0.00  0.00     0.099 A 
ATOM      6  C   UNL d   1      56.854   0.674  34.917  0.00  0.00     0.019 A 
ATOM      7  C   UNL d   1      55.709   0.672  36.125  0.00  0.00     0.021 A 
ATOM      8  C   UNL d   1      57.088   0.680  35.708  0.00  0.00     0.002 A 
ATOM      9  C   UNL d   1      56.517   0.678  36.311  0.00  0.00     0.002 A 
ENDROOT
BRANCH   1  10
ATOM     10  C   UNL d   1      55.830   0.657  33.187  0.00  0.00     0.082 C 
BRANCH  10  11
ATOM     11  C   UNL d   1      56.095  -0.032  32.830  0.00  0.00     0.018 A 
ATOM     12  C   UNL d   1      56.775  -0.024  32.375  0.00  0.00     0.001 A 
ATOM     13  C   UNL d   1      57.041  -0.714  32.016  0.00  0.00     0.000 A 
ATOM     14  C   UNL d   1      57.190   0.682  32.280  0.00  0.00     0.000 C 
ATOM     15  C   UNL d   1      56.622  -1.418  32.113  0.00  0.00     0.000 A 
ATOM     16  C   UNL d   1      55.937  -1.427  32.572  0.00  0.00     0.000 A 
ATOM     17  C   UNL d   1      55.674  -0.734  32.929  0.00  0.00     0.002 A 
ATOM     18  C   UNL d   1      55.515  -2.131  32.671  0.00  0.00     0.000 C 
ENDBRANCH  10  11
ENDBRANCH   1  10
BRANCH   3  19
ATOM     19  C   UNL d   1      54.027   0.647  33.960  0.00  0.00     0.271 C 
ATOM     20  O   UNL d   1      53.466   0.479  34.541  0.00  0.00    -0.280 OA
ENDBRANCH   3  19
TORSDOF 3
ENDMDL
MODEL 8
REMARK VINA RESULT:      -1.1      8.388      9.514
REMARK  3 active torsions:
REMARK  status: ('A' for Active; 'I' for Inactive)
REMARK    1  A    between atoms: C_5  and  N_1 
REMARK    2  A    between atoms: C_11  and  C_3 
REMARK    3  A    between atoms: C_7  and  C_5 
ROOT
ATOM      1  N   UNL d   1      58.893  -1.289  29.099  0.00  0.00    -0.286 N 
ATOM      2  N   UNL d   1      58.733  -0.527  30.202  0.00  0.00    -0.224 NA
ATOM      3  C   UNL d   1      58.459  -1.205  29.799  0.00  0.00     0.191 A 
ATOM      4  C   UNL d   1      59.444  -0.662  29.059  0.00  0.00     0.083 A 
ATOM      5  C   UNL d   1      59.341  -0.197  29.738  0.00  0.00     0.099 A 
ATOM      6  C   UNL d   1      60.024  -0.450  28.498  0.00  0.00     0.019 A 
ATOM      7  C   UNL d   1      59.816   0.481  29.862  0.00  0.00     0.021 A 
ATOM      8  C   UNL d   1      60.493   0.218  28.618  0.00  0.00     0.002 A 
ATOM      9  C   UNL d   1      60.390   0.682  29.298  0.00  0.00     0.002 A 
ENDROOT
BRANCH   1  10
ATOM     10  C   UNL d   1      58.682  -1.940  28.640  0.00  0.00     0.082 C 
BRANCH  10  11
ATOM     11  C   UNL d   1      59.096  -2.645  28.709  0.00  0.00     0.018 A 
ATOM     12  C   UNL d   1      58.710  -3.360  28.617  0.00  0.00     0.001 A 
ATOM     13  C   UNL d   1      59.124  -4.066  28.686  0.00  0.00     0.000 A 
ATOM     14  C   UNL d   1      57.901  -3.365  28.455  0.00  0.00     0.000 C 
ATOM     15  C   UNL d   1      59.933  -4.057  28.848  0.00  0.00     0.000 A 
ATOM     16  C   UNL d   1      60.324  -3.336  28.940  0.00  0.00     0.000 A 
ATOM     17  C   UNL d   1      59.905  -2.631  28.871  0.00  0.00     0.002 A 
ATOM     18  C   UNL d   1      61.133  -3.323  29.103  0.00  0.00     0.000 C 
ENDBRANCH  10  11
ENDBRANCH   1  10
BRANCH   3  19
ATOM     19  C   UNL d   1      57.891  -1.407  30.354  0.00  0.00     0.271 C 
ATOM     20  O   UNL d   1      57.382  -0.832  30.654  0.00  0.00    -0.280 OA
ENDBRANCH   3  19
TORSDOF 3
ENDMDL
MODEL 9
REMARK VINA RESULT:      -0.5      9.183     10.542
REMARK  3 active torsions:
REMARK  status: ('A' for Active; 'I' for Inactive)
REMARK    1  A    between atoms: C_5  and  N_1 
REMARK    2  A    between atoms: C_11  and  C_3 
REMARK    3  A    between atoms: C_7  and  C_5 
ROOT
ATOM      1  N   UNL d   1      59.264   0.463  30.286  0.00  0.00    -0.286 N 
ATOM      2  N   UNL d   1      59.256   0.618  31.628  0.00  0.00    -0.224 NA
ATOM      3  C   UNL d   1      59.745   0.525  30.958  0.00  0.00     0.191 A 
ATOM      4  C   UNL d   1      58.468   0.516  30.532  0.00  0.00     0.083 A 
ATOM      5  C   UNL d   1      58.468   0.611  31.357  0.00  0.00     0.099 A 
ATOM      6  C   UNL d   1      57.743   0.491  30.121  0.00  0.00     0.019 A 
ATOM      7  C   UNL d   1      57.746   0.681  31.774  0.00  0.00     0.021 A 
ATOM      8  C   UNL d   1      57.030   0.560  30.530  0.00  0.00     0.002 A 
ATOM      9  C   UNL d   1      57.031   0.655  31.354  0.00  0.00     0.002 A 
ENDROOT
BRANCH   1  10
ATOM     10  C   UNL d   1      59.675   0.368  29.578  0.00  0.00     0.082 C 
BRANCH  10  11
ATOM     11  C   UNL d   1      59.813  -0.382  29.279  0.00  0.00     0.018 A 
ATOM     12  C   UNL d   1      60.516  -0.550  28.895  0.00  0.00     0.001 A 
ATOM     13  C   UNL d   1      60.656  -1.302  28.595  0.00  0.00     0.000 A 
ATOM     14  C   UNL d   1      61.083   0.044  28.812  0.00  0.00     0.000 C 
ATOM     15  C   UNL d   1      60.087  -1.893  28.680  0.00  0.00     0.000 A 
ATOM     16  C   UNL d   1      59.377  -1.726  29.067  0.00  0.00     0.000 A 
ATOM     17  C   UNL d   1      59.242  -0.971  29.366  0.00  0.00     0.002 A 
ATOM     18  C   UNL d   1      58.805  -2.315  29.154  0.00  0.00     0.000 C 
ENDBRANCH  10  11
ENDBRANCH   1  10
BRANCH   3  19
ATOM     19  C   UNL d   1      60.453   0.551  31.368  0.00  0.00     0.271 C 
ATOM     20  O   UNL d   1      60.456   0.682  32.183  0.00  0.00    -0.280 OA
ENDBRANCH   3  19
TORSDOF 3
ENDMDL
