MODEL 1
REMARK VINA RESULT:      -4.0      0.000      0.000
REMARK  4 active torsions:
REMARK  status: ('A' for Active; 'I' for Inactive)
REMARK    1  A    between atoms: C_3  and  S_1 
REMARK    2  A    between atoms: N_5  and  S_1 
REMARK    3  A    between atoms: C_11  and  N_5 
REMARK    4  A    between atoms: C_21  and  N_5 
ROOT
ATOM      1  N   UNL d   1      56.288  -0.425  33.506  0.00  0.00    -0.273 N 
ATOM      2  C   UNL d   1      57.513  -0.207  31.379  0.00  0.00     0.104 A 
ATOM      3  C   UNL d   1      56.693  -0.354  32.799  0.00  0.00     0.067 A 
ATOM      4  C   UNL d   1      57.295   0.200  32.732  0.00  0.00     0.017 A 
ATOM      5  C   UNL d   1      56.499  -0.836  32.158  0.00  0.00     0.017 A 
ATOM      6  C   UNL d   1      56.482   0.057  34.148  0.00  0.00     0.265 A 
ATOM      7  C   UNL d   1      57.707   0.275  32.020  0.00  0.00     0.014 A 
ATOM      8  C   UNL d   1      56.907  -0.763  31.450  0.00  0.00     0.014 A 
ATOM      9  C   UNL d   1      57.489   0.682  33.373  0.00  0.00     0.006 A 
ATOM     10  C   UNL d   1      57.081   0.609  34.082  0.00  0.00     0.061 A 
ATOM     11  O   UNL d   1      56.066  -0.017  34.871  0.00  0.00    -0.267 OA
ATOM     12  C   UNL d   1      55.682  -0.982  33.576  0.00  0.00     0.083 A 
ATOM     13  C   UNL d   1      55.900  -1.388  32.224  0.00  0.00     0.003 A 
ATOM     14  C   UNL d   1      55.488  -1.463  32.935  0.00  0.00     0.019 A 
ENDROOT
BRANCH   2  15
ATOM     15  S   UNL d   1      57.928  -0.129  30.665  0.00  0.00     0.271 S 
ATOM     16  O   UNL d   1      58.426   0.442  31.004  0.00  0.00    -0.200 OA
ATOM     17  O   UNL d   1      57.432  -0.701  30.320  0.00  0.00    -0.200 OA
BRANCH  15  18
ATOM     18  N   UNL d   1      58.345  -0.053  29.944  0.00  0.00    -0.231 N 
BRANCH  18  19
ATOM     19  C   UNL d   1      58.824  -0.663  29.673  0.00  0.00     0.075 A 
ATOM     20  C   UNL d   1      59.642  -0.558  29.655  0.00  0.00     0.018 A 
ATOM     21  C   UNL d   1      60.129  -1.158  29.387  0.00  0.00     0.002 A 
ATOM     22  C   UNL d   1      60.957  -1.052  29.368  0.00  0.00     0.000 C 
ATOM     23  C   UNL d   1      59.799  -1.871  29.134  0.00  0.00     0.000 A 
ATOM     24  C   UNL d   1      58.981  -1.976  29.153  0.00  0.00     0.002 A 
ATOM     25  C   UNL d   1      58.501  -1.367  29.424  0.00  0.00     0.018 A 
ENDBRANCH  18  19
BRANCH  18  26
ATOM     26  C   UNL d   1      58.276   0.637  29.499  0.00  0.00     0.092 C 
ATOM     27  C   UNL d   1      57.766   0.661  28.851  0.00  0.00     0.021 C 
ENDBRANCH  18  26
ENDBRANCH  15  18
ENDBRANCH   2  15
TORSDOF 4
ENDMDL
MODEL 2
REMARK VINA RESULT:      -1.4      1.805      4.778
REMARK  4 active torsions:
REMARK  status: ('A' for Active; 'I' for Inactive)
REMARK    1  A    between atoms: C_3  and  S_1 
REMARK    2  A    between atoms: N_5  and  S_1 
REMARK    3  A    between atoms: C_11  and  N_5 
REMARK    4  A    between atoms: C_21  and  N_5 
ROOT
ATOM      1  N   UNL d   1      59.885  -3.568  29.030  0.00  0.00    -0.273 N 
ATOM      2  C   UNL d   1      58.913  -1.370  29.578  0.00  0.00     0.104 A 
ATOM      3  C   UNL d   1      59.565  -2.838  29.213  0.00  0.00     0.067 A 
ATOM      4  C   UNL d   1      58.783  -2.679  29.016  0.00  0.00     0.017 A 
ATOM      5  C   UNL d   1      60.022  -2.265  29.592  0.00  0.00     0.017 A 
ATOM      6  C   UNL d   1      59.428  -4.141  28.651  0.00  0.00     0.265 A 
ATOM      7  C   UNL d   1      58.456  -1.943  29.199  0.00  0.00     0.014 A 
ATOM      8  C   UNL d   1      59.698  -1.533  29.774  0.00  0.00     0.014 A 
ATOM      9  C   UNL d   1      58.326  -3.251  28.638  0.00  0.00     0.006 A 
ATOM     10  C   UNL d   1      58.650  -3.983  28.455  0.00  0.00     0.061 A 
ATOM     11  O   UNL d   1      59.758  -4.887  28.465  0.00  0.00    -0.267 OA
ATOM     12  C   UNL d   1      60.671  -3.730  29.227  0.00  0.00     0.083 A 
ATOM     13  C   UNL d   1      60.800  -2.423  29.788  0.00  0.00     0.003 A 
ATOM     14  C   UNL d   1      61.128  -3.158  29.605  0.00  0.00     0.019 A 
ENDROOT
BRANCH   2  15
ATOM     15  S   UNL d   1      58.582  -0.632  29.760  0.00  0.00     0.271 S 
ATOM     16  O   UNL d   1      57.866  -0.995  29.971  0.00  0.00    -0.200 OA
ATOM     17  O   UNL d   1      59.297  -0.263  29.549  0.00  0.00    -0.200 OA
BRANCH  15  18
ATOM     18  N   UNL d   1      58.250   0.113  29.943  0.00  0.00    -0.231 N 
BRANCH  18  19
ATOM     19  C   UNL d   1      58.048   0.302  30.716  0.00  0.00     0.075 A 
ATOM     20  C   UNL d   1      57.252   0.343  30.928  0.00  0.00     0.018 A 
ATOM     21  C   UNL d   1      57.039   0.530  31.695  0.00  0.00     0.002 A 
ATOM     22  C   UNL d   1      56.234   0.572  31.911  0.00  0.00     0.000 C 
ATOM     23  C   UNL d   1      57.624   0.677  32.258  0.00  0.00     0.000 A 
ATOM     24  C   UNL d   1      58.420   0.635  32.046  0.00  0.00     0.002 A 
ATOM     25  C   UNL d   1      58.623   0.447  31.273  0.00  0.00     0.018 A 
ENDBRANCH  18  19
BRANCH  18  26
ATOM     26  C   UNL d   1      58.124   0.666  29.344  0.00  0.00     0.092 C 
ATOM     27  C   UNL d   1      58.303   0.475  28.561  0.00  0.00     0.021 C 
ENDBRANCH  18  26
ENDBRANCH  15  18
ENDBRANCH   2  15
TORSDOF 4
ENDMDL
