MODEL 1
REMARK VINA RESULT:      19.7      0.000      0.000
REMARK  3 active torsions:
REMARK  status: ('A' for Active; 'I' for Inactive)
REMARK    1  A    between atoms: S_10  and  C_6 
REMARK    2  A    between atoms: C_13  and  S_10 
REMARK    3  A    between atoms: C_14  and  C_13 
ROOT
ATOM      1  C   UNL d   1      58.765  49.707  50.580  0.00  0.00     0.141 A 
ATOM      2  O   UNL d   1      58.197  49.707  51.178  0.00  0.00    -0.303 OA
ATOM      3  C   UNL d   1      58.374  49.707  49.851  0.00  0.00     0.110 A 
ATOM      4  C   UNL d   1      57.565  49.707  50.000  0.00  0.00     0.043 A 
ATOM      5  C   UNL d   1      57.449  49.707  50.817  0.00  0.00     0.102 A 
ATOM      6  C   UNL d   1      59.585  49.707  50.607  0.00  0.00     0.137 A 
ATOM      7  N   UNL d   1      60.023  49.708  49.902  0.00  0.00    -0.215 NA
ATOM      8  N   UNL d   1      58.813  49.708  49.155  0.00  0.00    -0.222 NA
ATOM      9  C   UNL d   1      59.633  49.708  49.182  0.00  0.00     0.200 A 
ATOM     10  C   UNL d   1      56.913  49.707  49.488  0.00  0.00     0.004 A 
ATOM     11  C   UNL d   1      56.684  49.706  51.131  0.00  0.00     0.025 A 
ATOM     12  C   UNL d   1      56.147  49.707  49.802  0.00  0.00     0.000 A 
ATOM     13  C   UNL d   1      56.036  49.706  50.618  0.00  0.00     0.002 A 
ENDROOT
BRANCH   6  14
ATOM     14  S   UNL d   1      59.985  49.707  51.335  0.00  0.00    -0.065 SA
BRANCH  14  15
ATOM     15  C   UNL d   1      60.810  49.651  51.346  0.00  0.00     0.037 C 
BRANCH  15  16
ATOM     16  C   UNL d   1      61.188  49.264  51.967  0.00  0.00     0.007 C 
ATOM     17  C   UNL d   1      61.486  49.704  52.596  0.00  0.00     0.001 C 
ENDBRANCH  15  16
ENDBRANCH  14  15
ENDBRANCH   6  14
TORSDOF 3
ENDMDL
