MODEL 1
REMARK VINA RESULT:      -5.1      0.000      0.000
REMARK  5 active torsions:
REMARK  status: ('A' for Active; 'I' for Inactive)
REMARK    1  A    between atoms: N_2  and  C_1 
REMARK    2  A    between atoms: C_8  and  C_1 
REMARK    3  A    between atoms: O_5  and  N_2 
REMARK    4  A    between atoms: C_3  and  O_5 
REMARK    5  A    between atoms: C_4  and  C_3 
ROOT
ATOM      1  C   UNL d   1     -41.506-122.982 -53.022  0.00  0.00     0.319 C 
ATOM      2  O   UNL d   1     -41.180-123.816 -52.900  0.00  0.00    -0.257 OA
ENDROOT
BRANCH   1   3
ATOM      3  O   UNL d   1     -41.678-122.461 -52.294  0.00  0.00    -0.168 OA
BRANCH   3   4
ATOM      4  N   UNL d   1     -41.760-122.802 -51.548  0.00  0.00    -0.100 NA
BRANCH   4   5
ATOM      5  C   UNL d   1     -41.819-122.311 -50.888  0.00  0.00     0.228 C 
ATOM      6  N   UNL d   1     -41.581-121.513 -50.932  0.00  0.00    -0.123 N 
BRANCH   5   7
ATOM      7  C   UNL d   1     -42.116-122.621 -50.185  0.00  0.00     0.121 A 
ATOM      8  N   UNL d   1     -42.930-122.710 -50.115  0.00  0.00    -0.241 NA
ATOM      9  C   UNL d   1     -43.251-123.025 -49.405  0.00  0.00     0.099 A 
ATOM     10  C   UNL d   1     -42.739-123.239 -48.790  0.00  0.00     0.021 A 
ATOM     11  C   UNL d   1     -41.930-123.143 -48.877  0.00  0.00     0.003 A 
ATOM     12  C   UNL d   1     -41.626-122.835 -49.575  0.00  0.00     0.022 A 
ENDBRANCH   5   7
ENDBRANCH   4   5
ENDBRANCH   3   4
ENDBRANCH   1   3
BRANCH   1  13
ATOM     13  C   UNL d   1     -41.650-122.687 -53.784  0.00  0.00     0.065 A 
ATOM     14  C   UNL d   1     -42.341-122.256 -53.913  0.00  0.00     0.005 A 
ATOM     15  C   UNL d   1     -42.491-121.959 -54.668  0.00  0.00     0.000 A 
ATOM     16  C   UNL d   1     -43.183-121.520 -54.823  0.00  0.00     0.000 C 
ATOM     17  C   UNL d   1     -41.964-122.090 -55.277  0.00  0.00     0.000 A 
ATOM     18  C   UNL d   1     -41.280-122.519 -55.139  0.00  0.00     0.000 A 
ATOM     19  C   UNL d   1     -42.099-121.797 -56.049  0.00  0.00     0.000 C 
ATOM     20  C   UNL d   1     -41.125-122.817 -54.391  0.00  0.00     0.005 A 
ENDBRANCH   1  13
TORSDOF 5
ENDMDL
