MODEL 1
REMARK VINA RESULT:      -5.1      0.000      0.000
REMARK  7 active torsions:
REMARK  status: ('A' for Active; 'I' for Inactive)
REMARK    1  A    between atoms: P_4  and  C_1 
REMARK    2  A    between atoms: N_7  and  C_3 
REMARK    3  A    between atoms: C_9  and  P_4 
REMARK    4  A    between atoms: C_10  and  P_4 
REMARK    5  A    between atoms: C_11  and  C_5 
REMARK    6  A    between atoms: C_12  and  N_7 
REMARK    7  A    between atoms: C_13  and  C_12 
ROOT
ATOM      1  C   UNL d   1      53.040  33.232  53.452  0.00  0.00     0.161 A 
ATOM      2  N   UNL d   1      52.448  33.782  53.264  0.00  0.00    -0.215 NA
ATOM      3  C   UNL d   1      52.767  32.440  53.222  0.00  0.00     0.205 A 
ATOM      4  C   UNL d   1      51.819  33.395  52.931  0.00  0.00     0.184 A 
ATOM      5  O   UNL d   1      51.977  32.552  52.886  0.00  0.00    -0.270 OA
ENDROOT
BRANCH   1   6
ATOM      6  P   UNL d   1      53.704  33.210  53.745  0.00  0.00     0.195 P 
ATOM      7  O   UNL d   1      53.017  33.367  54.119  0.00  0.00    -0.305 OA
BRANCH   6   8
ATOM      8  C   UNL d   1      53.942  33.337  54.534  0.00  0.00     0.038 A 
ATOM      9  C   UNL d   1      54.070  32.699  55.027  0.00  0.00     0.004 A 
ATOM     10  C   UNL d   1      54.305  32.825  55.807  0.00  0.00     0.000 A 
ATOM     11  C   UNL d   1      54.408  33.587  56.081  0.00  0.00     0.000 A 
ATOM     12  C   UNL d   1      54.280  34.227  55.588  0.00  0.00     0.000 A 
ATOM     13  C   UNL d   1      54.045  34.100  54.808  0.00  0.00     0.004 A 
ENDBRANCH   6   8
BRANCH   6  14
ATOM     14  C   UNL d   1      54.603  33.053  53.499  0.00  0.00     0.038 A 
ATOM     15  C   UNL d   1      55.297  32.629  53.580  0.00  0.00     0.004 A 
ATOM     16  C   UNL d   1      55.939  32.819  53.135  0.00  0.00     0.000 A 
ATOM     17  C   UNL d   1      55.900  33.449  52.589  0.00  0.00     0.000 A 
ATOM     18  C   UNL d   1      55.220  33.870  52.505  0.00  0.00     0.000 A 
ATOM     19  C   UNL d   1      54.564  33.682  52.954  0.00  0.00     0.004 A 
ENDBRANCH   6  14
ENDBRANCH   1   6
BRANCH   3  20
ATOM     20  N   UNL d   1      53.298  31.901  53.384  0.00  0.00    -0.219 NA
BRANCH  20  21
ATOM     21  C   UNL d   1      53.641  31.178  53.166  0.00  0.00     0.101 C 
BRANCH  21  22
ATOM     22  C   UNL d   1      53.307  30.473  53.385  0.00  0.00     0.019 A 
ATOM     23  C   UNL d   1      52.621  30.197  53.012  0.00  0.00     0.002 A 
ATOM     24  C   UNL d   1      52.283  29.460  53.250  0.00  0.00     0.000 A 
ATOM     25  C   UNL d   1      52.628  29.012  53.849  0.00  0.00     0.000 A 
ATOM     26  C   UNL d   1      53.332  29.296  54.231  0.00  0.00     0.000 A 
ATOM     27  C   UNL d   1      53.666  30.029  53.993  0.00  0.00     0.002 A 
ENDBRANCH  21  22
ENDBRANCH  20  21
ENDBRANCH   3  20
BRANCH   4  28
ATOM     28  C   UNL d   1      51.138  33.796  52.683  0.00  0.00     0.041 A 
ATOM     29  C   UNL d   1      50.523  33.982  53.230  0.00  0.00     0.004 A 
ATOM     30  C   UNL d   1      49.843  34.390  52.953  0.00  0.00     0.000 A 
ATOM     31  C   UNL d   1      49.766  34.608  52.168  0.00  0.00     0.000 A 
ATOM     32  C   UNL d   1      50.385  34.420  51.621  0.00  0.00     0.000 A 
ATOM     33  C   UNL d   1      51.074  34.009  51.894  0.00  0.00     0.004 A 
ENDBRANCH   4  28
TORSDOF 7
ENDMDL
MODEL 2
REMARK VINA RESULT:      -3.7      0.863      3.908
REMARK  7 active torsions:
REMARK  status: ('A' for Active; 'I' for Inactive)
REMARK    1  A    between atoms: P_4  and  C_1 
REMARK    2  A    between atoms: N_7  and  C_3 
REMARK    3  A    between atoms: C_9  and  P_4 
REMARK    4  A    between atoms: C_10  and  P_4 
REMARK    5  A    between atoms: C_11  and  C_5 
REMARK    6  A    between atoms: C_12  and  N_7 
REMARK    7  A    between atoms: C_13  and  C_12 
ROOT
ATOM      1  C   UNL d   1      53.615  32.138  54.041  0.00  0.00     0.161 A 
ATOM      2  N   UNL d   1      53.769  31.387  54.360  0.00  0.00    -0.215 NA
ATOM      3  C   UNL d   1      52.914  32.086  53.532  0.00  0.00     0.205 A 
ATOM      4  C   UNL d   1      53.213  30.863  54.089  0.00  0.00     0.184 A 
ATOM      5  O   UNL d   1      52.658  31.260  53.567  0.00  0.00    -0.270 OA
ENDROOT
BRANCH   1   6
ATOM      6  P   UNL d   1      53.883  32.813  54.058  0.00  0.00     0.195 P 
ATOM      7  O   UNL d   1      54.198  32.178  53.691  0.00  0.00    -0.305 OA
BRANCH   6   8
ATOM      8  C   UNL d   1      54.577  33.118  53.710  0.00  0.00     0.038 A 
ATOM      9  C   UNL d   1      55.252  33.204  54.162  0.00  0.00     0.004 A 
ATOM     10  C   UNL d   1      55.939  33.505  53.818  0.00  0.00     0.000 A 
ATOM     11  C   UNL d   1      55.938  33.715  53.028  0.00  0.00     0.000 A 
ATOM     12  C   UNL d   1      55.263  33.628  52.576  0.00  0.00     0.000 A 
ATOM     13  C   UNL d   1      54.577  33.327  52.920  0.00  0.00     0.004 A 
ENDBRANCH   6   8
BRANCH   6  14
ATOM     14  C   UNL d   1      53.685  33.667  54.410  0.00  0.00     0.038 A 
ATOM     15  C   UNL d   1      53.543  34.464  54.301  0.00  0.00     0.004 A 
ATOM     16  C   UNL d   1      53.391  34.936  54.934  0.00  0.00     0.000 A 
ATOM     17  C   UNL d   1      53.377  34.615  55.704  0.00  0.00     0.000 A 
ATOM     18  C   UNL d   1      53.516  33.831  55.818  0.00  0.00     0.000 A 
ATOM     19  C   UNL d   1      53.671  33.346  55.180  0.00  0.00     0.004 A 
ENDBRANCH   6  14
ENDBRANCH   1   6
BRANCH   3  20
ATOM     20  N   UNL d   1      52.743  32.772  53.218  0.00  0.00    -0.219 NA
BRANCH  20  21
ATOM     21  C   UNL d   1      52.411  33.177  52.574  0.00  0.00     0.101 C 
BRANCH  21  22
ATOM     22  C   UNL d   1      51.660  33.479  52.611  0.00  0.00     0.019 A 
ATOM     23  C   UNL d   1      51.057  33.065  52.999  0.00  0.00     0.002 A 
ATOM     24  C   UNL d   1      50.278  33.391  53.031  0.00  0.00     0.000 A 
ATOM     25  C   UNL d   1      50.111  34.118  52.681  0.00  0.00     0.000 A 
ATOM     26  C   UNL d   1      50.731  34.542  52.283  0.00  0.00     0.000 A 
ATOM     27  C   UNL d   1      51.504  34.216  52.253  0.00  0.00     0.002 A 
ENDBRANCH  21  22
ENDBRANCH  20  21
ENDBRANCH   3  20
BRANCH   4  28
ATOM     28  C   UNL d   1      53.218  30.065  54.310  0.00  0.00     0.041 A 
ATOM     29  C   UNL d   1      53.214  29.456  53.727  0.00  0.00     0.004 A 
ATOM     30  C   UNL d   1      53.220  28.654  53.977  0.00  0.00     0.000 A 
ATOM     31  C   UNL d   1      53.229  28.454  54.771  0.00  0.00     0.000 A 
ATOM     32  C   UNL d   1      53.233  29.068  55.354  0.00  0.00     0.000 A 
ATOM     33  C   UNL d   1      53.228  29.879  55.108  0.00  0.00     0.004 A 
ENDBRANCH   4  28
TORSDOF 7
ENDMDL
