MODEL 1
REMARK VINA RESULT:      38.5      0.000      0.000
REMARK  6 active torsions:
REMARK  status: ('A' for Active; 'I' for Inactive)
REMARK    1  A    between atoms: N_6  and  C_1 
REMARK    2  A    between atoms: C_7  and  C_2 
REMARK       I    between atoms: C_8  and  N_6 
REMARK    3  A    between atoms: O_14  and  C_7 
REMARK    4  A    between atoms: C_10  and  C_8 
REMARK    5  A    between atoms: N_9  and  C_10 
REMARK    6  A    between atoms: C_21  and  O_14 
ROOT
ATOM      1  C   UNL d   1      14.178  13.498  -2.617  0.00  0.00     0.119 A 
ATOM      2  C   UNL d   1      14.015  12.690  -2.603  0.00  0.00     0.088 A 
ATOM      3  S   UNL d   1      13.862  13.819  -3.292  0.00  0.00    -0.068 SA
ATOM      4  C   UNL d   1      13.592  12.515  -3.281  0.00  0.00     0.013 A 
ATOM      5  C   UNL d   1      13.497  13.218  -3.710  0.00  0.00     0.031 A 
ATOM      6  C   UNL d   1      13.271  11.816  -3.586  0.00  0.00     0.001 A 
ATOM      7  C   UNL d   1      13.081  13.215  -4.440  0.00  0.00     0.006 A 
ATOM      8  C   UNL d   1      12.868  11.801  -4.288  0.00  0.00     0.000 A 
ATOM      9  C   UNL d   1      12.773  12.505  -4.718  0.00  0.00     0.001 A 
ENDROOT
BRANCH   1  10
ATOM     10  N   UNL d   1      14.595  13.909  -2.037  0.00  0.00    -0.200 NA
ATOM     11  C   UNL d   1      14.651  14.732  -2.051  0.00  0.00     0.297 C 
ATOM     12  O   UNL d   1      14.274  15.128  -2.669  0.00  0.00    -0.264 OA
BRANCH  11  13
ATOM     13  C   UNL d   1      15.073  15.125  -1.461  0.00  0.00     0.144 C 
BRANCH  13  14
ATOM     14  N   UNL d   1      14.979  15.945  -1.411  0.00  0.00    -0.295 N 
ATOM     15  C   UNL d   1      14.824  16.284  -0.670  0.00  0.00     0.107 A 
ATOM     16  C   UNL d   1      14.729  17.102  -0.613  0.00  0.00     0.142 A 
ATOM     17  O   UNL d   1      14.785  17.578  -1.269  0.00  0.00    -0.300 OA
ATOM     18  C   UNL d   1      14.940  17.239  -2.010  0.00  0.00     0.142 A 
ATOM     19  C   UNL d   1      15.034  16.437  -2.069  0.00  0.00     0.107 A 
ENDBRANCH  13  14
ENDBRANCH  11  13
ENDBRANCH   1  10
BRANCH   2  20
ATOM     20  C   UNL d   1      14.233  12.138  -2.014  0.00  0.00     0.302 C 
ATOM     21  O   UNL d   1      14.987  11.782  -2.058  0.00  0.00    -0.259 OA
BRANCH  20  22
ATOM     22  O   UNL d   1      13.711  11.957  -1.410  0.00  0.00    -0.271 OA
BRANCH  22  23
ATOM     23  C   UNL d   1      13.988  11.803  -0.656  0.00  0.00     0.126 C 
ATOM     24  C   UNL d   1      13.465  11.788  -0.022  0.00  0.00     0.029 C 
ENDBRANCH  22  23
ENDBRANCH  20  22
ENDBRANCH   2  20
TORSDOF 6
ENDMDL
