MODEL 1
REMARK VINA RESULT:      -6.7      0.000      0.000
REMARK  2 active torsions:
REMARK  status: ('A' for Active; 'I' for Inactive)
REMARK    1  A    between atoms: C_4  and  C_1 
REMARK    2  A    between atoms: C_2  and  C_7 
ROOT
ATOM      1  C   UNL d   1     -41.491-122.732 -53.454  0.00  0.00     0.003 A 
ATOM      2  C   UNL d   1     -41.870-122.501 -54.812  0.00  0.00     0.071 A 
ATOM      3  C   UNL d   1     -41.866-122.262 -54.025  0.00  0.00     0.004 A 
ATOM      4  C   UNL d   1     -41.125-123.433 -53.669  0.00  0.00     0.000 A 
ATOM      5  C   UNL d   1     -41.502-123.207 -55.036  0.00  0.00     0.004 A 
ATOM      6  C   UNL d   1     -41.127-123.675 -54.457  0.00  0.00    -0.000 A 
ENDROOT
BRANCH   1   7
ATOM      7  C   UNL d   1     -41.489-122.489 -52.666  0.00  0.00     0.042 A 
ATOM      8  C   UNL d   1     -41.307-121.706 -52.475  0.00  0.00     0.045 A 
ATOM      9  C   UNL d   1     -41.305-121.463 -51.686  0.00  0.00     0.196 A 
ATOM     10  O   UNL d   1     -41.123-120.680 -51.495  0.00  0.00    -0.287 OA
ATOM     11  C   UNL d   1     -41.486-122.003 -51.089  0.00  0.00     0.045 A 
ATOM     12  C   UNL d   1     -41.668-122.787 -51.281  0.00  0.00     0.045 A 
ATOM     13  C   UNL d   1     -41.670-123.029 -52.069  0.00  0.00     0.196 A 
ATOM     14  O   UNL d   1     -41.852-123.813 -52.261  0.00  0.00    -0.287 OA
ENDBRANCH   1   7
BRANCH   2  15
ATOM     15  C   UNL d   1     -42.242-122.037 -55.384  0.00  0.00     0.419 C 
ATOM     16  F   UNL d   1     -42.582-121.615 -55.904  0.00  0.00    -0.166 F 
ATOM     17  F   UNL d   1     -41.895-121.496 -55.958  0.00  0.00    -0.166 F 
ATOM     18  F   UNL d   1     -43.088-121.962 -55.568  0.00  0.00    -0.166 F 
ENDBRANCH   2  15
TORSDOF 2
ENDMDL
MODEL 2
REMARK VINA RESULT:      -5.3      2.732      3.632
REMARK  2 active torsions:
REMARK  status: ('A' for Active; 'I' for Inactive)
REMARK    1  A    between atoms: C_4  and  C_1 
REMARK    2  A    between atoms: C_2  and  C_7 
ROOT
ATOM      1  C   UNL d   1     -41.667-123.149 -50.280  0.00  0.00     0.003 A 
ATOM      2  C   UNL d   1     -41.305-122.299 -51.369  0.00  0.00     0.071 A 
ATOM      3  C   UNL d   1     -41.573-122.389 -50.596  0.00  0.00     0.004 A 
ATOM      4  C   UNL d   1     -41.494-123.811 -50.731  0.00  0.00     0.000 A 
ATOM      5  C   UNL d   1     -41.129-122.962 -51.830  0.00  0.00     0.004 A 
ATOM      6  C   UNL d   1     -41.225-123.724 -51.506  0.00  0.00    -0.000 A 
ENDROOT
BRANCH   1   7
ATOM      7  C   UNL d   1     -41.936-123.236 -49.506  0.00  0.00     0.042 A 
ATOM      8  C   UNL d   1     -41.395-123.331 -48.887  0.00  0.00     0.045 A 
ATOM      9  C   UNL d   1     -41.664-123.418 -48.113  0.00  0.00     0.196 A 
ATOM     10  O   UNL d   1     -41.123-123.513 -47.494  0.00  0.00    -0.287 OA
ATOM     11  C   UNL d   1     -42.474-123.410 -47.955  0.00  0.00     0.045 A 
ATOM     12  C   UNL d   1     -43.015-123.315 -48.573  0.00  0.00     0.045 A 
ATOM     13  C   UNL d   1     -42.746-123.228 -49.348  0.00  0.00     0.196 A 
ATOM     14  O   UNL d   1     -43.287-123.133 -49.966  0.00  0.00    -0.287 OA
ENDBRANCH   1   7
BRANCH   2  15
ATOM     15  C   UNL d   1     -41.210-121.544 -51.689  0.00  0.00     0.419 C 
ATOM     16  F   UNL d   1     -41.124-120.858 -51.982  0.00  0.00    -0.166 F 
ATOM     17  F   UNL d   1     -41.129-120.786 -51.285  0.00  0.00    -0.166 F 
ATOM     18  F   UNL d   1     -41.165-121.300 -52.522  0.00  0.00    -0.166 F 
ENDBRANCH   2  15
TORSDOF 2
ENDMDL
MODEL 3
REMARK VINA RESULT:      -4.9      2.604      3.742
REMARK  2 active torsions:
REMARK  status: ('A' for Active; 'I' for Inactive)
REMARK    1  A    between atoms: C_4  and  C_1 
REMARK    2  A    between atoms: C_2  and  C_7 
ROOT
ATOM      1  C   UNL d   1     -41.642-122.196 -52.178  0.00  0.00     0.003 A 
ATOM      2  C   UNL d   1     -42.144-122.352 -50.850  0.00  0.00     0.071 A 
ATOM      3  C   UNL d   1     -42.151-122.572 -51.643  0.00  0.00     0.004 A 
ATOM      4  C   UNL d   1     -41.132-121.608 -51.923  0.00  0.00     0.000 A 
ATOM      5  C   UNL d   1     -41.632-121.759 -50.586  0.00  0.00     0.004 A 
ATOM      6  C   UNL d   1     -41.123-121.385 -51.129  0.00  0.00    -0.000 A 
ENDROOT
BRANCH   1   7
ATOM      7  C   UNL d   1     -41.652-122.419 -52.972  0.00  0.00     0.042 A 
ATOM      8  C   UNL d   1     -41.921-121.890 -53.547  0.00  0.00     0.045 A 
ATOM      9  C   UNL d   1     -41.931-122.113 -54.342  0.00  0.00     0.196 A 
ATOM     10  O   UNL d   1     -42.200-121.583 -54.917  0.00  0.00    -0.287 OA
ATOM     11  C   UNL d   1     -41.672-122.864 -54.561  0.00  0.00     0.045 A 
ATOM     12  C   UNL d   1     -41.402-123.394 -53.985  0.00  0.00     0.045 A 
ATOM     13  C   UNL d   1     -41.392-123.171 -53.191  0.00  0.00     0.196 A 
ATOM     14  O   UNL d   1     -41.123-123.700 -52.616  0.00  0.00    -0.287 OA
ENDBRANCH   1   7
BRANCH   2  15
ATOM     15  C   UNL d   1     -42.649-122.723 -50.313  0.00  0.00     0.419 C 
ATOM     16  F   UNL d   1     -43.110-123.059 -49.824  0.00  0.00    -0.166 F 
ATOM     17  F   UNL d   1     -42.559-123.481 -49.912  0.00  0.00    -0.166 F 
ATOM     18  F   UNL d   1     -43.414-122.455 -50.000  0.00  0.00    -0.166 F 
ENDBRANCH   2  15
TORSDOF 2
ENDMDL
MODEL 4
REMARK VINA RESULT:      -4.8      2.397      3.392
REMARK  2 active torsions:
REMARK  status: ('A' for Active; 'I' for Inactive)
REMARK    1  A    between atoms: C_4  and  C_1 
REMARK    2  A    between atoms: C_2  and  C_7 
ROOT
ATOM      1  C   UNL d   1     -41.625-122.842 -53.131  0.00  0.00     0.003 A 
ATOM      2  C   UNL d   1     -41.626-122.514 -51.741  0.00  0.00     0.071 A 
ATOM      3  C   UNL d   1     -41.794-122.308 -52.520  0.00  0.00     0.004 A 
ATOM      4  C   UNL d   1     -41.292-123.572 -52.966  0.00  0.00     0.000 A 
ATOM      5  C   UNL d   1     -41.290-123.250 -51.567  0.00  0.00     0.004 A 
ATOM      6  C   UNL d   1     -41.123-123.782 -52.186  0.00  0.00    -0.000 A 
ENDROOT
BRANCH   1   7
ATOM      7  C   UNL d   1     -41.795-122.633 -53.911  0.00  0.00     0.042 A 
ATOM      8  C   UNL d   1     -42.216-121.939 -54.071  0.00  0.00     0.045 A 
ATOM      9  C   UNL d   1     -42.386-121.730 -54.850  0.00  0.00     0.196 A 
ATOM     10  O   UNL d   1     -42.807-121.037 -55.010  0.00  0.00    -0.287 OA
ATOM     11  C   UNL d   1     -42.135-122.213 -55.470  0.00  0.00     0.045 A 
ATOM     12  C   UNL d   1     -41.714-122.907 -55.310  0.00  0.00     0.045 A 
ATOM     13  C   UNL d   1     -41.544-123.116 -54.530  0.00  0.00     0.196 A 
ATOM     14  O   UNL d   1     -41.123-123.809 -54.370  0.00  0.00    -0.287 OA
ENDBRANCH   1   7
BRANCH   2  15
ATOM     15  C   UNL d   1     -41.792-121.987 -51.129  0.00  0.00     0.419 C 
ATOM     16  F   UNL d   1     -41.946-121.507 -50.571  0.00  0.00    -0.166 F 
ATOM     17  F   UNL d   1     -41.275-121.412 -50.747  0.00  0.00    -0.166 F 
ATOM     18  F   UNL d   1     -42.535-121.862 -50.696  0.00  0.00    -0.166 F 
ENDBRANCH   2  15
TORSDOF 2
ENDMDL
