MODEL 1
REMARK VINA RESULT:      -4.2      0.000      0.000
REMARK  10 active torsions:
REMARK  status: ('A' for Active; 'I' for Inactive)
REMARK    1  A    between atoms: C_5  and  C_1 
REMARK    2  A    between atoms: C_8  and  N_2 
REMARK    3  A    between atoms: C_9  and  C_5 
REMARK    4  A    between atoms: C_7  and  C_8 
REMARK       I    between atoms: N_13  and  C_7 
REMARK       I    between atoms: N_19  and  C_9 
REMARK    5  A    between atoms: N_11  and  C_21 
REMARK    6  A    between atoms: C_24  and  N_13 
REMARK    7  A    between atoms: C_25  and  N_13 
REMARK    8  A    between atoms: C_26  and  N_19 
REMARK    9  A    between atoms: C_21  and  C_23 
REMARK   10  A    between atoms: C_23  and  C_26 
ROOT
ATOM      1  C   UNL d   1     -40.472  14.219  20.419  0.00  0.00     0.063 A 
ATOM      2  N   UNL d   1     -39.872  14.576  19.275  0.00  0.00    -0.300 N 
ATOM      3  C   UNL d   1     -40.608  14.458  19.628  0.00  0.00     0.084 A 
ATOM      4  C   UNL d   1     -39.657  14.193  20.541  0.00  0.00     0.021 A 
ATOM      5  C   UNL d   1     -39.285  14.416  19.827  0.00  0.00     0.064 A 
ATOM      6  C   UNL d   1     -39.204  14.001  21.194  0.00  0.00     0.002 A 
ATOM      7  C   UNL d   1     -38.462  14.439  19.789  0.00  0.00     0.018 A 
ATOM      8  C   UNL d   1     -38.377  14.023  21.157  0.00  0.00     0.000 A 
ATOM      9  C   UNL d   1     -38.011  14.244  20.450  0.00  0.00     0.002 A 
ENDROOT
BRANCH   1  10
ATOM     10  C   UNL d   1     -41.055  14.043  20.972  0.00  0.00     0.254 C 
ATOM     11  O   UNL d   1     -40.997  13.348  21.417  0.00  0.00    -0.281 OA
BRANCH  10  12
ATOM     12  C   UNL d   1     -41.693  14.552  21.087  0.00  0.00     0.318 C 
ATOM     13  O   UNL d   1     -41.567  15.365  21.082  0.00  0.00    -0.262 OA
ATOM     14  N   UNL d   1     -42.448  14.241  21.204  0.00  0.00    -0.204 NA
BRANCH  14  15
ATOM     15  C   UNL d   1     -42.563  13.431  21.207  0.00  0.00     0.104 C 
BRANCH  15  16
ATOM     16  C   UNL d   1     -43.144  13.109  21.692  0.00  0.00     0.040 C 
BRANCH  16  17
ATOM     17  C   UNL d   1     -43.903  12.968  21.384  0.00  0.00     0.083 C 
BRANCH  17  18
ATOM     18  N   UNL d   1     -44.545  12.841  21.899  0.00  0.00    -0.285 N 
ATOM     19  C   UNL d   1     -44.580  12.261  22.484  0.00  0.00     0.183 A 
ATOM     20  N   UNL d   1     -45.321  12.340  22.859  0.00  0.00    -0.222 NA
ATOM     21  C   UNL d   1     -45.737  12.970  22.500  0.00  0.00     0.120 A 
ATOM     22  C   UNL d   1     -45.245  13.274  21.904  0.00  0.00     0.102 A 
ENDBRANCH  17  18
ENDBRANCH  16  17
ENDBRANCH  15  16
ENDBRANCH  14  15
ENDBRANCH  10  12
ENDBRANCH   1  10
BRANCH   2  23
ATOM     23  C   UNL d   1     -39.748  14.815  18.496  0.00  0.00     0.142 C 
BRANCH  23  24
ATOM     24  C   UNL d   1     -40.344  14.735  17.939  0.00  0.00     0.282 C 
ATOM     25  N   UNL d   1     -40.362  15.226  17.276  0.00  0.00    -0.271 N 
ATOM     26  O   UNL d   1     -40.930  14.160  18.043  0.00  0.00    -0.265 OA
BRANCH  25  27
ATOM     27  C   UNL d   1     -39.780  15.799  17.171  0.00  0.00     0.083 C 
ATOM     28  C   UNL d   1     -39.453  15.921  16.428  0.00  0.00     0.021 C 
ENDBRANCH  25  27
BRANCH  25  29
ATOM     29  C   UNL d   1     -40.966  15.141  16.717  0.00  0.00     0.083 C 
ATOM     30  C   UNL d   1     -41.448  15.785  16.532  0.00  0.00     0.021 C 
ENDBRANCH  25  29
ENDBRANCH  23  24
ENDBRANCH   2  23
TORSDOF 10
ENDMDL
MODEL 2
REMARK VINA RESULT:      -4.1      3.505      8.144
REMARK  10 active torsions:
REMARK  status: ('A' for Active; 'I' for Inactive)
REMARK    1  A    between atoms: C_5  and  C_1 
REMARK    2  A    between atoms: C_8  and  N_2 
REMARK    3  A    between atoms: C_9  and  C_5 
REMARK    4  A    between atoms: C_7  and  C_8 
REMARK       I    between atoms: N_13  and  C_7 
REMARK       I    between atoms: N_19  and  C_9 
REMARK    5  A    between atoms: N_11  and  C_21 
REMARK    6  A    between atoms: C_24  and  N_13 
REMARK    7  A    between atoms: C_25  and  N_13 
REMARK    8  A    between atoms: C_26  and  N_19 
REMARK    9  A    between atoms: C_21  and  C_23 
REMARK   10  A    between atoms: C_23  and  C_26 
ROOT
ATOM      1  C   UNL d   1     -47.199  12.920  23.117  0.00  0.00     0.063 A 
ATOM      2  N   UNL d   1     -48.520  13.141  23.163  0.00  0.00    -0.300 N 
ATOM      3  C   UNL d   1     -47.793  13.502  23.020  0.00  0.00     0.084 A 
ATOM      4  C   UNL d   1     -47.568  12.210  23.319  0.00  0.00     0.021 A 
ATOM      5  C   UNL d   1     -48.392  12.351  23.347  0.00  0.00     0.064 A 
ATOM      6  C   UNL d   1     -47.276  11.465  23.479  0.00  0.00     0.002 A 
ATOM      7  C   UNL d   1     -48.902  11.731  23.537  0.00  0.00     0.018 A 
ATOM      8  C   UNL d   1     -47.788  10.841  23.670  0.00  0.00     0.000 A 
ATOM      9  C   UNL d   1     -48.601  10.982  23.698  0.00  0.00     0.002 A 
ENDROOT
BRANCH   1  10
ATOM     10  C   UNL d   1     -46.391  13.041  23.026  0.00  0.00     0.254 C 
ATOM     11  O   UNL d   1     -45.879  12.392  23.032  0.00  0.00    -0.281 OA
BRANCH  10  12
ATOM     12  C   UNL d   1     -46.089  13.802  22.929  0.00  0.00     0.318 C 
ATOM     13  O   UNL d   1     -46.469  14.437  23.289  0.00  0.00    -0.262 OA
ATOM     14  N   UNL d   1     -45.411  13.919  22.474  0.00  0.00    -0.204 NA
BRANCH  14  15
ATOM     15  C   UNL d   1     -45.039  13.281  22.120  0.00  0.00     0.104 C 
BRANCH  15  16
ATOM     16  C   UNL d   1     -44.368  13.410  21.663  0.00  0.00     0.040 C 
BRANCH  16  17
ATOM     17  C   UNL d   1     -43.796  12.811  21.595  0.00  0.00     0.083 C 
BRANCH  17  18
ATOM     18  N   UNL d   1     -43.044  12.986  21.286  0.00  0.00    -0.285 N 
ATOM     19  C   UNL d   1     -42.883  13.182  20.501  0.00  0.00     0.183 A 
ATOM     20  N   UNL d   1     -42.061  13.311  20.447  0.00  0.00    -0.222 NA
ATOM     21  C   UNL d   1     -41.721  13.192  21.201  0.00  0.00     0.120 A 
ATOM     22  C   UNL d   1     -42.341  12.990  21.715  0.00  0.00     0.102 A 
ENDBRANCH  17  18
ENDBRANCH  16  17
ENDBRANCH  15  16
ENDBRANCH  14  15
ENDBRANCH  10  12
ENDBRANCH   1  10
BRANCH   2  23
ATOM     23  C   UNL d   1     -49.256  13.513  23.128  0.00  0.00     0.142 C 
BRANCH  23  24
ATOM     24  C   UNL d   1     -49.493  13.896  22.443  0.00  0.00     0.282 C 
ATOM     25  N   UNL d   1     -50.070  14.484  22.474  0.00  0.00    -0.271 N 
ATOM     26  O   UNL d   1     -49.151  13.690  21.718  0.00  0.00    -0.265 OA
BRANCH  25  27
ATOM     27  C   UNL d   1     -50.410  14.690  23.195  0.00  0.00     0.083 C 
ATOM     28  C   UNL d   1     -50.698  15.450  23.311  0.00  0.00     0.021 C 
ENDBRANCH  25  27
BRANCH  25  29
ATOM     29  C   UNL d   1     -50.305  14.867  21.779  0.00  0.00     0.083 C 
ATOM     30  C   UNL d   1     -50.904  14.542  21.314  0.00  0.00     0.021 C 
ENDBRANCH  25  29
ENDBRANCH  23  24
ENDBRANCH   2  23
TORSDOF 10
ENDMDL
MODEL 3
REMARK VINA RESULT:      -3.7      2.092      6.590
REMARK  10 active torsions:
REMARK  status: ('A' for Active; 'I' for Inactive)
REMARK    1  A    between atoms: C_5  and  C_1 
REMARK    2  A    between atoms: C_8  and  N_2 
REMARK    3  A    between atoms: C_9  and  C_5 
REMARK    4  A    between atoms: C_7  and  C_8 
REMARK       I    between atoms: N_13  and  C_7 
REMARK       I    between atoms: N_19  and  C_9 
REMARK    5  A    between atoms: N_11  and  C_21 
REMARK    6  A    between atoms: C_24  and  N_13 
REMARK    7  A    between atoms: C_25  and  N_13 
REMARK    8  A    between atoms: C_26  and  N_19 
REMARK    9  A    between atoms: C_21  and  C_23 
REMARK   10  A    between atoms: C_23  and  C_26 
ROOT
ATOM      1  C   UNL d   1     -44.154  12.197  22.293  0.00  0.00     0.063 A 
ATOM      2  N   UNL d   1     -45.395  12.177  22.799  0.00  0.00    -0.300 N 
ATOM      3  C   UNL d   1     -44.877  12.617  22.332  0.00  0.00     0.084 A 
ATOM      4  C   UNL d   1     -44.236  11.506  22.736  0.00  0.00     0.021 A 
ATOM      5  C   UNL d   1     -45.010  11.496  23.050  0.00  0.00     0.064 A 
ATOM      6  C   UNL d   1     -43.722  10.891  22.896  0.00  0.00     0.002 A 
ATOM      7  C   UNL d   1     -45.248  10.861  23.521  0.00  0.00     0.018 A 
ATOM      8  C   UNL d   1     -43.960  10.253  23.369  0.00  0.00     0.000 A 
ATOM      9  C   UNL d   1     -44.725  10.244  23.679  0.00  0.00     0.002 A 
ENDROOT
BRANCH   1  10
ATOM     10  C   UNL d   1     -43.483  12.438  21.884  0.00  0.00     0.254 C 
ATOM     11  O   UNL d   1     -42.741  12.370  22.243  0.00  0.00    -0.281 OA
BRANCH  10  12
ATOM     12  C   UNL d   1     -43.544  12.744  21.121  0.00  0.00     0.318 C 
ATOM     13  O   UNL d   1     -44.217  12.586  20.674  0.00  0.00    -0.262 OA
ATOM     14  N   UNL d   1     -42.931  13.204  20.814  0.00  0.00    -0.204 NA
BRANCH  14  15
ATOM     15  C   UNL d   1     -42.265  13.355  21.266  0.00  0.00     0.104 C 
BRANCH  15  16
ATOM     16  C   UNL d   1     -41.600  13.676  20.905  0.00  0.00     0.040 C 
BRANCH  16  17
ATOM     17  C   UNL d   1     -41.212  14.320  21.257  0.00  0.00     0.083 C 
BRANCH  17  18
ATOM     18  N   UNL d   1     -40.433  14.512  21.035  0.00  0.00    -0.285 N 
ATOM     19  C   UNL d   1     -40.214  14.868  20.323  0.00  0.00     0.183 A 
ATOM     20  N   UNL d   1     -39.385  14.953  20.341  0.00  0.00    -0.222 NA
ATOM     21  C   UNL d   1     -39.100  14.649  21.064  0.00  0.00     0.120 A 
ATOM     22  C   UNL d   1     -39.760  14.377  21.488  0.00  0.00     0.102 A 
ENDBRANCH  17  18
ENDBRANCH  16  17
ENDBRANCH  15  16
ENDBRANCH  14  15
ENDBRANCH  10  12
ENDBRANCH   1  10
BRANCH   2  23
ATOM     23  C   UNL d   1     -46.171  12.387  22.984  0.00  0.00     0.142 C 
BRANCH  23  24
ATOM     24  C   UNL d   1     -46.373  13.175  23.080  0.00  0.00     0.282 C 
ATOM     25  N   UNL d   1     -47.145  13.427  22.933  0.00  0.00    -0.271 N 
ATOM     26  O   UNL d   1     -45.801  13.719  23.327  0.00  0.00    -0.265 OA
BRANCH  25  27
ATOM     27  C   UNL d   1     -47.715  12.886  22.688  0.00  0.00     0.083 C 
ATOM     28  C   UNL d   1     -48.417  12.811  23.107  0.00  0.00     0.021 C 
ENDBRANCH  25  27
BRANCH  25  29
ATOM     29  C   UNL d   1     -47.344  14.223  23.032  0.00  0.00     0.083 C 
ATOM     30  C   UNL d   1     -47.899  14.574  22.531  0.00  0.00     0.021 C 
ENDBRANCH  25  29
ENDBRANCH  23  24
ENDBRANCH   2  23
TORSDOF 10
ENDMDL
MODEL 4
REMARK VINA RESULT:      -2.4      1.482      3.385
REMARK  10 active torsions:
REMARK  status: ('A' for Active; 'I' for Inactive)
REMARK    1  A    between atoms: C_5  and  C_1 
REMARK    2  A    between atoms: C_8  and  N_2 
REMARK    3  A    between atoms: C_9  and  C_5 
REMARK    4  A    between atoms: C_7  and  C_8 
REMARK       I    between atoms: N_13  and  C_7 
REMARK       I    between atoms: N_19  and  C_9 
REMARK    5  A    between atoms: N_11  and  C_21 
REMARK    6  A    between atoms: C_24  and  N_13 
REMARK    7  A    between atoms: C_25  and  N_13 
REMARK    8  A    between atoms: C_26  and  N_19 
REMARK    9  A    between atoms: C_21  and  C_23 
REMARK   10  A    between atoms: C_23  and  C_26 
ROOT
ATOM      1  C   UNL d   1     -39.927  14.239  19.735  0.00  0.00     0.063 A 
ATOM      2  N   UNL d   1     -38.766  13.987  20.356  0.00  0.00    -0.300 N 
ATOM      3  C   UNL d   1     -39.560  14.169  20.484  0.00  0.00     0.084 A 
ATOM      4  C   UNL d   1     -39.355  14.098  19.157  0.00  0.00     0.021 A 
ATOM      5  C   UNL d   1     -38.633  13.941  19.547  0.00  0.00     0.064 A 
ATOM      6  C   UNL d   1     -39.389  14.091  18.341  0.00  0.00     0.002 A 
ATOM      7  C   UNL d   1     -37.958  13.780  19.099  0.00  0.00     0.018 A 
ATOM      8  C   UNL d   1     -38.712  13.929  17.891  0.00  0.00     0.000 A 
ATOM      9  C   UNL d   1     -37.998  13.774  18.277  0.00  0.00     0.002 A 
ENDROOT
BRANCH   1  10
ATOM     10  C   UNL d   1     -40.719  14.416  19.605  0.00  0.00     0.254 C 
ATOM     11  O   UNL d   1     -41.137  14.009  19.019  0.00  0.00    -0.281 OA
BRANCH  10  12
ATOM     12  C   UNL d   1     -41.098  14.995  20.053  0.00  0.00     0.318 C 
ATOM     13  O   UNL d   1     -40.865  15.781  19.979  0.00  0.00    -0.262 OA
ATOM     14  N   UNL d   1     -41.706  14.782  20.569  0.00  0.00    -0.204 NA
BRANCH  14  15
ATOM     15  C   UNL d   1     -41.930  13.997  20.635  0.00  0.00     0.104 C 
BRANCH  15  16
ATOM     16  C   UNL d   1     -42.614  13.809  21.053  0.00  0.00     0.040 C 
BRANCH  16  17
ATOM     17  C   UNL d   1     -42.761  13.019  21.265  0.00  0.00     0.083 C 
BRANCH  17  18
ATOM     18  N   UNL d   1     -43.478  12.812  21.631  0.00  0.00    -0.285 N 
ATOM     19  C   UNL d   1     -44.170  13.261  21.614  0.00  0.00     0.183 A 
ATOM     20  N   UNL d   1     -44.743  12.841  22.052  0.00  0.00    -0.222 NA
ATOM     21  C   UNL d   1     -44.398  12.135  22.335  0.00  0.00     0.120 A 
ATOM     22  C   UNL d   1     -43.612  12.127  22.068  0.00  0.00     0.102 A 
ENDBRANCH  17  18
ENDBRANCH  16  17
ENDBRANCH  15  16
ENDBRANCH  14  15
ENDBRANCH  10  12
ENDBRANCH   1  10
BRANCH   2  23
ATOM     23  C   UNL d   1     -38.200  13.869  20.944  0.00  0.00     0.142 C 
BRANCH  23  24
ATOM     24  C   UNL d   1     -38.136  14.397  21.567  0.00  0.00     0.282 C 
ATOM     25  N   UNL d   1     -38.008  14.121  22.334  0.00  0.00    -0.271 N 
ATOM     26  O   UNL d   1     -38.200  15.210  21.426  0.00  0.00    -0.265 OA
BRANCH  25  27
ATOM     27  C   UNL d   1     -37.945  13.313  22.476  0.00  0.00     0.083 C 
ATOM     28  C   UNL d   1     -37.940  13.030  23.247  0.00  0.00     0.021 C 
ENDBRANCH  25  27
BRANCH  25  29
ATOM     29  C   UNL d   1     -37.945  14.658  22.960  0.00  0.00     0.083 C 
ATOM     30  C   UNL d   1     -38.475  14.619  23.591  0.00  0.00     0.021 C 
ENDBRANCH  25  29
ENDBRANCH  23  24
ENDBRANCH   2  23
TORSDOF 10
ENDMDL
MODEL 5
REMARK VINA RESULT:      -2.2      1.412      3.338
REMARK  10 active torsions:
REMARK  status: ('A' for Active; 'I' for Inactive)
REMARK    1  A    between atoms: C_5  and  C_1 
REMARK    2  A    between atoms: C_8  and  N_2 
REMARK    3  A    between atoms: C_9  and  C_5 
REMARK    4  A    between atoms: C_7  and  C_8 
REMARK       I    between atoms: N_13  and  C_7 
REMARK       I    between atoms: N_19  and  C_9 
REMARK    5  A    between atoms: N_11  and  C_21 
REMARK    6  A    between atoms: C_24  and  N_13 
REMARK    7  A    between atoms: C_25  and  N_13 
REMARK    8  A    between atoms: C_26  and  N_19 
REMARK    9  A    between atoms: C_21  and  C_23 
REMARK   10  A    between atoms: C_23  and  C_26 
ROOT
ATOM      1  C   UNL d   1     -40.775  14.127  20.622  0.00  0.00     0.063 A 
ATOM      2  N   UNL d   1     -39.530  14.285  21.092  0.00  0.00    -0.300 N 
ATOM      3  C   UNL d   1     -40.303  14.101  21.313  0.00  0.00     0.084 A 
ATOM      4  C   UNL d   1     -40.286  14.325  19.987  0.00  0.00     0.021 A 
ATOM      5  C   UNL d   1     -39.511  14.423  20.283  0.00  0.00     0.064 A 
ATOM      6  C   UNL d   1     -40.435  14.429  19.190  0.00  0.00     0.002 A 
ATOM      7  C   UNL d   1     -38.902  14.624  19.765  0.00  0.00     0.018 A 
ATOM      8  C   UNL d   1     -39.823  14.632  18.669  0.00  0.00     0.000 A 
ATOM      9  C   UNL d   1     -39.058  14.728  18.963  0.00  0.00     0.002 A 
ENDROOT
BRANCH   1  10
ATOM     10  C   UNL d   1     -41.583  13.979  20.588  0.00  0.00     0.254 C 
ATOM     11  O   UNL d   1     -41.863  13.349  20.131  0.00  0.00    -0.281 OA
BRANCH  10  12
ATOM     12  C   UNL d   1     -42.114  14.452  21.005  0.00  0.00     0.318 C 
ATOM     13  O   UNL d   1     -41.971  15.260  21.068  0.00  0.00    -0.262 OA
ATOM     14  N   UNL d   1     -42.780  14.112  21.353  0.00  0.00    -0.204 NA
BRANCH  14  15
ATOM     15  C   UNL d   1     -42.913  13.307  21.284  0.00  0.00     0.104 C 
BRANCH  15  16
ATOM     16  C   UNL d   1     -43.476  12.950  21.766  0.00  0.00     0.040 C 
BRANCH  16  17
ATOM     17  C   UNL d   1     -44.277  12.973  21.546  0.00  0.00     0.083 C 
BRANCH  17  18
ATOM     18  N   UNL d   1     -44.869  12.806  22.107  0.00  0.00    -0.285 N 
ATOM     19  C   UNL d   1     -44.861  12.172  22.635  0.00  0.00     0.183 A 
ATOM     20  N   UNL d   1     -45.560  12.225  23.087  0.00  0.00    -0.222 NA
ATOM     21  C   UNL d   1     -45.993  12.892  22.833  0.00  0.00     0.120 A 
ATOM     22  C   UNL d   1     -45.554  13.247  22.223  0.00  0.00     0.102 A 
ENDBRANCH  17  18
ENDBRANCH  16  17
ENDBRANCH  15  16
ENDBRANCH  14  15
ENDBRANCH  10  12
ENDBRANCH   1  10
BRANCH   2  23
ATOM     23  C   UNL d   1     -38.883  14.323  21.602  0.00  0.00     0.142 C 
BRANCH  23  24
ATOM     24  C   UNL d   1     -38.920  14.775  22.284  0.00  0.00     0.282 C 
ATOM     25  N   UNL d   1     -38.450  14.586  22.935  0.00  0.00    -0.271 N 
ATOM     26  O   UNL d   1     -39.432  15.424  22.320  0.00  0.00    -0.265 OA
BRANCH  25  27
ATOM     27  C   UNL d   1     -37.940  13.941  22.901  0.00  0.00     0.083 C 
ATOM     28  C   UNL d   1     -38.023  13.323  23.435  0.00  0.00     0.021 C 
ENDBRANCH  25  27
BRANCH  25  29
ATOM     29  C   UNL d   1     -38.491  15.046  23.621  0.00  0.00     0.083 C 
ATOM     30  C   UNL d   1     -38.044  15.737  23.681  0.00  0.00     0.021 C 
ENDBRANCH  25  29
ENDBRANCH  23  24
ENDBRANCH   2  23
TORSDOF 10
ENDMDL
MODEL 6
REMARK VINA RESULT:      -1.7      1.277      4.778
REMARK  10 active torsions:
REMARK  status: ('A' for Active; 'I' for Inactive)
REMARK    1  A    between atoms: C_5  and  C_1 
REMARK    2  A    between atoms: C_8  and  N_2 
REMARK    3  A    between atoms: C_9  and  C_5 
REMARK    4  A    between atoms: C_7  and  C_8 
REMARK       I    between atoms: N_13  and  C_7 
REMARK       I    between atoms: N_19  and  C_9 
REMARK    5  A    between atoms: N_11  and  C_21 
REMARK    6  A    between atoms: C_24  and  N_13 
REMARK    7  A    between atoms: C_25  and  N_13 
REMARK    8  A    between atoms: C_26  and  N_19 
REMARK    9  A    between atoms: C_21  and  C_23 
REMARK   10  A    between atoms: C_23  and  C_26 
ROOT
ATOM      1  C   UNL d   1     -39.510  14.377  20.325  0.00  0.00     0.063 A 
ATOM      2  N   UNL d   1     -40.382  13.867  21.206  0.00  0.00    -0.300 N 
ATOM      3  C   UNL d   1     -40.288  14.081  20.415  0.00  0.00     0.084 A 
ATOM      4  C   UNL d   1     -39.137  14.342  21.060  0.00  0.00     0.021 A 
ATOM      5  C   UNL d   1     -39.682  14.023  21.607  0.00  0.00     0.064 A 
ATOM      6  C   UNL d   1     -38.387  14.552  21.307  0.00  0.00     0.002 A 
ATOM      7  C   UNL d   1     -39.455  13.924  22.394  0.00  0.00     0.018 A 
ATOM      8  C   UNL d   1     -38.158  14.452  22.097  0.00  0.00     0.000 A 
ATOM      9  C   UNL d   1     -38.698  14.137  22.637  0.00  0.00     0.002 A 
ENDROOT
BRANCH   1  10
ATOM     10  C   UNL d   1     -39.182  14.654  19.624  0.00  0.00     0.254 C 
ATOM     11  O   UNL d   1     -38.866  15.418  19.596  0.00  0.00    -0.281 OA
BRANCH  10  12
ATOM     12  C   UNL d   1     -39.165  14.178  18.951  0.00  0.00     0.318 C 
ATOM     13  O   UNL d   1     -38.904  13.400  19.014  0.00  0.00    -0.262 OA
ATOM     14  N   UNL d   1     -39.409  14.484  18.225  0.00  0.00    -0.204 NA
BRANCH  14  15
ATOM     15  C   UNL d   1     -39.667  15.260  18.174  0.00  0.00     0.104 C 
BRANCH  15  16
ATOM     16  C   UNL d   1     -40.032  15.516  17.482  0.00  0.00     0.040 C 
BRANCH  16  17
ATOM     17  C   UNL d   1     -40.756  15.920  17.526  0.00  0.00     0.083 C 
BRANCH  17  18
ATOM     18  N   UNL d   1     -41.285  15.900  16.884  0.00  0.00    -0.285 N 
ATOM     19  C   UNL d   1     -42.107  15.922  16.941  0.00  0.00     0.183 A 
ATOM     20  N   UNL d   1     -42.406  15.890  16.163  0.00  0.00    -0.222 NA
ATOM     21  C   UNL d   1     -41.762  15.848  15.632  0.00  0.00     0.120 A 
ATOM     22  C   UNL d   1     -41.070  15.855  16.090  0.00  0.00     0.102 A 
ENDBRANCH  17  18
ENDBRANCH  16  17
ENDBRANCH  15  16
ENDBRANCH  14  15
ENDBRANCH  10  12
ENDBRANCH   1  10
BRANCH   2  23
ATOM     23  C   UNL d   1     -41.066  13.548  21.538  0.00  0.00     0.142 C 
BRANCH  23  24
ATOM     24  C   UNL d   1     -41.796  13.681  21.188  0.00  0.00     0.282 C 
ATOM     25  N   UNL d   1     -42.424  13.166  21.331  0.00  0.00    -0.271 N 
ATOM     26  O   UNL d   1     -41.900  14.334  20.691  0.00  0.00    -0.265 OA
BRANCH  25  27
ATOM     27  C   UNL d   1     -42.321  12.516  21.826  0.00  0.00     0.083 C 
ATOM     28  C   UNL d   1     -42.942  11.995  21.954  0.00  0.00     0.021 C 
ENDBRANCH  25  27
BRANCH  25  29
ATOM     29  C   UNL d   1     -43.158  13.304  20.975  0.00  0.00     0.083 C 
ATOM     30  C   UNL d   1     -43.848  13.259  21.426  0.00  0.00     0.021 C 
ENDBRANCH  25  29
ENDBRANCH  23  24
ENDBRANCH   2  23
TORSDOF 10
ENDMDL
MODEL 7
REMARK VINA RESULT:      -1.3      1.655      5.497
REMARK  10 active torsions:
REMARK  status: ('A' for Active; 'I' for Inactive)
REMARK    1  A    between atoms: C_5  and  C_1 
REMARK    2  A    between atoms: C_8  and  N_2 
REMARK    3  A    between atoms: C_9  and  C_5 
REMARK    4  A    between atoms: C_7  and  C_8 
REMARK       I    between atoms: N_13  and  C_7 
REMARK       I    between atoms: N_19  and  C_9 
REMARK    5  A    between atoms: N_11  and  C_21 
REMARK    6  A    between atoms: C_24  and  N_13 
REMARK    7  A    between atoms: C_25  and  N_13 
REMARK    8  A    between atoms: C_26  and  N_19 
REMARK    9  A    between atoms: C_21  and  C_23 
REMARK   10  A    between atoms: C_23  and  C_26 
ROOT
ATOM      1  C   UNL d   1     -39.431  14.482  20.421  0.00  0.00     0.063 A 
ATOM      2  N   UNL d   1     -40.356  13.861  21.165  0.00  0.00    -0.300 N 
ATOM      3  C   UNL d   1     -40.204  14.159  20.412  0.00  0.00     0.084 A 
ATOM      4  C   UNL d   1     -39.120  14.379  21.177  0.00  0.00     0.021 A 
ATOM      5  C   UNL d   1     -39.698  13.992  21.640  0.00  0.00     0.064 A 
ATOM      6  C   UNL d   1     -38.400  14.580  21.508  0.00  0.00     0.002 A 
ATOM      7  C   UNL d   1     -39.535  13.816  22.429  0.00  0.00     0.018 A 
ATOM      8  C   UNL d   1     -38.235  14.403  22.301  0.00  0.00     0.000 A 
ATOM      9  C   UNL d   1     -38.808  14.021  22.757  0.00  0.00     0.002 A 
ENDROOT
BRANCH   1  10
ATOM     10  C   UNL d   1     -39.055  14.839  19.782  0.00  0.00     0.254 C 
ATOM     11  O   UNL d   1     -38.261  14.666  19.629  0.00  0.00    -0.281 OA
BRANCH  10  12
ATOM     12  C   UNL d   1     -39.461  15.366  19.296  0.00  0.00     0.318 C 
ATOM     13  O   UNL d   1     -39.967  15.920  19.634  0.00  0.00    -0.262 OA
ATOM     14  N   UNL d   1     -39.358  15.332  18.478  0.00  0.00    -0.204 NA
BRANCH  14  15
ATOM     15  C   UNL d   1     -38.853  14.776  18.151  0.00  0.00     0.104 C 
BRANCH  15  16
ATOM     16  C   UNL d   1     -38.786  14.726  17.333  0.00  0.00     0.040 C 
BRANCH  16  17
ATOM     17  C   UNL d   1     -38.049  14.551  16.991  0.00  0.00     0.083 C 
BRANCH  17  18
ATOM     18  N   UNL d   1     -38.009  14.257  16.214  0.00  0.00    -0.285 N 
ATOM     19  C   UNL d   1     -37.988  13.459  16.006  0.00  0.00     0.183 A 
ATOM     20  N   UNL d   1     -37.949  13.426  15.174  0.00  0.00    -0.222 NA
ATOM     21  C   UNL d   1     -37.947  14.206  14.875  0.00  0.00     0.120 A 
ATOM     22  C   UNL d   1     -37.985  14.715  15.531  0.00  0.00     0.102 A 
ENDBRANCH  17  18
ENDBRANCH  16  17
ENDBRANCH  15  16
ENDBRANCH  14  15
ENDBRANCH  10  12
ENDBRANCH   1  10
BRANCH   2  23
ATOM     23  C   UNL d   1     -41.055  13.493  21.403  0.00  0.00     0.142 C 
BRANCH  23  24
ATOM     24  C   UNL d   1     -41.779  13.847  21.254  0.00  0.00     0.282 C 
ATOM     25  N   UNL d   1     -42.472  13.398  21.269  0.00  0.00    -0.271 N 
ATOM     26  O   UNL d   1     -41.815  14.657  21.089  0.00  0.00    -0.265 OA
BRANCH  25  27
ATOM     27  C   UNL d   1     -42.437  12.592  21.433  0.00  0.00     0.083 C 
ATOM     28  C   UNL d   1     -43.022  12.240  21.889  0.00  0.00     0.021 C 
ENDBRANCH  25  27
BRANCH  25  29
ATOM     29  C   UNL d   1     -43.200  13.760  21.118  0.00  0.00     0.083 C 
ATOM     30  C   UNL d   1     -43.901  13.373  21.319  0.00  0.00     0.021 C 
ENDBRANCH  25  29
ENDBRANCH  23  24
ENDBRANCH   2  23
TORSDOF 10
ENDMDL
