MODEL 1
REMARK VINA RESULT:      -7.4      0.000      0.000
REMARK  5 active torsions:
REMARK  status: ('A' for Active; 'I' for Inactive)
REMARK    1  A    between atoms: N_2  and  S_1 
REMARK    2  A    between atoms: C_5  and  S_1 
REMARK    3  A    between atoms: C_3  and  N_2 
REMARK    4  A    between atoms: C_4  and  C_3 
REMARK       I    between atoms: N_8  and  C_4 
REMARK    5  A    between atoms: C_12  and  N_8 
ROOT
ATOM      1  N   UNL d   1     -47.078  13.273  22.999  0.00  0.00    -0.223 N 
ATOM      2  C   UNL d   1     -46.578  13.890  23.228  0.00  0.00     0.112 C 
ENDROOT
BRANCH   1   3
ATOM      3  S   UNL d   1     -47.717  13.432  22.503  0.00  0.00     0.272 S 
ATOM      4  O   UNL d   1     -47.724  13.139  21.731  0.00  0.00    -0.200 OA
ATOM      5  O   UNL d   1     -47.525  13.625  23.280  0.00  0.00    -0.200 OA
BRANCH   3   6
ATOM      6  C   UNL d   1     -48.353  13.885  22.776  0.00  0.00     0.104 A 
ATOM      7  C   UNL d   1     -48.984  13.525  23.171  0.00  0.00     0.013 A 
ATOM      8  C   UNL d   1     -49.620  13.987  23.442  0.00  0.00     0.001 A 
ATOM      9  C   UNL d   1     -49.622  14.803  23.318  0.00  0.00     0.000 A 
ATOM     10  C   UNL d   1     -48.991  15.163  22.924  0.00  0.00     0.001 A 
ATOM     11  C   UNL d   1     -50.254  15.258  23.589  0.00  0.00     0.000 C 
ATOM     12  C   UNL d   1     -48.359  14.708  22.653  0.00  0.00     0.013 A 
ENDBRANCH   3   6
ENDBRANCH   1   3
BRANCH   1  13
ATOM     13  C   UNL d   1     -46.937  12.505  23.266  0.00  0.00     0.154 C 
BRANCH  13  14
ATOM     14  C   UNL d   1     -46.180  12.182  23.207  0.00  0.00     0.298 C 
ATOM     15  N   UNL d   1     -46.055  11.391  23.412  0.00  0.00    -0.207 NA
ATOM     16  O   UNL d   1     -45.550  12.649  22.944  0.00  0.00    -0.264 OA
BRANCH  15  17
ATOM     17  C   UNL d   1     -45.299  11.068  23.353  0.00  0.00     0.085 A 
ATOM     18  C   UNL d   1     -44.711  11.472  22.951  0.00  0.00     0.019 A 
ATOM     19  C   UNL d   1     -43.954  11.150  22.892  0.00  0.00     0.002 A 
ATOM     20  C   UNL d   1     -43.790  10.419  23.238  0.00  0.00     0.000 A 
ATOM     21  C   UNL d   1     -44.387  10.014  23.643  0.00  0.00     0.002 A 
ATOM     22  C   UNL d   1     -45.138  10.340  23.698  0.00  0.00     0.019 A 
ENDBRANCH  15  17
ENDBRANCH  13  14
ENDBRANCH   1  13
TORSDOF 5
ENDMDL
MODEL 2
REMARK VINA RESULT:      -7.4      1.365      5.013
REMARK  5 active torsions:
REMARK  status: ('A' for Active; 'I' for Inactive)
REMARK    1  A    between atoms: N_2  and  S_1 
REMARK    2  A    between atoms: C_5  and  S_1 
REMARK    3  A    between atoms: C_3  and  N_2 
REMARK    4  A    between atoms: C_4  and  C_3 
REMARK       I    between atoms: N_8  and  C_4 
REMARK    5  A    between atoms: C_12  and  N_8 
ROOT
ATOM      1  N   UNL d   1     -47.195  13.251  22.624  0.00  0.00    -0.223 N 
ATOM      2  C   UNL d   1     -47.561  12.903  21.969  0.00  0.00     0.112 C 
ENDROOT
BRANCH   1   3
ATOM      3  S   UNL d   1     -46.542  12.884  22.966  0.00  0.00     0.272 S 
ATOM      4  O   UNL d   1     -46.616  12.508  23.698  0.00  0.00    -0.200 OA
ATOM      5  O   UNL d   1     -46.672  13.299  22.268  0.00  0.00    -0.200 OA
BRANCH   3   6
ATOM      6  C   UNL d   1     -45.810  12.889  22.579  0.00  0.00     0.104 A 
ATOM      7  C   UNL d   1     -45.546  13.573  22.196  0.00  0.00     0.013 A 
ATOM      8  C   UNL d   1     -44.809  13.571  21.809  0.00  0.00     0.001 A 
ATOM      9  C   UNL d   1     -44.344  12.890  21.808  0.00  0.00     0.000 A 
ATOM     10  C   UNL d   1     -44.608  12.206  22.191  0.00  0.00     0.001 A 
ATOM     11  C   UNL d   1     -43.614  12.891  21.423  0.00  0.00     0.000 C 
ATOM     12  C   UNL d   1     -45.338  12.205  22.576  0.00  0.00     0.013 A 
ENDBRANCH   3   6
ENDBRANCH   1   3
BRANCH   1  13
ATOM     13  C   UNL d   1     -47.484  13.961  22.929  0.00  0.00     0.154 C 
BRANCH  13  14
ATOM     14  C   UNL d   1     -48.298  14.087  22.978  0.00  0.00     0.298 C 
ATOM     15  N   UNL d   1     -48.604  14.842  22.842  0.00  0.00    -0.207 NA
ATOM     16  O   UNL d   1     -48.803  13.459  23.163  0.00  0.00    -0.264 OA
BRANCH  15  17
ATOM     17  C   UNL d   1     -49.418  14.968  22.891  0.00  0.00     0.085 A 
ATOM     18  C   UNL d   1     -49.746  15.269  23.578  0.00  0.00     0.019 A 
ATOM     19  C   UNL d   1     -50.560  15.394  23.627  0.00  0.00     0.002 A 
ATOM     20  C   UNL d   1     -51.043  15.217  22.983  0.00  0.00     0.000 A 
ATOM     21  C   UNL d   1     -50.708  14.914  22.290  0.00  0.00     0.002 A 
ATOM     22  C   UNL d   1     -49.897  14.791  22.248  0.00  0.00     0.019 A 
ENDBRANCH  15  17
ENDBRANCH  13  14
ENDBRANCH   1  13
TORSDOF 5
ENDMDL
MODEL 3
REMARK VINA RESULT:      -7.2      7.971      9.080
REMARK  5 active torsions:
REMARK  status: ('A' for Active; 'I' for Inactive)
REMARK    1  A    between atoms: N_2  and  S_1 
REMARK    2  A    between atoms: C_5  and  S_1 
REMARK    3  A    between atoms: C_3  and  N_2 
REMARK    4  A    between atoms: C_4  and  C_3 
REMARK       I    between atoms: N_8  and  C_4 
REMARK    5  A    between atoms: C_12  and  N_8 
ROOT
ATOM      1  N   UNL d   1     -39.559  15.202  20.540  0.00  0.00    -0.223 N 
ATOM      2  C   UNL d   1     -38.882  15.630  20.333  0.00  0.00     0.112 C 
ENDROOT
BRANCH   1   3
ATOM      3  S   UNL d   1     -39.795  15.174  21.329  0.00  0.00     0.272 S 
ATOM      4  O   UNL d   1     -40.443  15.619  21.582  0.00  0.00    -0.200 OA
ATOM      5  O   UNL d   1     -39.196  14.818  20.891  0.00  0.00    -0.200 OA
BRANCH   3   6
ATOM      6  C   UNL d   1     -39.386  14.701  21.870  0.00  0.00     0.104 A 
ATOM      7  C   UNL d   1     -39.516  13.884  21.893  0.00  0.00     0.013 A 
ATOM      8  C   UNL d   1     -39.100  13.415  22.440  0.00  0.00     0.001 A 
ATOM      9  C   UNL d   1     -38.559  13.762  22.957  0.00  0.00     0.000 A 
ATOM     10  C   UNL d   1     -38.429  14.579  22.934  0.00  0.00     0.001 A 
ATOM     11  C   UNL d   1     -38.149  13.294  23.498  0.00  0.00     0.000 C 
ATOM     12  C   UNL d   1     -38.840  15.047  22.393  0.00  0.00     0.013 A 
ENDBRANCH   3   6
ENDBRANCH   1   3
BRANCH   1  13
ATOM     13  C   UNL d   1     -39.992  14.808  19.958  0.00  0.00     0.154 C 
BRANCH  13  14
ATOM     14  C   UNL d   1     -40.050  15.129  19.201  0.00  0.00     0.298 C 
ATOM     15  N   UNL d   1     -40.494  14.738  18.623  0.00  0.00    -0.207 NA
ATOM     16  O   UNL d   1     -39.665  15.839  19.021  0.00  0.00    -0.264 OA
BRANCH  15  17
ATOM     17  C   UNL d   1     -40.552  15.059  17.866  0.00  0.00     0.085 A 
ATOM     18  C   UNL d   1     -40.018  14.839  17.285  0.00  0.00     0.019 A 
ATOM     19  C   UNL d   1     -40.076  15.160  16.527  0.00  0.00     0.002 A 
ATOM     20  C   UNL d   1     -40.673  15.702  16.355  0.00  0.00     0.000 A 
ATOM     21  C   UNL d   1     -41.210  15.922  16.944  0.00  0.00     0.002 A 
ATOM     22  C   UNL d   1     -41.147  15.599  17.696  0.00  0.00     0.019 A 
ENDBRANCH  15  17
ENDBRANCH  13  14
ENDBRANCH   1  13
TORSDOF 5
ENDMDL
MODEL 4
REMARK VINA RESULT:      -7.1      1.104      1.522
REMARK  5 active torsions:
REMARK  status: ('A' for Active; 'I' for Inactive)
REMARK    1  A    between atoms: N_2  and  S_1 
REMARK    2  A    between atoms: C_5  and  S_1 
REMARK    3  A    between atoms: C_3  and  N_2 
REMARK    4  A    between atoms: C_4  and  C_3 
REMARK       I    between atoms: N_8  and  C_4 
REMARK    5  A    between atoms: C_12  and  N_8 
ROOT
ATOM      1  N   UNL d   1     -47.599  13.450  22.877  0.00  0.00    -0.223 N 
ATOM      2  C   UNL d   1     -47.546  12.961  23.542  0.00  0.00     0.112 C 
ENDROOT
BRANCH   1   3
ATOM      3  S   UNL d   1     -48.328  13.553  22.507  0.00  0.00     0.272 S 
ATOM      4  O   UNL d   1     -48.515  13.112  21.834  0.00  0.00    -0.200 OA
ATOM      5  O   UNL d   1     -47.961  13.884  23.166  0.00  0.00    -0.200 OA
BRANCH   3   6
ATOM      6  C   UNL d   1     -48.874  14.097  22.807  0.00  0.00     0.104 A 
ATOM      7  C   UNL d   1     -49.474  13.848  23.319  0.00  0.00     0.013 A 
ATOM      8  C   UNL d   1     -50.020  14.401  23.616  0.00  0.00     0.001 A 
ATOM      9  C   UNL d   1     -49.963  15.196  23.401  0.00  0.00     0.000 A 
ATOM     10  C   UNL d   1     -49.364  15.445  22.889  0.00  0.00     0.001 A 
ATOM     11  C   UNL d   1     -50.506  15.741  23.698  0.00  0.00     0.000 C 
ATOM     12  C   UNL d   1     -48.821  14.899  22.592  0.00  0.00     0.013 A 
ENDBRANCH   3   6
ENDBRANCH   1   3
BRANCH   1  13
ATOM     13  C   UNL d   1     -46.926  13.830  22.590  0.00  0.00     0.154 C 
BRANCH  13  14
ATOM     14  C   UNL d   1     -46.188  13.467  22.657  0.00  0.00     0.298 C 
ATOM     15  N   UNL d   1     -45.799  13.201  21.977  0.00  0.00    -0.207 NA
ATOM     16  O   UNL d   1     -45.840  13.370  23.401  0.00  0.00    -0.264 OA
BRANCH  15  17
ATOM     17  C   UNL d   1     -45.062  12.838  22.044  0.00  0.00     0.085 A 
ATOM     18  C   UNL d   1     -44.986  12.139  22.464  0.00  0.00     0.019 A 
ATOM     19  C   UNL d   1     -44.248  11.776  22.531  0.00  0.00     0.002 A 
ATOM     20  C   UNL d   1     -43.587  12.118  22.175  0.00  0.00     0.000 A 
ATOM     21  C   UNL d   1     -43.668  12.824  21.752  0.00  0.00     0.002 A 
ATOM     22  C   UNL d   1     -44.405  13.180  21.689  0.00  0.00     0.019 A 
ENDBRANCH  15  17
ENDBRANCH  13  14
ENDBRANCH   1  13
TORSDOF 5
ENDMDL
MODEL 5
REMARK VINA RESULT:      -6.7      7.919      9.578
REMARK  5 active torsions:
REMARK  status: ('A' for Active; 'I' for Inactive)
REMARK    1  A    between atoms: N_2  and  S_1 
REMARK    2  A    between atoms: C_5  and  S_1 
REMARK    3  A    between atoms: C_3  and  N_2 
REMARK    4  A    between atoms: C_4  and  C_3 
REMARK       I    between atoms: N_8  and  C_4 
REMARK    5  A    between atoms: C_12  and  N_8 
ROOT
ATOM      1  N   UNL d   1     -39.993  14.758  18.731  0.00  0.00    -0.223 N 
ATOM      2  C   UNL d   1     -40.460  14.136  18.449  0.00  0.00     0.112 C 
ENDROOT
BRANCH   1   3
ATOM      3  S   UNL d   1     -40.248  15.192  19.383  0.00  0.00     0.272 S 
ATOM      4  O   UNL d   1     -40.724  15.858  19.276  0.00  0.00    -0.200 OA
ATOM      5  O   UNL d   1     -39.783  14.520  19.280  0.00  0.00    -0.200 OA
BRANCH   3   6
ATOM      6  C   UNL d   1     -40.027  14.963  20.147  0.00  0.00     0.104 A 
ATOM      7  C   UNL d   1     -39.367  15.304  20.511  0.00  0.00     0.013 A 
ATOM      8  C   UNL d   1     -39.152  15.068  21.280  0.00  0.00     0.001 A 
ATOM      9  C   UNL d   1     -39.595  14.498  21.678  0.00  0.00     0.000 A 
ATOM     10  C   UNL d   1     -40.255  14.157  21.314  0.00  0.00     0.001 A 
ATOM     11  C   UNL d   1     -39.379  14.267  22.440  0.00  0.00     0.000 C 
ATOM     12  C   UNL d   1     -40.471  14.388  20.552  0.00  0.00     0.013 A 
ENDBRANCH   3   6
ENDBRANCH   1   3
BRANCH   1  13
ATOM     13  C   UNL d   1     -39.280  14.940  18.359  0.00  0.00     0.154 C 
BRANCH  13  14
ATOM     14  C   UNL d   1     -39.139  14.680  17.589  0.00  0.00     0.298 C 
ATOM     15  N   UNL d   1     -38.362  14.610  17.316  0.00  0.00    -0.207 NA
ATOM     16  O   UNL d   1     -39.773  14.489  17.094  0.00  0.00    -0.264 OA
BRANCH  15  17
ATOM     17  C   UNL d   1     -38.221  14.350  16.546  0.00  0.00     0.085 A 
ATOM     18  C   UNL d   1     -38.221  14.885  15.925  0.00  0.00     0.019 A 
ATOM     19  C   UNL d   1     -38.080  14.625  15.156  0.00  0.00     0.002 A 
ATOM     20  C   UNL d   1     -37.940  13.825  15.011  0.00  0.00     0.000 A 
ATOM     21  C   UNL d   1     -37.941  13.288  15.640  0.00  0.00     0.002 A 
ATOM     22  C   UNL d   1     -38.081  13.553  16.404  0.00  0.00     0.019 A 
ENDBRANCH  15  17
ENDBRANCH  13  14
ENDBRANCH   1  13
TORSDOF 5
ENDMDL
MODEL 6
REMARK VINA RESULT:      -6.4      8.476     10.214
REMARK  5 active torsions:
REMARK  status: ('A' for Active; 'I' for Inactive)
REMARK    1  A    between atoms: N_2  and  S_1 
REMARK    2  A    between atoms: C_5  and  S_1 
REMARK    3  A    between atoms: C_3  and  N_2 
REMARK    4  A    between atoms: C_4  and  C_3 
REMARK       I    between atoms: N_8  and  C_4 
REMARK    5  A    between atoms: C_12  and  N_8 
ROOT
ATOM      1  N   UNL d   1     -38.793  15.138  18.022  0.00  0.00    -0.223 N 
ATOM      2  C   UNL d   1     -38.155  15.658  18.107  0.00  0.00     0.112 C 
ENDROOT
BRANCH   1   3
ATOM      3  S   UNL d   1     -39.217  15.130  17.316  0.00  0.00     0.272 S 
ATOM      4  O   UNL d   1     -39.964  15.480  17.279  0.00  0.00    -0.200 OA
ATOM      5  O   UNL d   1     -38.481  14.847  17.553  0.00  0.00    -0.200 OA
BRANCH   3   6
ATOM      6  C   UNL d   1     -38.896  14.773  16.641  0.00  0.00     0.104 A 
ATOM      7  C   UNL d   1     -38.528  15.232  16.061  0.00  0.00     0.013 A 
ATOM      8  C   UNL d   1     -38.208  14.866  15.386  0.00  0.00     0.001 A 
ATOM      9  C   UNL d   1     -38.258  14.048  15.295  0.00  0.00     0.000 A 
ATOM     10  C   UNL d   1     -38.627  13.589  15.876  0.00  0.00     0.001 A 
ATOM     11  C   UNL d   1     -37.940  13.688  14.625  0.00  0.00     0.000 C 
ATOM     12  C   UNL d   1     -38.945  13.948  16.546  0.00  0.00     0.013 A 
ENDBRANCH   3   6
ENDBRANCH   1   3
BRANCH   1  13
ATOM     13  C   UNL d   1     -39.000  14.634  18.641  0.00  0.00     0.154 C 
BRANCH  13  14
ATOM     14  C   UNL d   1     -38.984  14.908  19.419  0.00  0.00     0.298 C 
ATOM     15  N   UNL d   1     -39.441  14.531  19.995  0.00  0.00    -0.207 NA
ATOM     16  O   UNL d   1     -38.513  15.558  19.619  0.00  0.00    -0.264 OA
BRANCH  15  17
ATOM     17  C   UNL d   1     -39.426  14.806  20.773  0.00  0.00     0.085 A 
ATOM     18  C   UNL d   1     -39.896  15.439  20.993  0.00  0.00     0.019 A 
ATOM     19  C   UNL d   1     -39.881  15.714  21.771  0.00  0.00     0.002 A 
ATOM     20  C   UNL d   1     -39.391  15.350  22.326  0.00  0.00     0.000 A 
ATOM     21  C   UNL d   1     -38.917  14.711  22.099  0.00  0.00     0.002 A 
ATOM     22  C   UNL d   1     -38.937  14.443  21.324  0.00  0.00     0.019 A 
ENDBRANCH  15  17
ENDBRANCH  13  14
ENDBRANCH   1  13
TORSDOF 5
ENDMDL
MODEL 7
REMARK VINA RESULT:      -5.4      8.300      8.785
REMARK  5 active torsions:
REMARK  status: ('A' for Active; 'I' for Inactive)
REMARK    1  A    between atoms: N_2  and  S_1 
REMARK    2  A    between atoms: C_5  and  S_1 
REMARK    3  A    between atoms: C_3  and  N_2 
REMARK    4  A    between atoms: C_4  and  C_3 
REMARK       I    between atoms: N_8  and  C_4 
REMARK    5  A    between atoms: C_12  and  N_8 
ROOT
ATOM      1  N   UNL d   1     -39.257  14.457  19.129  0.00  0.00    -0.223 N 
ATOM      2  C   UNL d   1     -38.532  14.849  19.057  0.00  0.00     0.112 C 
ENDROOT
BRANCH   1   3
ATOM      3  S   UNL d   1     -39.595  14.106  18.464  0.00  0.00     0.272 S 
ATOM      4  O   UNL d   1     -39.488  13.299  18.323  0.00  0.00    -0.200 OA
ATOM      5  O   UNL d   1     -39.583  14.869  18.774  0.00  0.00    -0.200 OA
BRANCH   3   6
ATOM      6  C   UNL d   1     -40.042  14.560  17.936  0.00  0.00     0.104 A 
ATOM      7  C   UNL d   1     -40.843  14.703  18.082  0.00  0.00     0.013 A 
ATOM      8  C   UNL d   1     -41.286  15.160  17.546  0.00  0.00     0.001 A 
ATOM      9  C   UNL d   1     -40.928  15.469  16.871  0.00  0.00     0.000 A 
ATOM     10  C   UNL d   1     -40.127  15.326  16.724  0.00  0.00     0.001 A 
ATOM     11  C   UNL d   1     -41.370  15.922  16.341  0.00  0.00     0.000 C 
ATOM     12  C   UNL d   1     -39.685  14.874  17.253  0.00  0.00     0.013 A 
ENDBRANCH   3   6
ENDBRANCH   1   3
BRANCH   1  13
ATOM     13  C   UNL d   1     -39.635  14.419  19.861  0.00  0.00     0.154 C 
BRANCH  13  14
ATOM     14  C   UNL d   1     -39.189  14.366  20.552  0.00  0.00     0.298 C 
ATOM     15  N   UNL d   1     -39.541  14.087  21.246  0.00  0.00    -0.207 NA
ATOM     16  O   UNL d   1     -38.393  14.590  20.550  0.00  0.00    -0.264 OA
BRANCH  15  17
ATOM     17  C   UNL d   1     -39.095  14.033  21.938  0.00  0.00     0.085 A 
ATOM     18  C   UNL d   1     -38.692  13.342  22.113  0.00  0.00     0.019 A 
ATOM     19  C   UNL d   1     -38.246  13.288  22.805  0.00  0.00     0.002 A 
ATOM     20  C   UNL d   1     -38.205  13.932  23.319  0.00  0.00     0.000 A 
ATOM     21  C   UNL d   1     -38.613  14.628  23.138  0.00  0.00     0.002 A 
ATOM     22  C   UNL d   1     -39.055  14.675  22.448  0.00  0.00     0.019 A 
ENDBRANCH  15  17
ENDBRANCH  13  14
ENDBRANCH   1  13
TORSDOF 5
ENDMDL
MODEL 8
REMARK VINA RESULT:      -4.9      0.985      4.883
REMARK  5 active torsions:
REMARK  status: ('A' for Active; 'I' for Inactive)
REMARK    1  A    between atoms: N_2  and  S_1 
REMARK    2  A    between atoms: C_5  and  S_1 
REMARK    3  A    between atoms: C_3  and  N_2 
REMARK    4  A    between atoms: C_4  and  C_3 
REMARK       I    between atoms: N_8  and  C_4 
REMARK    5  A    between atoms: C_12  and  N_8 
ROOT
ATOM      1  N   UNL d   1     -47.097  13.053  22.598  0.00  0.00    -0.223 N 
ATOM      2  C   UNL d   1     -47.381  12.718  21.898  0.00  0.00     0.112 C 
ENDROOT
BRANCH   1   3
ATOM      3  S   UNL d   1     -46.288  13.039  22.755  0.00  0.00     0.272 S 
ATOM      4  O   UNL d   1     -45.840  13.729  22.679  0.00  0.00    -0.200 OA
ATOM      5  O   UNL d   1     -46.890  12.478  22.770  0.00  0.00    -0.200 OA
BRANCH   3   6
ATOM      6  C   UNL d   1     -45.921  12.335  22.987  0.00  0.00     0.104 A 
ATOM      7  C   UNL d   1     -46.320  11.794  23.469  0.00  0.00     0.013 A 
ATOM      8  C   UNL d   1     -45.944  11.089  23.698  0.00  0.00     0.001 A 
ATOM      9  C   UNL d   1     -45.176  10.927  23.446  0.00  0.00     0.000 A 
ATOM     10  C   UNL d   1     -44.776  11.468  22.965  0.00  0.00     0.001 A 
ATOM     11  C   UNL d   1     -44.806  10.227  23.676  0.00  0.00     0.000 C 
ATOM     12  C   UNL d   1     -45.145  12.169  22.735  0.00  0.00     0.013 A 
ENDBRANCH   3   6
ENDBRANCH   1   3
BRANCH   1  13
ATOM     13  C   UNL d   1     -47.621  13.398  23.134  0.00  0.00     0.154 C 
BRANCH  13  14
ATOM     14  C   UNL d   1     -48.327  13.728  22.864  0.00  0.00     0.298 C 
ATOM     15  N   UNL d   1     -48.908  13.953  23.408  0.00  0.00    -0.207 NA
ATOM     16  O   UNL d   1     -48.452  13.832  22.053  0.00  0.00    -0.264 OA
BRANCH  15  17
ATOM     17  C   UNL d   1     -49.614  14.284  23.138  0.00  0.00     0.085 A 
ATOM     18  C   UNL d   1     -49.684  15.096  23.063  0.00  0.00     0.019 A 
ATOM     19  C   UNL d   1     -50.390  15.426  22.793  0.00  0.00     0.002 A 
ATOM     20  C   UNL d   1     -51.025  14.937  22.598  0.00  0.00     0.000 A 
ATOM     21  C   UNL d   1     -50.950  14.117  22.675  0.00  0.00     0.002 A 
ATOM     22  C   UNL d   1     -50.245  13.795  22.944  0.00  0.00     0.019 A 
ENDBRANCH  15  17
ENDBRANCH  13  14
ENDBRANCH   1  13
TORSDOF 5
ENDMDL
