MODEL 1
REMARK VINA RESULT:       2.0      0.000      0.000
REMARK  3 active torsions:
REMARK  status: ('A' for Active; 'I' for Inactive)
REMARK    1  A    between atoms: C_2  and  C_1 
REMARK       I    between atoms: N_6  and  C_2 
REMARK    2  A    between atoms: C_7  and  N_6 
REMARK    3  A    between atoms: C_18  and  N_6 
ROOT
ATOM      1  C   UNL d   1      58.159  -1.911  30.279  0.00  0.00     0.270 C 
ATOM      2  N   UNL d   1      58.221  -0.667  30.314  0.00  0.00    -0.274 N 
ATOM      3  O   UNL d   1      57.574  -2.195  30.741  0.00  0.00    -0.266 OA
ENDROOT
BRANCH   2   4
ATOM      4  C   UNL d   1      58.783  -0.343  29.874  0.00  0.00     0.079 A 
ATOM      5  C   UNL d   1      59.505  -0.158  30.110  0.00  0.00     0.116 A 
ATOM      6  S   UNL d   1      59.885   0.151  29.503  0.00  0.00     0.213 S 
ATOM      7  O   UNL d   1      60.265   0.459  28.895  0.00  0.00    -0.217 OA
ATOM      8  O   UNL d   1      60.396   0.162  30.086  0.00  0.00    -0.217 OA
ATOM      9  C   UNL d   1      59.395   0.154  28.895  0.00  0.00     0.100 A 
ATOM     10  C   UNL d   1      58.719  -0.149  29.122  0.00  0.00     0.030 A 
ENDBRANCH   2   4
BRANCH   2  11
ATOM     11  C   UNL d   1      57.706  -0.219  30.770  0.00  0.00     0.067 A 
ATOM     12  C   UNL d   1      57.800  -0.205  31.578  0.00  0.00     0.018 A 
ATOM     13  C   UNL d   1      57.277   0.251  32.045  0.00  0.00     0.002 A 
ATOM     14  C   UNL d   1      56.674   0.680  31.690  0.00  0.00     0.000 A 
ATOM     15  C   UNL d   1      56.582   0.663  30.873  0.00  0.00     0.002 A 
ATOM     16  C   UNL d   1      57.092   0.218  30.406  0.00  0.00     0.018 A 
ENDBRANCH   2  11
BRANCH   1  17
ATOM     17  C   UNL d   1      58.664  -2.381  29.829  0.00  0.00     0.120 A 
ATOM     18  C   UNL d   1      58.433  -2.620  29.058  0.00  0.00     0.305 A 
ATOM     19  O   UNL d   1      58.940  -3.092  28.606  0.00  0.00    -0.273 OA
ATOM     20  O   UNL d   1      57.703  -2.383  28.757  0.00  0.00    -0.259 OA
ATOM     21  C   UNL d   1      59.670  -3.326  28.915  0.00  0.00     0.103 A 
ATOM     22  C   UNL d   1      59.898  -3.090  29.675  0.00  0.00     0.023 A 
ATOM     23  C   UNL d   1      60.172  -3.799  28.455  0.00  0.00     0.025 A 
ATOM     24  C   UNL d   1      59.396  -2.621  30.128  0.00  0.00     0.012 A 
ATOM     25  C   UNL d   1      60.628  -3.327  29.976  0.00  0.00     0.002 A 
ATOM     26  C   UNL d   1      61.132  -3.799  29.522  0.00  0.00     0.000 A 
ATOM     27  C   UNL d   1      60.904  -4.034  28.761  0.00  0.00     0.002 A 
ENDBRANCH   1  17
TORSDOF 3
ENDMDL
MODEL 2
REMARK VINA RESULT:       3.8      1.100      3.945
REMARK  3 active torsions:
REMARK  status: ('A' for Active; 'I' for Inactive)
REMARK    1  A    between atoms: C_2  and  C_1 
REMARK       I    between atoms: N_6  and  C_2 
REMARK    2  A    between atoms: C_7  and  N_6 
REMARK    3  A    between atoms: C_18  and  N_6 
ROOT
ATOM      1  C   UNL d   1      58.332  -1.643  29.796  0.00  0.00     0.270 C 
ATOM      2  N   UNL d   1      59.571  -1.611  29.667  0.00  0.00    -0.274 N 
ATOM      3  O   UNL d   1      58.012  -2.284  29.447  0.00  0.00    -0.266 OA
ENDROOT
BRANCH   2   4
ATOM      4  C   UNL d   1      59.931  -0.996  29.995  0.00  0.00     0.079 A 
ATOM      5  C   UNL d   1      60.059  -0.302  29.657  0.00  0.00     0.116 A 
ATOM      6  S   UNL d   1      60.431   0.150  30.172  0.00  0.00     0.213 S 
ATOM      7  O   UNL d   1      60.803   0.603  30.687  0.00  0.00    -0.217 OA
ATOM      8  O   UNL d   1      60.349   0.591  29.539  0.00  0.00    -0.217 OA
ATOM      9  C   UNL d   1      60.530  -0.266  30.825  0.00  0.00     0.100 A 
ATOM     10  C   UNL d   1      60.223  -0.970  30.717  0.00  0.00     0.030 A 
ENDBRANCH   2   4
BRANCH   2  11
ATOM     11  C   UNL d   1      59.982  -2.196  29.263  0.00  0.00     0.067 A 
ATOM     12  C   UNL d   1      59.672  -2.948  29.231  0.00  0.00     0.018 A 
ATOM     13  C   UNL d   1      60.088  -3.547  28.821  0.00  0.00     0.002 A 
ATOM     14  C   UNL d   1      60.802  -3.376  28.455  0.00  0.00     0.000 A 
ATOM     15  C   UNL d   1      61.112  -2.615  28.490  0.00  0.00     0.002 A 
ATOM     16  C   UNL d   1      60.710  -2.021  28.891  0.00  0.00     0.018 A 
ENDBRANCH   2  11
BRANCH   1  17
ATOM     17  C   UNL d   1      57.900  -1.067  30.196  0.00  0.00     0.120 A 
ATOM     18  C   UNL d   1      57.598  -0.407  29.774  0.00  0.00     0.305 A 
ATOM     19  O   UNL d   1      57.164   0.172  30.174  0.00  0.00    -0.273 OA
ATOM     20  O   UNL d   1      57.737  -0.340  28.964  0.00  0.00    -0.259 OA
ATOM     21  C   UNL d   1      57.029   0.097  30.986  0.00  0.00     0.103 A 
ATOM     22  C   UNL d   1      57.326  -0.554  31.402  0.00  0.00     0.023 A 
ATOM     23  C   UNL d   1      56.592   0.682  31.380  0.00  0.00     0.025 A 
ATOM     24  C   UNL d   1      57.759  -1.131  31.007  0.00  0.00     0.012 A 
ATOM     25  C   UNL d   1      57.187  -0.621  32.212  0.00  0.00     0.002 A 
ATOM     26  C   UNL d   1      56.753  -0.041  32.609  0.00  0.00     0.000 A 
ATOM     27  C   UNL d   1      56.455   0.610  32.193  0.00  0.00     0.002 A 
ENDBRANCH   1  17
TORSDOF 3
ENDMDL
