MODEL 1
REMARK VINA RESULT:      63.5      0.000      0.000
REMARK  3 active torsions:
REMARK  status: ('A' for Active; 'I' for Inactive)
REMARK    1  A    between atoms: C_11  and  N_1 
REMARK    2  A    between atoms: C_3  and  C_6 
REMARK    3  A    between atoms: C_6  and  N_5 
ROOT
ATOM      1  N   UNL d   1     -49.217  27.632  34.558  0.00  0.00    -0.301 N 
ATOM      2  N   UNL d   1     -49.981  26.415  33.723  0.00  0.00    -0.300 N 
ATOM      3  C   UNL d   1     -49.747  27.815  33.932  0.00  0.00     0.100 A 
ATOM      4  C   UNL d   1     -49.081  26.842  34.752  0.00  0.00     0.100 A 
ATOM      5  C   UNL d   1     -49.450  26.233  34.348  0.00  0.00     0.100 A 
ATOM      6  C   UNL d   1     -50.128  27.202  33.516  0.00  0.00     0.100 A 
ENDROOT
BRANCH   2   7
ATOM      7  C   UNL d   1     -50.362  25.803  33.306  0.00  0.00     0.080 C 
BRANCH   7   8
ATOM      8  C   UNL d   1     -51.185  25.751  33.307  0.00  0.00     0.019 A 
ATOM      9  C   UNL d   1     -51.557  24.999  33.308  0.00  0.00     0.022 A 
ATOM     10  C   UNL d   1     -52.380  24.948  33.309  0.00  0.00     0.120 A 
ATOM     11  C   UNL d   1     -51.096  24.321  33.307  0.00  0.00     0.003 A 
ATOM     12  N   UNL d   1     -52.753  24.218  33.309  0.00  0.00    -0.241 NA
ATOM     13  C   UNL d   1     -52.842  25.648  33.309  0.00  0.00     0.213 A 
ATOM     14  C   UNL d   1     -52.291  23.516  33.309  0.00  0.00     0.099 A 
ATOM     15  C   UNL d   1     -51.468  23.568  33.308  0.00  0.00     0.021 A 
ATOM     16  C   UNL d   1     -52.470  26.394  33.309  0.00  0.00     0.044 A 
ATOM     17  O   UNL d   1     -53.664  25.597  33.310  0.00  0.00    -0.285 OA
ATOM     18  C   UNL d   1     -51.647  26.445  33.308  0.00  0.00     0.005 A 
ENDBRANCH   7   8
ENDBRANCH   2   7
BRANCH   1  19
ATOM     19  C   UNL d   1     -48.952  28.375  34.833  0.00  0.00     0.064 A 
ATOM     20  C   UNL d   1     -49.232  29.134  34.728  0.00  0.00     0.018 A 
ATOM     21  C   UNL d   1     -48.816  29.777  35.097  0.00  0.00     0.002 A 
ATOM     22  C   UNL d   1     -48.162  29.646  35.541  0.00  0.00     0.000 A 
ATOM     23  C   UNL d   1     -47.884  28.868  35.642  0.00  0.00     0.002 A 
ATOM     24  C   UNL d   1     -48.279  28.239  35.290  0.00  0.00     0.018 A 
ENDBRANCH   1  19
TORSDOF 3
ENDMDL
