MODEL 1
REMARK VINA RESULT:      -4.3      0.000      0.000
REMARK  5 active torsions:
REMARK  status: ('A' for Active; 'I' for Inactive)
REMARK    1  A    between atoms: C_2  and  C_1 
REMARK       I    between atoms: N_3  and  C_1 
REMARK    2  A    between atoms: C_8  and  N_3 
REMARK    3  A    between atoms: C_5  and  C_4 
REMARK    4  A    between atoms: O_15  and  C_12 
REMARK    5  A    between atoms: O_16  and  C_13 
ROOT
ATOM      1  C   UNL d   1      58.184  -0.349  30.679  0.00  0.00     0.279 C 
ATOM      2  N   UNL d   1      57.342  -0.449  30.709  0.00  0.00    -0.208 NA
ATOM      3  O   UNL d   1      58.587  -0.080  31.328  0.00  0.00    -0.265 OA
ENDROOT
BRANCH   1   4
ATOM      4  C   UNL d   1      58.572  -0.533  29.975  0.00  0.00     0.062 A 
ATOM      5  C   UNL d   1      58.508  -1.310  29.685  0.00  0.00     0.029 A 
ATOM      6  C   UNL d   1      58.890  -1.513  28.981  0.00  0.00     0.096 A 
ATOM      7  C   UNL d   1      59.342  -0.923  28.566  0.00  0.00     0.048 A 
ATOM      8  C   UNL d   1      59.391  -0.159  28.873  0.00  0.00     0.096 A 
ATOM      9  C   UNL d   1      59.011   0.040  29.572  0.00  0.00     0.029 A 
BRANCH   6  10
ATOM     10  O   UNL d   1      58.809  -2.301  28.711  0.00  0.00    -0.328 OA
ATOM     11  C   UNL d   1      59.385  -2.877  28.906  0.00  0.00     0.181 C 
ENDBRANCH   6  10
BRANCH   8  12
ATOM     12  O   UNL d   1      59.842   0.427  28.457  0.00  0.00    -0.328 OA
ATOM     13  C   UNL d   1      60.645   0.523  28.623  0.00  0.00     0.181 C 
ENDBRANCH   8  12
ENDBRANCH   1   4
BRANCH   2  14
ATOM     14  C   UNL d   1      56.966  -0.260  31.420  0.00  0.00     0.085 A 
ATOM     15  C   UNL d   1      56.638  -0.870  31.870  0.00  0.00     0.022 A 
ATOM     16  C   UNL d   1      56.272  -0.739  32.551  0.00  0.00     0.041 A 
ATOM     17  C   UNL d   1      56.209   0.065  32.841  0.00  0.00     0.003 A 
ATOM     18  C   UNL d   1      56.532   0.682  32.401  0.00  0.00     0.002 A 
ATOM     19  C   UNL d   1      56.910   0.508  31.689  0.00  0.00     0.019 A 
BRANCH  16  20
ATOM     20  C   UNL d   1      55.946  -1.377  32.992  0.00  0.00     0.196 C 
ATOM     21  O   UNL d   1      56.388  -2.068  33.120  0.00  0.00    -0.287 OA
ATOM     22  C   UNL d   1      55.181  -1.300  33.292  0.00  0.00     0.045 C 
ENDBRANCH  16  20
ENDBRANCH   2  14
TORSDOF 5
ENDMDL
MODEL 2
REMARK VINA RESULT:      -3.2      1.135      2.039
REMARK  5 active torsions:
REMARK  status: ('A' for Active; 'I' for Inactive)
REMARK    1  A    between atoms: C_2  and  C_1 
REMARK       I    between atoms: N_3  and  C_1 
REMARK    2  A    between atoms: C_8  and  N_3 
REMARK    3  A    between atoms: C_5  and  C_4 
REMARK    4  A    between atoms: O_15  and  C_12 
REMARK    5  A    between atoms: O_16  and  C_13 
ROOT
ATOM      1  C   UNL d   1      57.502  -0.824  30.943  0.00  0.00     0.279 C 
ATOM      2  N   UNL d   1      57.461  -0.092  31.372  0.00  0.00    -0.208 NA
ATOM      3  O   UNL d   1      57.067  -1.463  31.183  0.00  0.00    -0.265 OA
ENDROOT
BRANCH   1   4
ATOM      4  C   UNL d   1      57.996  -0.859  30.283  0.00  0.00     0.062 A 
ATOM      5  C   UNL d   1      58.274  -0.143  29.963  0.00  0.00     0.029 A 
ATOM      6  C   UNL d   1      58.768  -0.160  29.303  0.00  0.00     0.096 A 
ATOM      7  C   UNL d   1      58.985  -0.908  28.961  0.00  0.00     0.048 A 
ATOM      8  C   UNL d   1      58.697  -1.605  29.296  0.00  0.00     0.096 A 
ATOM      9  C   UNL d   1      58.206  -1.587  29.952  0.00  0.00     0.029 A 
BRANCH   6  10
ATOM     10  O   UNL d   1      59.034   0.575  29.001  0.00  0.00    -0.328 OA
ATOM     11  C   UNL d   1      59.816   0.658  28.716  0.00  0.00     0.181 C 
ENDBRANCH   6  10
BRANCH   8  12
ATOM     12  O   UNL d   1      58.915  -2.350  28.952  0.00  0.00    -0.328 OA
ATOM     13  C   UNL d   1      59.647  -2.687  29.132  0.00  0.00     0.181 C 
ENDBRANCH   8  12
ENDBRANCH   1   4
BRANCH   2  14
ATOM     14  C   UNL d   1      56.963  -0.071  32.031  0.00  0.00     0.085 A 
ATOM     15  C   UNL d   1      57.264   0.211  32.746  0.00  0.00     0.022 A 
ATOM     16  C   UNL d   1      56.828   0.250  33.398  0.00  0.00     0.041 A 
ATOM     17  C   UNL d   1      56.011  -0.008  33.369  0.00  0.00     0.003 A 
ATOM     18  C   UNL d   1      55.701  -0.291  32.660  0.00  0.00     0.002 A 
ATOM     19  C   UNL d   1      56.187  -0.318  31.994  0.00  0.00     0.019 A 
BRANCH  16  20
ATOM     20  C   UNL d   1      57.156   0.541  34.116  0.00  0.00     0.196 C 
ATOM     21  O   UNL d   1      57.972   0.681  34.178  0.00  0.00    -0.287 OA
ATOM     22  C   UNL d   1      56.651   0.682  34.753  0.00  0.00     0.045 C 
ENDBRANCH  16  20
ENDBRANCH   2  14
TORSDOF 5
ENDMDL
MODEL 3
REMARK VINA RESULT:      -3.1      1.511      4.823
REMARK  5 active torsions:
REMARK  status: ('A' for Active; 'I' for Inactive)
REMARK    1  A    between atoms: C_2  and  C_1 
REMARK       I    between atoms: N_3  and  C_1 
REMARK    2  A    between atoms: C_8  and  N_3 
REMARK    3  A    between atoms: C_5  and  C_4 
REMARK    4  A    between atoms: O_15  and  C_12 
REMARK    5  A    between atoms: O_16  and  C_13 
ROOT
ATOM      1  C   UNL d   1      57.431   0.080  31.262  0.00  0.00     0.279 C 
ATOM      2  N   UNL d   1      57.913   0.682  30.906  0.00  0.00    -0.208 NA
ATOM      3  O   UNL d   1      57.301  -0.620  30.876  0.00  0.00    -0.265 OA
ENDROOT
BRANCH   1   4
ATOM      4  C   UNL d   1      57.105   0.232  32.005  0.00  0.00     0.062 A 
ATOM      5  C   UNL d   1      57.625   0.347  32.644  0.00  0.00     0.029 A 
ATOM      6  C   UNL d   1      57.317   0.500  33.394  0.00  0.00     0.096 A 
ATOM      7  C   UNL d   1      56.473   0.537  33.499  0.00  0.00     0.048 A 
ATOM      8  C   UNL d   1      55.978   0.419  32.851  0.00  0.00     0.096 A 
ATOM      9  C   UNL d   1      56.285   0.267  32.107  0.00  0.00     0.029 A 
BRANCH   6  10
ATOM     10  O   UNL d   1      57.862   0.613  34.020  0.00  0.00    -0.328 OA
ATOM     11  C   UNL d   1      57.593   0.682  34.809  0.00  0.00     0.181 C 
ENDBRANCH   6  10
BRANCH   8  12
ATOM     12  O   UNL d   1      55.137   0.457  32.960  0.00  0.00    -0.328 OA
ATOM     13  C   UNL d   1      54.819   0.425  33.721  0.00  0.00     0.181 C 
ENDBRANCH   8  12
ENDBRANCH   1   4
BRANCH   2  14
ATOM     14  C   UNL d   1      58.233   0.517  30.163  0.00  0.00     0.085 A 
ATOM     15  C   UNL d   1      59.032   0.316  30.110  0.00  0.00     0.022 A 
ATOM     16  C   UNL d   1      59.379   0.151  29.426  0.00  0.00     0.041 A 
ATOM     17  C   UNL d   1      58.914   0.180  28.706  0.00  0.00     0.003 A 
ATOM     18  C   UNL d   1      58.115   0.379  28.747  0.00  0.00     0.002 A 
ATOM     19  C   UNL d   1      57.783   0.546  29.483  0.00  0.00     0.019 A 
BRANCH  16  20
ATOM     20  C   UNL d   1      60.195  -0.051  29.397  0.00  0.00     0.196 C 
ATOM     21  O   UNL d   1      60.454  -0.790  29.670  0.00  0.00    -0.287 OA
ATOM     22  C   UNL d   1      60.728   0.500  29.092  0.00  0.00     0.045 C 
ENDBRANCH  16  20
ENDBRANCH   2  14
TORSDOF 5
ENDMDL
MODEL 4
REMARK VINA RESULT:      -3.1      1.323      4.602
REMARK  5 active torsions:
REMARK  status: ('A' for Active; 'I' for Inactive)
REMARK    1  A    between atoms: C_2  and  C_1 
REMARK       I    between atoms: N_3  and  C_1 
REMARK    2  A    between atoms: C_8  and  N_3 
REMARK    3  A    between atoms: C_5  and  C_4 
REMARK    4  A    between atoms: O_15  and  C_12 
REMARK    5  A    between atoms: O_16  and  C_13 
ROOT
ATOM      1  C   UNL d   1      57.282   0.305  31.231  0.00  0.00     0.279 C 
ATOM      2  N   UNL d   1      57.980  -0.143  31.051  0.00  0.00    -0.208 NA
ATOM      3  O   UNL d   1      56.875   0.681  30.642  0.00  0.00    -0.265 OA
ENDROOT
BRANCH   1   4
ATOM      4  C   UNL d   1      57.037   0.342  32.018  0.00  0.00     0.062 A 
ATOM      5  C   UNL d   1      56.230   0.223  32.183  0.00  0.00     0.029 A 
ATOM      6  C   UNL d   1      55.967   0.257  32.965  0.00  0.00     0.096 A 
ATOM      7  C   UNL d   1      56.526   0.412  33.587  0.00  0.00     0.048 A 
ATOM      8  C   UNL d   1      57.321   0.527  33.400  0.00  0.00     0.096 A 
ATOM      9  C   UNL d   1      57.581   0.493  32.623  0.00  0.00     0.029 A 
BRANCH   6  10
ATOM     10  O   UNL d   1      55.151   0.134  33.103  0.00  0.00    -0.328 OA
ATOM     11  C   UNL d   1      54.817   0.302  33.852  0.00  0.00     0.181 C 
ENDBRANCH   6  10
BRANCH   8  12
ATOM     12  O   UNL d   1      57.876   0.682  34.023  0.00  0.00    -0.328 OA
ATOM     13  C   UNL d   1      57.623   0.682  34.808  0.00  0.00     0.181 C 
ENDBRANCH   8  12
ENDBRANCH   1   4
BRANCH   2  14
ATOM     14  C   UNL d   1      58.215  -0.172  30.259  0.00  0.00     0.085 A 
ATOM     15  C   UNL d   1      58.505  -0.883  29.957  0.00  0.00     0.022 A 
ATOM     16  C   UNL d   1      58.739  -0.958  29.212  0.00  0.00     0.041 A 
ATOM     17  C   UNL d   1      58.692  -0.278  28.691  0.00  0.00     0.003 A 
ATOM     18  C   UNL d   1      58.404   0.437  28.982  0.00  0.00     0.002 A 
ATOM     19  C   UNL d   1      58.167   0.480  29.771  0.00  0.00     0.019 A 
BRANCH  16  20
ATOM     20  C   UNL d   1      59.031  -1.692  28.926  0.00  0.00     0.196 C 
ATOM     21  O   UNL d   1      58.512  -2.323  28.780  0.00  0.00    -0.287 OA
ATOM     22  C   UNL d   1      59.842  -1.772  28.794  0.00  0.00     0.045 C 
ENDBRANCH  16  20
ENDBRANCH   2  14
TORSDOF 5
ENDMDL
MODEL 5
REMARK VINA RESULT:      -1.9      1.618      3.453
REMARK  5 active torsions:
REMARK  status: ('A' for Active; 'I' for Inactive)
REMARK    1  A    between atoms: C_2  and  C_1 
REMARK       I    between atoms: N_3  and  C_1 
REMARK    2  A    between atoms: C_8  and  N_3 
REMARK    3  A    between atoms: C_5  and  C_4 
REMARK    4  A    between atoms: O_15  and  C_12 
REMARK    5  A    between atoms: O_16  and  C_13 
ROOT
ATOM      1  C   UNL d   1      59.390  -2.039  29.163  0.00  0.00     0.279 C 
ATOM      2  N   UNL d   1      58.623  -1.679  29.219  0.00  0.00    -0.208 NA
ATOM      3  O   UNL d   1      60.055  -1.609  29.327  0.00  0.00    -0.265 OA
ENDROOT
BRANCH   1   4
ATOM      4  C   UNL d   1      59.430  -2.832  28.939  0.00  0.00     0.062 A 
ATOM      5  C   UNL d   1      60.183  -3.174  28.847  0.00  0.00     0.029 A 
ATOM      6  C   UNL d   1      60.243  -3.966  28.624  0.00  0.00     0.096 A 
ATOM      7  C   UNL d   1      59.534  -4.418  28.491  0.00  0.00     0.048 A 
ATOM      8  C   UNL d   1      58.799  -4.057  28.588  0.00  0.00     0.096 A 
ATOM      9  C   UNL d   1      58.741  -3.270  28.810  0.00  0.00     0.029 A 
BRANCH   6  10
ATOM     10  O   UNL d   1      61.012  -4.287  28.539  0.00  0.00    -0.328 OA
ATOM     11  C   UNL d   1      61.133  -5.114  28.570  0.00  0.00     0.181 C 
ENDBRANCH   6  10
BRANCH   8  12
ATOM     12  O   UNL d   1      58.093  -4.510  28.455  0.00  0.00    -0.328 OA
ATOM     13  C   UNL d   1      58.124  -5.335  28.479  0.00  0.00     0.181 C 
ENDBRANCH   8  12
ENDBRANCH   1   4
BRANCH   2  14
ATOM     14  C   UNL d   1      58.596  -0.884  29.444  0.00  0.00     0.085 A 
ATOM     15  C   UNL d   1      58.293  -0.692  30.187  0.00  0.00     0.022 A 
ATOM     16  C   UNL d   1      58.248   0.048  30.444  0.00  0.00     0.041 A 
ATOM     17  C   UNL d   1      58.523   0.682  29.936  0.00  0.00     0.003 A 
ATOM     18  C   UNL d   1      58.828   0.502  29.192  0.00  0.00     0.002 A 
ATOM     19  C   UNL d   1      58.860  -0.288  28.954  0.00  0.00     0.019 A 
BRANCH  16  20
ATOM     20  C   UNL d   1      57.936   0.219  31.206  0.00  0.00     0.196 C 
ATOM     21  O   UNL d   1      58.416   0.560  31.790  0.00  0.00    -0.287 OA
ATOM     22  C   UNL d   1      57.144   0.042  31.358  0.00  0.00     0.045 C 
ENDBRANCH  16  20
ENDBRANCH   2  14
TORSDOF 5
ENDMDL
MODEL 6
REMARK VINA RESULT:      -1.8      1.702      5.238
REMARK  5 active torsions:
REMARK  status: ('A' for Active; 'I' for Inactive)
REMARK    1  A    between atoms: C_2  and  C_1 
REMARK       I    between atoms: N_3  and  C_1 
REMARK    2  A    between atoms: C_8  and  N_3 
REMARK    3  A    between atoms: C_5  and  C_4 
REMARK    4  A    between atoms: O_15  and  C_12 
REMARK    5  A    between atoms: O_16  and  C_13 
ROOT
ATOM      1  C   UNL d   1      56.544  -0.261  32.469  0.00  0.00     0.279 C 
ATOM      2  N   UNL d   1      56.925   0.280  31.937  0.00  0.00    -0.208 NA
ATOM      3  O   UNL d   1      56.583  -1.058  32.337  0.00  0.00    -0.265 OA
ENDROOT
BRANCH   1   4
ATOM      4  C   UNL d   1      56.139   0.052  33.116  0.00  0.00     0.062 A 
ATOM      5  C   UNL d   1      56.572   0.214  33.807  0.00  0.00     0.029 A 
ATOM      6  C   UNL d   1      56.183   0.527  34.464  0.00  0.00     0.096 A 
ATOM      7  C   UNL d   1      55.346   0.678  34.422  0.00  0.00     0.048 A 
ATOM      8  C   UNL d   1      54.939   0.509  33.726  0.00  0.00     0.096 A 
ATOM      9  C   UNL d   1      55.326   0.198  33.074  0.00  0.00     0.029 A 
BRANCH   6  10
ATOM     10  O   UNL d   1      56.642   0.681  35.148  0.00  0.00    -0.328 OA
ATOM     11  C   UNL d   1      56.312   0.583  35.911  0.00  0.00     0.181 C 
ENDBRANCH   6  10
BRANCH   8  12
ATOM     12  O   UNL d   1      54.104   0.661  33.687  0.00  0.00    -0.328 OA
ATOM     13  C   UNL d   1      53.649   0.635  34.375  0.00  0.00     0.181 C 
ENDBRANCH   8  12
ENDBRANCH   1   4
BRANCH   2  14
ATOM     14  C   UNL d   1      57.328  -0.046  31.293  0.00  0.00     0.085 A 
ATOM     15  C   UNL d   1      58.017   0.323  31.027  0.00  0.00     0.022 A 
ATOM     16  C   UNL d   1      58.431   0.049  30.420  0.00  0.00     0.041 A 
ATOM     17  C   UNL d   1      58.162  -0.658  30.017  0.00  0.00     0.003 A 
ATOM     18  C   UNL d   1      57.476  -1.035  30.274  0.00  0.00     0.002 A 
ATOM     19  C   UNL d   1      57.064  -0.719  30.916  0.00  0.00     0.019 A 
BRANCH  16  20
ATOM     20  C   UNL d   1      59.131   0.442  30.167  0.00  0.00     0.196 C 
ATOM     21  O   UNL d   1      59.263   0.585  29.360  0.00  0.00    -0.287 OA
ATOM     22  C   UNL d   1      59.679   0.681  30.735  0.00  0.00     0.045 C 
ENDBRANCH  16  20
ENDBRANCH   2  14
TORSDOF 5
ENDMDL
MODEL 7
REMARK VINA RESULT:      -1.3      8.888      9.446
REMARK  5 active torsions:
REMARK  status: ('A' for Active; 'I' for Inactive)
REMARK    1  A    between atoms: C_2  and  C_1 
REMARK       I    between atoms: N_3  and  C_1 
REMARK    2  A    between atoms: C_8  and  N_3 
REMARK    3  A    between atoms: C_5  and  C_4 
REMARK    4  A    between atoms: O_15  and  C_12 
REMARK    5  A    between atoms: O_16  and  C_13 
ROOT
ATOM      1  C   UNL d   1      59.735  -9.356  32.500  0.00  0.00     0.279 C 
ATOM      2  N   UNL d   1      59.444  -9.723  33.208  0.00  0.00    -0.208 NA
ATOM      3  O   UNL d   1      60.382  -8.871  32.527  0.00  0.00    -0.265 OA
ENDROOT
BRANCH   1   4
ATOM      4  C   UNL d   1      59.339  -9.509  31.793  0.00  0.00     0.062 A 
ATOM      5  C   UNL d   1      59.791  -9.586  31.099  0.00  0.00     0.029 A 
ATOM      6  C   UNL d   1      59.412  -9.740  30.382  0.00  0.00     0.096 A 
ATOM      7  C   UNL d   1      58.564  -9.817  30.367  0.00  0.00     0.048 A 
ATOM      8  C   UNL d   1      58.137  -9.737  31.067  0.00  0.00     0.096 A 
ATOM      9  C   UNL d   1      58.515  -9.584  31.778  0.00  0.00     0.029 A 
BRANCH   6  10
ATOM     10  O   UNL d   1      59.891  -9.812  29.699  0.00  0.00    -0.328 OA
ATOM     11  C   UNL d   1      59.804  -9.277  29.062  0.00  0.00     0.181 C 
ENDBRANCH   6  10
BRANCH   8  12
ATOM     12  O   UNL d   1      57.291  -9.815  31.048  0.00  0.00    -0.328 OA
ATOM     13  C   UNL d   1      56.886  -9.718  30.335  0.00  0.00     0.181 C 
ENDBRANCH   8  12
ENDBRANCH   1   4
BRANCH   2  14
ATOM     14  C   UNL d   1      59.850  -9.560  33.909  0.00  0.00     0.085 A 
ATOM     15  C   UNL d   1      59.430  -9.249  34.548  0.00  0.00     0.022 A 
ATOM     16  C   UNL d   1      59.774  -9.079  35.233  0.00  0.00     0.041 A 
ATOM     17  C   UNL d   1      60.614  -9.221  35.323  0.00  0.00     0.003 A 
ATOM     18  C   UNL d   1      61.043  -9.532  34.692  0.00  0.00     0.002 A 
ATOM     19  C   UNL d   1      60.650  -9.699  33.987  0.00  0.00     0.019 A 
BRANCH  16  20
ATOM     20  C   UNL d   1      59.325  -8.762  35.870  0.00  0.00     0.196 C 
ATOM     21  O   UNL d   1      58.713  -9.205  36.213  0.00  0.00    -0.287 OA
ATOM     22  C   UNL d   1      59.508  -8.006  36.145  0.00  0.00     0.045 C 
ENDBRANCH  16  20
ENDBRANCH   2  14
TORSDOF 5
ENDMDL
