MODEL 1
REMARK VINA RESULT:      90.3      0.000      0.000
REMARK  4 active torsions:
REMARK  status: ('A' for Active; 'I' for Inactive)
REMARK    1  A    between atoms: C_2  and  C_1 
REMARK    2  A    between atoms: C_15  and  C_8 
REMARK    3  A    between atoms: C_9  and  C_15 
REMARK    4  A    between atoms: C_18  and  C_10 
ROOT
ATOM      1  C   UNL d   1      59.696  49.412  50.932  0.00  0.00     0.094 A 
ATOM      2  N   UNL d   1      60.127  48.984  50.373  0.00  0.00    -0.238 NA
ATOM      3  C   UNL d   1      60.920  49.014  50.621  0.00  0.00     0.113 A 
ATOM      4  S   UNL d   1      60.975  49.459  51.332  0.00  0.00    -0.066 SA
ATOM      5  C   UNL d   1      60.208  49.699  51.511  0.00  0.00     0.056 A 
ENDROOT
BRANCH   3   6
ATOM      6  C   UNL d   1      61.549  48.668  50.241  0.00  0.00     0.051 C 
BRANCH   6   7
ATOM      7  C   UNL d   1      61.572  47.862  50.117  0.00  0.00     0.113 A 
ATOM      8  N   UNL d   1      61.311  47.223  50.584  0.00  0.00    -0.238 NA
ATOM      9  C   UNL d   1      61.481  46.515  50.171  0.00  0.00     0.088 A 
ATOM     10  C   UNL d   1      61.840  46.741  49.464  0.00  0.00     0.056 A 
ATOM     11  S   UNL d   1      61.899  47.546  49.423  0.00  0.00    -0.066 SA
BRANCH   9  12
ATOM     12  C   UNL d   1      61.314  45.761  50.436  0.00  0.00     0.018 A 
ATOM     13  C   UNL d   1      61.653  45.113  50.101  0.00  0.00     0.002 A 
ATOM     14  C   UNL d   1      61.482  44.357  50.371  0.00  0.00     0.000 A 
ATOM     15  C   UNL d   1      60.958  44.265  50.991  0.00  0.00     0.000 A 
ATOM     16  C   UNL d   1      60.614  44.916  51.333  0.00  0.00     0.000 A 
ATOM     17  C   UNL d   1      60.787  43.490  51.263  0.00  0.00     0.000 C 
ATOM     18  C   UNL d   1      60.788  45.661  51.059  0.00  0.00     0.002 A 
ENDBRANCH   9  12
ENDBRANCH   6   7
ENDBRANCH   3   6
BRANCH   1  19
ATOM     19  C   UNL d   1      58.869  49.485  50.836  0.00  0.00     0.082 A 
ATOM     20  C   UNL d   1      58.341  49.591  51.525  0.00  0.00     0.302 A 
ATOM     21  O   UNL d   1      57.526  49.661  51.409  0.00  0.00    -0.273 OA
ATOM     22  O   UNL d   1      58.639  49.625  52.333  0.00  0.00    -0.259 OA
ATOM     23  C   UNL d   1      57.203  49.632  50.635  0.00  0.00     0.103 A 
ATOM     24  C   UNL d   1      57.700  49.532  49.985  0.00  0.00     0.023 A 
ATOM     25  C   UNL d   1      56.383  49.706  50.559  0.00  0.00     0.025 A 
ATOM     26  C   UNL d   1      58.530  49.459  50.080  0.00  0.00     0.009 A 
ATOM     27  C   UNL d   1      57.373  49.503  49.215  0.00  0.00     0.002 A 
ATOM     28  C   UNL d   1      56.557  49.574  49.099  0.00  0.00     0.000 A 
ATOM     29  C   UNL d   1      56.060  49.677  49.790  0.00  0.00     0.002 A 
ENDBRANCH   1  19
TORSDOF 4
ENDMDL
