MODEL 1
REMARK VINA RESULT:      49.3      0.000      0.000
REMARK  6 active torsions:
REMARK  status: ('A' for Active; 'I' for Inactive)
REMARK    1  A    between atoms: S_6  and  C_1 
REMARK    2  A    between atoms: C_13  and  S_6 
REMARK    3  A    between atoms: C_7  and  O_9 
REMARK    4  A    between atoms: O_9  and  C_14 
REMARK    5  A    between atoms: C_10  and  C_13 
REMARK    6  A    between atoms: C_14  and  C_10 
ROOT
ATOM      1  C   UNL d   1     -54.713-100.790 -42.989  0.00  0.00     0.040 C 
ENDROOT
BRANCH   1   2
ATOM      2  C   UNL d   1     -55.281-101.277 -42.646  0.00  0.00     0.034 C 
BRANCH   2   3
ATOM      3  C   UNL d   1     -55.107-101.682 -41.947  0.00  0.00     0.123 C 
BRANCH   3   4
ATOM      4  O   UNL d   1     -55.069-101.259 -41.242  0.00  0.00    -0.305 OA
BRANCH   4   5
ATOM      5  C   UNL d   1     -55.012-101.658 -40.526  0.00  0.00     0.100 A 
ATOM      6  C   UNL d   1     -54.839-101.245 -39.836  0.00  0.00     0.023 A 
ATOM      7  C   UNL d   1     -54.720-100.428 -39.855  0.00  0.00     0.002 C 
ATOM      8  C   UNL d   1     -54.782-101.653 -39.114  0.00  0.00     0.002 A 
ATOM      9  C   UNL d   1     -54.900-102.468 -39.091  0.00  0.00     0.000 A 
ATOM     10  C   UNL d   1     -55.075-102.879 -39.792  0.00  0.00     0.002 A 
ATOM     11  C   UNL d   1     -55.132-102.477 -40.511  0.00  0.00     0.025 A 
ENDBRANCH   4   5
ENDBRANCH   3   4
ENDBRANCH   2   3
ENDBRANCH   1   2
BRANCH   1  12
ATOM     12  S   UNL d   1     -54.845-100.481 -43.741  0.00  0.00    -0.048 SA
BRANCH  12  13
ATOM     13  C   UNL d   1     -55.545-100.082 -43.909  0.00  0.00     0.194 A 
ATOM     14  N   UNL d   1     -56.133 -99.865 -43.366  0.00  0.00    -0.220 NA
ATOM     15  C   UNL d   1     -56.735 -99.475 -43.784  0.00  0.00     0.101 A 
ATOM     16  C   UNL d   1     -57.445 -99.142 -43.532  0.00  0.00     0.021 A 
ATOM     17  C   UNL d   1     -56.526 -99.447 -44.588  0.00  0.00     0.101 A 
ATOM     18  C   UNL d   1     -57.946 -98.784 -44.075  0.00  0.00     0.002 A 
ATOM     19  C   UNL d   1     -57.740 -98.756 -44.871  0.00  0.00     0.002 A 
ATOM     20  C   UNL d   1     -57.032 -99.087 -45.124  0.00  0.00     0.021 A 
ATOM     21  N   UNL d   1     -55.783 -99.826 -44.667  0.00  0.00    -0.220 NA
ENDBRANCH  12  13
ENDBRANCH   1  12
TORSDOF 6
ENDMDL
