MODEL 1
REMARK VINA RESULT:      -2.5      0.000      0.000
REMARK  5 active torsions:
REMARK  status: ('A' for Active; 'I' for Inactive)
REMARK    1  A    between atoms: S_2  and  C_1 
REMARK    2  A    between atoms: N_8  and  S_2 
REMARK    3  A    between atoms: C_11  and  C_16 
REMARK    4  A    between atoms: O_22  and  C_11 
REMARK    5  A    between atoms: C_23  and  O_22 
ROOT
ATOM      1  S   UNL d   1      32.763  20.855 -21.724  0.00  0.00     0.277 S 
ATOM      2  O   UNL d   1      33.240  21.225 -22.291  0.00  0.00    -0.199 OA
ATOM      3  O   UNL d   1      32.290  20.476 -21.168  0.00  0.00    -0.199 OA
ENDROOT
BRANCH   1   4
ATOM      4  C   UNL d   1      32.696  21.562 -21.308  0.00  0.00     0.178 A 
ATOM      5  C   UNL d   1      32.940  21.590 -20.519  0.00  0.00     0.282 A 
ATOM      6  N   UNL d   1      32.872  22.295 -20.106  0.00  0.00    -0.224 N 
ATOM      7  O   UNL d   1      33.241  20.931 -20.161  0.00  0.00    -0.266 OA
ATOM      8  C   UNL d   1      33.117  22.318 -19.319  0.00  0.00     0.107 C 
ATOM      9  C   UNL d   1      32.567  22.965 -20.469  0.00  0.00     0.342 A 
ATOM     10  N   UNL d   1      32.327  22.932 -21.248  0.00  0.00    -0.255 N 
ATOM     11  O   UNL d   1      32.498  23.674 -20.055  0.00  0.00    -0.245 OA
ATOM     12  C   UNL d   1      32.390  22.231 -21.671  0.00  0.00     0.102 A 
ATOM     13  C   UNL d   1      32.022  23.599 -21.610  0.00  0.00     0.104 C 
ENDBRANCH   1   4
BRANCH   1  14
ATOM     14  N   UNL d   1      32.823  20.140 -22.134  0.00  0.00    -0.229 N 
ATOM     15  C   UNL d   1      33.188  19.471 -21.765  0.00  0.00     0.092 A 
ATOM     16  C   UNL d   1      33.241  18.755 -22.195  0.00  0.00     0.025 A 
ATOM     17  C   UNL d   1      32.940  18.698 -22.975  0.00  0.00     0.067 A 
ATOM     18  C   UNL d   1      32.581  19.357 -23.336  0.00  0.00     0.025 A 
ATOM     19  C   UNL d   1      32.522  20.084 -22.914  0.00  0.00     0.092 A 
BRANCH  17  20
ATOM     20  C   UNL d   1      32.998  17.997 -23.380  0.00  0.00     0.300 C 
ATOM     21  O   UNL d   1      33.229  17.998 -24.142  0.00  0.00    -0.259 OA
BRANCH  20  22
ATOM     22  O   UNL d   1      32.818  17.306 -23.000  0.00  0.00    -0.271 OA
BRANCH  22  23
ATOM     23  C   UNL d   1      33.105  16.617 -23.253  0.00  0.00     0.126 C 
ATOM     24  C   UNL d   1      32.839  15.928 -22.936  0.00  0.00     0.029 C 
ENDBRANCH  22  23
ENDBRANCH  20  22
ENDBRANCH  17  20
ENDBRANCH   1  14
TORSDOF 5
ENDMDL
MODEL 2
REMARK VINA RESULT:      -2.3      1.967      5.359
REMARK  5 active torsions:
REMARK  status: ('A' for Active; 'I' for Inactive)
REMARK    1  A    between atoms: S_2  and  C_1 
REMARK    2  A    between atoms: N_8  and  S_2 
REMARK    3  A    between atoms: C_11  and  C_16 
REMARK    4  A    between atoms: O_22  and  C_11 
REMARK    5  A    between atoms: C_23  and  O_22 
ROOT
ATOM      1  S   UNL d   1      32.454  18.409 -23.644  0.00  0.00     0.277 S 
ATOM      2  O   UNL d   1      32.567  18.748 -24.391  0.00  0.00    -0.199 OA
ATOM      3  O   UNL d   1      32.345  18.084 -22.897  0.00  0.00    -0.199 OA
ENDROOT
BRANCH   1   4
ATOM      4  C   UNL d   1      32.281  17.683 -23.991  0.00  0.00     0.178 A 
ATOM      5  C   UNL d   1      31.542  17.569 -24.341  0.00  0.00     0.282 A 
ATOM      6  N   UNL d   1      31.371  16.845 -24.687  0.00  0.00    -0.224 N 
ATOM      7  O   UNL d   1      30.995  18.163 -24.342  0.00  0.00    -0.266 OA
ATOM      8  C   UNL d   1      30.632  16.736 -25.035  0.00  0.00     0.107 C 
ATOM      9  C   UNL d   1      31.927  16.241 -24.686  0.00  0.00     0.342 A 
ATOM     10  N   UNL d   1      32.656  16.357 -24.339  0.00  0.00    -0.255 N 
ATOM     11  O   UNL d   1      31.757  15.512 -25.033  0.00  0.00    -0.245 OA
ATOM     12  C   UNL d   1      32.837  17.078 -23.990  0.00  0.00     0.102 A 
ATOM     13  C   UNL d   1      33.209  15.756 -24.338  0.00  0.00     0.104 C 
ENDBRANCH   1   4
BRANCH   1  14
ATOM     14  N   UNL d   1      32.626  19.132 -23.284  0.00  0.00    -0.229 N 
ATOM     15  C   UNL d   1      32.362  19.285 -22.494  0.00  0.00     0.092 A 
ATOM     16  C   UNL d   1      32.545  20.023 -22.146  0.00  0.00     0.025 A 
ATOM     17  C   UNL d   1      32.980  20.602 -22.568  0.00  0.00     0.067 A 
ATOM     18  C   UNL d   1      33.239  20.451 -23.344  0.00  0.00     0.025 A 
ATOM     19  C   UNL d   1      33.061  19.711 -23.706  0.00  0.00     0.092 A 
BRANCH  17  20
ATOM     20  C   UNL d   1      33.151  21.315 -22.217  0.00  0.00     0.300 C 
ATOM     21  O   UNL d   1      33.226  21.968 -22.665  0.00  0.00    -0.259 OA
BRANCH  20  22
ATOM     22  O   UNL d   1      33.241  21.347 -21.414  0.00  0.00    -0.271 OA
BRANCH  22  23
ATOM     23  C   UNL d   1      33.233  22.036 -21.031  0.00  0.00     0.126 C 
ATOM     24  C   UNL d   1      33.055  22.061 -20.248  0.00  0.00     0.029 C 
ENDBRANCH  22  23
ENDBRANCH  20  22
ENDBRANCH  17  20
ENDBRANCH   1  14
TORSDOF 5
ENDMDL
MODEL 3
REMARK VINA RESULT:      -1.4      1.076      4.805
REMARK  5 active torsions:
REMARK  status: ('A' for Active; 'I' for Inactive)
REMARK    1  A    between atoms: S_2  and  C_1 
REMARK    2  A    between atoms: N_8  and  S_2 
REMARK    3  A    between atoms: C_11  and  C_16 
REMARK    4  A    between atoms: O_22  and  C_11 
REMARK    5  A    between atoms: C_23  and  O_22 
ROOT
ATOM      1  S   UNL d   1      32.968  20.605 -21.829  0.00  0.00     0.277 S 
ATOM      2  O   UNL d   1      33.241  20.081 -21.248  0.00  0.00    -0.199 OA
ATOM      3  O   UNL d   1      32.697  21.134 -22.396  0.00  0.00    -0.199 OA
ENDROOT
BRANCH   1   4
ATOM      4  C   UNL d   1      33.036  20.017 -22.401  0.00  0.00     0.178 A 
ATOM      5  C   UNL d   1      33.045  19.225 -22.167  0.00  0.00     0.282 A 
ATOM      6  N   UNL d   1      33.112  18.641 -22.738  0.00  0.00    -0.224 N 
ATOM      7  O   UNL d   1      32.989  19.030 -21.385  0.00  0.00    -0.266 OA
ATOM      8  C   UNL d   1      33.121  17.852 -22.499  0.00  0.00     0.107 C 
ATOM      9  C   UNL d   1      33.169  18.839 -23.533  0.00  0.00     0.342 A 
ATOM     10  N   UNL d   1      33.160  19.622 -23.760  0.00  0.00    -0.255 N 
ATOM     11  O   UNL d   1      33.237  18.252 -24.109  0.00  0.00    -0.245 OA
ATOM     12  C   UNL d   1      33.093  20.215 -23.196  0.00  0.00     0.102 A 
ATOM     13  C   UNL d   1      33.217  19.819 -24.551  0.00  0.00     0.104 C 
ENDBRANCH   1   4
BRANCH   1  14
ATOM     14  N   UNL d   1      32.897  21.202 -21.263  0.00  0.00    -0.229 N 
ATOM     15  C   UNL d   1      33.169  21.070 -20.472  0.00  0.00     0.092 A 
ATOM     16  C   UNL d   1      33.089  21.686 -19.912  0.00  0.00     0.025 A 
ATOM     17  C   UNL d   1      32.747  22.420 -20.126  0.00  0.00     0.067 A 
ATOM     18  C   UNL d   1      32.480  22.550 -20.904  0.00  0.00     0.025 A 
ATOM     19  C   UNL d   1      32.555  21.937 -21.477  0.00  0.00     0.092 A 
BRANCH  17  20
ATOM     20  C   UNL d   1      32.675  23.010 -19.571  0.00  0.00     0.300 C 
ATOM     21  O   UNL d   1      32.338  23.702 -19.771  0.00  0.00    -0.259 OA
BRANCH  20  22
ATOM     22  O   UNL d   1      32.950  22.881 -18.822  0.00  0.00    -0.271 OA
BRANCH  22  23
ATOM     23  C   UNL d   1      32.978  23.465 -18.293  0.00  0.00     0.126 C 
ATOM     24  C   UNL d   1      33.027  23.298 -17.509  0.00  0.00     0.029 C 
ENDBRANCH  22  23
ENDBRANCH  20  22
ENDBRANCH  17  20
ENDBRANCH   1  14
TORSDOF 5
ENDMDL
MODEL 4
REMARK VINA RESULT:      -1.4      1.201      1.882
REMARK  5 active torsions:
REMARK  status: ('A' for Active; 'I' for Inactive)
REMARK    1  A    between atoms: S_2  and  C_1 
REMARK    2  A    between atoms: N_8  and  S_2 
REMARK    3  A    between atoms: C_11  and  C_16 
REMARK    4  A    between atoms: O_22  and  C_11 
REMARK    5  A    between atoms: C_23  and  O_22 
ROOT
ATOM      1  S   UNL d   1      32.898  20.011 -22.571  0.00  0.00     0.277 S 
ATOM      2  O   UNL d   1      33.235  20.318 -23.262  0.00  0.00    -0.199 OA
ATOM      3  O   UNL d   1      32.562  19.694 -21.891  0.00  0.00    -0.199 OA
ENDROOT
BRANCH   1   4
ATOM      4  C   UNL d   1      32.984  20.739 -22.196  0.00  0.00     0.178 A 
ATOM      5  C   UNL d   1      33.000  21.428 -22.652  0.00  0.00     0.282 A 
ATOM      6  N   UNL d   1      33.086  22.152 -22.276  0.00  0.00    -0.224 N 
ATOM      7  O   UNL d   1      32.933  21.387 -23.456  0.00  0.00    -0.266 OA
ATOM      8  C   UNL d   1      33.102  22.837 -22.735  0.00  0.00     0.107 C 
ATOM      9  C   UNL d   1      33.155  22.193 -21.459  0.00  0.00     0.342 A 
ATOM     10  N   UNL d   1      33.138  21.511 -21.013  0.00  0.00    -0.255 N 
ATOM     11  O   UNL d   1      33.241  22.920 -21.080  0.00  0.00    -0.245 OA
ATOM     12  C   UNL d   1      33.052  20.780 -21.379  0.00  0.00     0.102 A 
ATOM     13  C   UNL d   1      33.206  21.552 -20.200  0.00  0.00     0.104 C 
ENDBRANCH   1   4
BRANCH   1  14
ATOM     14  N   UNL d   1      32.807  19.276 -22.937  0.00  0.00    -0.229 N 
ATOM     15  C   UNL d   1      32.502  19.232 -23.726  0.00  0.00     0.092 A 
ATOM     16  C   UNL d   1      32.417  18.480 -24.082  0.00  0.00     0.025 A 
ATOM     17  C   UNL d   1      32.627  17.782 -23.668  0.00  0.00     0.067 A 
ATOM     18  C   UNL d   1      32.926  17.826 -22.893  0.00  0.00     0.025 A 
ATOM     19  C   UNL d   1      33.017  18.578 -22.524  0.00  0.00     0.092 A 
BRANCH  17  20
ATOM     20  C   UNL d   1      32.538  17.058 -24.026  0.00  0.00     0.300 C 
ATOM     21  O   UNL d   1      33.058  16.825 -24.582  0.00  0.00    -0.259 OA
BRANCH  20  22
ATOM     22  O   UNL d   1      31.920  16.584 -23.809  0.00  0.00    -0.271 OA
BRANCH  22  23
ATOM     23  C   UNL d   1      31.814  15.877 -24.140  0.00  0.00     0.126 C 
ATOM     24  C   UNL d   1      31.094  15.523 -24.115  0.00  0.00     0.029 C 
ENDBRANCH  22  23
ENDBRANCH  20  22
ENDBRANCH  17  20
ENDBRANCH   1  14
TORSDOF 5
ENDMDL
