MODEL 1
REMARK VINA RESULT:      37.7      0.000      0.000
REMARK  5 active torsions:
REMARK  status: ('A' for Active; 'I' for Inactive)
REMARK    1  A    between atoms: N_8  and  S_1 
REMARK    2  A    between atoms: C_18  and  S_1 
REMARK    3  A    between atoms: C_13  and  C_3 
REMARK    4  A    between atoms: C_5  and  C_11 
REMARK    5  A    between atoms: C_17  and  N_8 
ROOT
ATOM      1  N   UNL d   1      46.269 -15.377  44.424  0.00  0.00    -0.246 NA
ATOM      2  C   UNL d   1      44.683 -14.960  44.637  0.00  0.00     0.003 A 
ATOM      3  C   UNL d   1      45.270 -14.379  44.644  0.00  0.00     0.018 A 
ATOM      4  C   UNL d   1      45.684 -15.960  44.417  0.00  0.00     0.081 A 
ATOM      5  C   UNL d   1      44.893 -15.752  44.523  0.00  0.00     0.019 A 
ATOM      6  C   UNL d   1      46.061 -14.587  44.538  0.00  0.00     0.081 A 
ATOM      7  C   UNL d   1      45.060 -13.588  44.758  0.00  0.00     0.002 A 
ATOM      8  C   UNL d   1      46.646 -14.005  44.545  0.00  0.00     0.019 A 
ATOM      9  C   UNL d   1      45.647 -13.006  44.764  0.00  0.00     0.000 A 
ATOM     10  C   UNL d   1      46.439 -13.214  44.658  0.00  0.00     0.002 A 
ATOM     11  C   UNL d   1      45.422 -12.269  44.874  0.00  0.00     0.000 C 
ENDROOT
BRANCH   4  12
ATOM     12  C   UNL d   1      45.892 -16.750  44.304  0.00  0.00     0.018 A 
ATOM     13  C   UNL d   1      45.895 -17.071  43.545  0.00  0.00     0.003 A 
ATOM     14  C   UNL d   1      46.103 -17.861  43.431  0.00  0.00     0.020 A 
ATOM     15  C   UNL d   1      46.308 -18.331  44.079  0.00  0.00     0.094 A 
ATOM     16  C   UNL d   1      46.305 -18.010  44.838  0.00  0.00     0.020 A 
ATOM     17  C   UNL d   1      46.097 -17.219  44.951  0.00  0.00     0.003 A 
BRANCH  15  18
ATOM     18  N   UNL d   1      46.515 -19.121  43.966  0.00  0.00    -0.158 NA
BRANCH  18  19
ATOM     19  S   UNL d   1      46.065 -19.599  43.466  0.00  0.00     0.286 S 
ATOM     20  O   UNL d   1      45.643 -20.046  42.998  0.00  0.00    -0.198 OA
ATOM     21  O   UNL d   1      45.645 -19.884  44.118  0.00  0.00    -0.198 OA
BRANCH  19  22
ATOM     22  C   UNL d   1      46.485 -19.314  42.815  0.00  0.00     0.117 C 
ATOM     23  C   UNL d   1      46.473 -19.925  42.262  0.00  0.00     0.014 C 
ENDBRANCH  19  22
ENDBRANCH  18  19
ENDBRANCH  15  18
ENDBRANCH   4  12
BRANCH   2  24
ATOM     24  C   UNL d   1      43.902 -14.755  44.742  0.00  0.00     0.000 A 
ATOM     25  C   UNL d   1      43.330 -15.342  44.820  0.00  0.00     0.000 A 
ATOM     26  C   UNL d   1      42.536 -15.134  44.926  0.00  0.00     0.000 A 
ATOM     27  C   UNL d   1      42.318 -14.338  44.954  0.00  0.00     0.000 A 
ATOM     28  C   UNL d   1      42.893 -13.751  44.876  0.00  0.00     0.000 A 
ATOM     29  C   UNL d   1      43.686 -13.959  44.769  0.00  0.00     0.000 A 
ENDBRANCH   2  24
TORSDOF 5
ENDMDL
