MODEL 1
REMARK VINA RESULT:       7.1      0.000      0.000
REMARK  4 active torsions:
REMARK  status: ('A' for Active; 'I' for Inactive)
REMARK    1  A    between atoms: N_5  and  C_1 
REMARK    2  A    between atoms: C_4  and  N_6 
REMARK    3  A    between atoms: N_11  and  C_4 
REMARK    4  A    between atoms: N_6  and  N_5 
ROOT
ATOM      1  C   UNL d   1     -55.332-102.880 -37.917  0.00  0.00     0.768 A 
ATOM      2  N   UNL d   1     -54.854-102.880 -38.587  0.00  0.00    -0.058 NA
ATOM      3  N   UNL d   1     -56.156-102.880 -37.999  0.00  0.00    -0.058 NA
ATOM      4  C   UNL d   1     -55.193-102.880 -39.340  0.00  0.00     0.102 A 
ATOM      5  C   UNL d   1     -56.495-102.880 -38.752  0.00  0.00     0.102 A 
ATOM      6  C   UNL d   1     -56.018-102.880 -39.422  0.00  0.00     0.040 A 
ATOM      7  C   UNL d   1     -57.316-102.880 -38.835  0.00  0.00     0.021 C 
ATOM      8  C   UNL d   1     -54.712-102.879 -40.011  0.00  0.00     0.021 C 
ENDROOT
BRANCH   1   9
ATOM      9  N   UNL d   1     -54.993-102.880 -37.168  0.00  0.00     0.049 NA
BRANCH   9  10
ATOM     10  N   UNL d   1     -55.365-102.480 -36.552  0.00  0.00    -0.101 NA
BRANCH  10  11
ATOM     11  C   UNL d   1     -54.938-102.272 -35.886  0.00  0.00     0.241 C 
ATOM     12  S   UNL d   1     -54.716-102.846 -35.346  0.00  0.00    -0.035 SA
BRANCH  11  13
ATOM     13  N   UNL d   1     -54.732-101.488 -35.760  0.00  0.00    -0.213 NA
ATOM     14  C   UNL d   1     -55.235-100.993 -35.338  0.00  0.00     0.122 C 
ENDBRANCH  11  13
ENDBRANCH  10  11
ENDBRANCH   9  10
ENDBRANCH   1   9
TORSDOF 4
ENDMDL
