MODEL 1
REMARK VINA RESULT:      -9.9      0.000      0.000
REMARK  4 active torsions:
REMARK  status: ('A' for Active; 'I' for Inactive)
REMARK    1  A    between atoms: N_3  and  S_1 
REMARK    2  A    between atoms: C_5  and  S_1 
REMARK    3  A    between atoms: C_2  and  N_3 
REMARK    4  A    between atoms: O_18  and  C_11 
ROOT
ATOM      1  C   UNL d   1      52.891  33.496  53.508  0.00  0.00     0.113 A 
ATOM      2  C   UNL d   1      53.469  33.406  54.104  0.00  0.00     0.100 A 
ATOM      3  C   UNL d   1      52.685  32.878  53.018  0.00  0.00     0.046 A 
ATOM      4  C   UNL d   1      53.839  32.698  54.209  0.00  0.00     0.021 A 
ATOM      5  N   UNL d   1      53.660  34.048  54.587  0.00  0.00    -0.242 NA
ATOM      6  C   UNL d   1      53.070  32.151  53.131  0.00  0.00     0.096 A 
ATOM      7  C   UNL d   1      53.648  32.061  53.726  0.00  0.00     0.026 A 
ATOM      8  C   UNL d   1      54.408  32.610  54.795  0.00  0.00     0.003 A 
ATOM      9  C   UNL d   1      54.228  33.959  55.173  0.00  0.00     0.099 A 
ATOM     10  C   UNL d   1      54.624  33.226  55.295  0.00  0.00     0.021 A 
ENDROOT
BRANCH   1  11
ATOM     11  N   UNL d   1      52.490  34.248  53.388  0.00  0.00    -0.157 NA
BRANCH  11  12
ATOM     12  S   UNL d   1      51.768  34.290  52.972  0.00  0.00     0.285 S 
ATOM     13  O   UNL d   1      52.184  34.532  52.274  0.00  0.00    -0.198 OA
ATOM     14  O   UNL d   1      51.366  34.055  53.647  0.00  0.00    -0.198 OA
BRANCH  12  15
ATOM     15  C   UNL d   1      51.050  34.331  52.558  0.00  0.00     0.105 A 
ATOM     16  C   UNL d   1      51.039  34.290  51.737  0.00  0.00     0.013 A 
ATOM     17  C   UNL d   1      50.325  34.331  51.325  0.00  0.00     0.001 A 
ATOM     18  C   UNL d   1      49.607  34.414  51.726  0.00  0.00     0.000 A 
ATOM     19  C   UNL d   1      49.625  34.455  52.552  0.00  0.00     0.001 A 
ATOM     20  C   UNL d   1      48.897  34.455  51.317  0.00  0.00     0.000 C 
ATOM     21  C   UNL d   1      50.339  34.414  52.963  0.00  0.00     0.013 A 
ENDBRANCH  12  15
ENDBRANCH  11  12
ENDBRANCH   1  11
BRANCH   6  22
ATOM     22  O   UNL d   1      52.855  31.499  52.618  0.00  0.00    -0.328 OA
ATOM     23  C   UNL d   1      52.676  30.746  52.926  0.00  0.00     0.181 C 
ENDBRANCH   6  22
TORSDOF 4
ENDMDL
MODEL 2
REMARK VINA RESULT:      -8.7      1.766      4.186
REMARK  4 active torsions:
REMARK  status: ('A' for Active; 'I' for Inactive)
REMARK    1  A    between atoms: N_3  and  S_1 
REMARK    2  A    between atoms: C_5  and  S_1 
REMARK    3  A    between atoms: C_2  and  N_3 
REMARK    4  A    between atoms: O_18  and  C_11 
ROOT
ATOM      1  C   UNL d   1      53.274  32.863  53.509  0.00  0.00     0.113 A 
ATOM      2  C   UNL d   1      52.802  33.537  53.374  0.00  0.00     0.100 A 
ATOM      3  C   UNL d   1      53.827  32.842  54.107  0.00  0.00     0.046 A 
ATOM      4  C   UNL d   1      52.884  34.191  53.838  0.00  0.00     0.021 A 
ATOM      5  N   UNL d   1      52.249  33.532  52.761  0.00  0.00    -0.242 NA
ATOM      6  C   UNL d   1      53.907  33.520  54.583  0.00  0.00     0.096 A 
ATOM      7  C   UNL d   1      53.435  34.194  54.448  0.00  0.00     0.026 A 
ATOM      8  C   UNL d   1      52.420  34.855  53.705  0.00  0.00     0.003 A 
ATOM      9  C   UNL d   1      51.785  34.196  52.628  0.00  0.00     0.099 A 
ATOM     10  C   UNL d   1      51.859  34.887  53.105  0.00  0.00     0.021 A 
ENDROOT
BRANCH   1  11
ATOM     11  N   UNL d   1      53.195  32.159  53.019  0.00  0.00    -0.157 NA
BRANCH  11  12
ATOM     12  S   UNL d   1      53.228  31.396  53.353  0.00  0.00     0.285 S 
ATOM     13  O   UNL d   1      54.065  31.373  53.216  0.00  0.00    -0.198 OA
ATOM     14  O   UNL d   1      52.419  31.418  53.485  0.00  0.00    -0.198 OA
BRANCH  12  15
ATOM     15  C   UNL d   1      53.262  30.636  53.685  0.00  0.00     0.105 A 
ATOM     16  C   UNL d   1      53.241  29.969  53.204  0.00  0.00     0.013 A 
ATOM     17  C   UNL d   1      53.274  29.214  53.534  0.00  0.00     0.001 A 
ATOM     18  C   UNL d   1      53.329  29.109  54.353  0.00  0.00     0.000 A 
ATOM     19  C   UNL d   1      53.349  29.784  54.830  0.00  0.00     0.001 A 
ATOM     20  C   UNL d   1      53.362  28.358  54.681  0.00  0.00     0.000 C 
ATOM     21  C   UNL d   1      53.316  30.539  54.500  0.00  0.00     0.013 A 
ENDBRANCH  12  15
ENDBRANCH  11  12
ENDBRANCH   1  11
BRANCH   6  22
ATOM     22  O   UNL d   1      54.487  33.501  55.212  0.00  0.00    -0.328 OA
ATOM     23  C   UNL d   1      55.231  33.869  55.127  0.00  0.00     0.181 C 
ENDBRANCH   6  22
TORSDOF 4
ENDMDL
MODEL 3
REMARK VINA RESULT:      -8.6      1.375      3.697
REMARK  4 active torsions:
REMARK  status: ('A' for Active; 'I' for Inactive)
REMARK    1  A    between atoms: N_3  and  S_1 
REMARK    2  A    between atoms: C_5  and  S_1 
REMARK    3  A    between atoms: C_2  and  N_3 
REMARK    4  A    between atoms: O_18  and  C_11 
ROOT
ATOM      1  C   UNL d   1      52.788  33.510  53.301  0.00  0.00     0.113 A 
ATOM      2  C   UNL d   1      52.924  34.232  53.696  0.00  0.00     0.100 A 
ATOM      3  C   UNL d   1      52.044  33.299  53.043  0.00  0.00     0.046 A 
ATOM      4  C   UNL d   1      52.316  34.744  53.832  0.00  0.00     0.021 A 
ATOM      5  N   UNL d   1      53.687  34.423  53.947  0.00  0.00    -0.242 NA
ATOM      6  C   UNL d   1      51.420  33.830  53.187  0.00  0.00     0.096 A 
ATOM      7  C   UNL d   1      51.556  34.553  53.581  0.00  0.00     0.026 A 
ATOM      8  C   UNL d   1      52.449  35.455  54.220  0.00  0.00     0.003 A 
ATOM      9  C   UNL d   1      53.821  35.134  54.336  0.00  0.00     0.099 A 
ATOM     10  C   UNL d   1      53.196  35.678  54.485  0.00  0.00     0.021 A 
ENDROOT
BRANCH   1  11
ATOM     11  N   UNL d   1      53.430  32.958  53.151  0.00  0.00    -0.157 NA
BRANCH  11  12
ATOM     12  S   UNL d   1      53.335  32.140  53.283  0.00  0.00     0.285 S 
ATOM     13  O   UNL d   1      53.083  32.039  52.480  0.00  0.00    -0.198 OA
ATOM     14  O   UNL d   1      53.579  32.237  54.060  0.00  0.00    -0.198 OA
BRANCH  12  15
ATOM     15  C   UNL d   1      53.241  31.326  53.415  0.00  0.00     0.105 A 
ATOM     16  C   UNL d   1      53.502  30.983  54.116  0.00  0.00     0.013 A 
ATOM     17  C   UNL d   1      53.408  30.174  54.247  0.00  0.00     0.001 A 
ATOM     18  C   UNL d   1      53.051  29.690  53.680  0.00  0.00     0.000 A 
ATOM     19  C   UNL d   1      52.790  30.041  52.978  0.00  0.00     0.001 A 
ATOM     20  C   UNL d   1      52.957  28.886  53.810  0.00  0.00     0.000 C 
ATOM     21  C   UNL d   1      52.884  30.850  52.847  0.00  0.00     0.013 A 
ENDBRANCH  12  15
ENDBRANCH  11  12
ENDBRANCH   1  11
BRANCH   6  22
ATOM     22  O   UNL d   1      50.637  33.611  52.917  0.00  0.00    -0.328 OA
ATOM     23  C   UNL d   1      50.159  34.148  52.495  0.00  0.00     0.181 C 
ENDBRANCH   6  22
TORSDOF 4
ENDMDL
MODEL 4
REMARK VINA RESULT:      -8.4      1.355      2.207
REMARK  4 active torsions:
REMARK  status: ('A' for Active; 'I' for Inactive)
REMARK    1  A    between atoms: N_3  and  S_1 
REMARK    2  A    between atoms: C_5  and  S_1 
REMARK    3  A    between atoms: C_2  and  N_3 
REMARK    4  A    between atoms: O_18  and  C_11 
ROOT
ATOM      1  C   UNL d   1      52.935  32.236  53.161  0.00  0.00     0.113 A 
ATOM      2  C   UNL d   1      53.127  31.436  53.294  0.00  0.00     0.100 A 
ATOM      3  C   UNL d   1      53.204  32.827  53.654  0.00  0.00     0.046 A 
ATOM      4  C   UNL d   1      53.588  31.226  53.921  0.00  0.00     0.021 A 
ATOM      5  N   UNL d   1      52.841  30.857  52.780  0.00  0.00    -0.242 NA
ATOM      6  C   UNL d   1      53.680  32.604  54.299  0.00  0.00     0.096 A 
ATOM      7  C   UNL d   1      53.872  31.804  54.432  0.00  0.00     0.026 A 
ATOM      8  C   UNL d   1      53.777  30.438  54.052  0.00  0.00     0.003 A 
ATOM      9  C   UNL d   1      53.030  30.068  52.911  0.00  0.00     0.099 A 
ATOM     10  C   UNL d   1      53.511  29.834  53.561  0.00  0.00     0.021 A 
ENDROOT
BRANCH   1  11
ATOM     11  N   UNL d   1      52.443  32.471  52.495  0.00  0.00    -0.157 NA
BRANCH  11  12
ATOM     12  S   UNL d   1      51.823  33.021  52.589  0.00  0.00     0.285 S 
ATOM     13  O   UNL d   1      52.304  33.623  52.233  0.00  0.00    -0.198 OA
ATOM     14  O   UNL d   1      51.359  32.440  52.933  0.00  0.00    -0.198 OA
BRANCH  12  15
ATOM     15  C   UNL d   1      51.207  33.569  52.683  0.00  0.00     0.105 A 
ATOM     16  C   UNL d   1      51.021  34.095  52.079  0.00  0.00     0.013 A 
ATOM     17  C   UNL d   1      50.408  34.640  52.172  0.00  0.00     0.001 A 
ATOM     18  C   UNL d   1      49.968  34.670  52.872  0.00  0.00     0.000 A 
ATOM     19  C   UNL d   1      50.161  34.138  53.475  0.00  0.00     0.001 A 
ATOM     20  C   UNL d   1      49.359  35.211  52.964  0.00  0.00     0.000 C 
ATOM     21  C   UNL d   1      50.773  33.593  53.382  0.00  0.00     0.013 A 
ENDBRANCH  12  15
ENDBRANCH  11  12
ENDBRANCH   1  11
BRANCH   6  22
ATOM     22  O   UNL d   1      53.964  33.223  54.819  0.00  0.00    -0.328 OA
ATOM     23  C   UNL d   1      54.770  33.438  54.836  0.00  0.00     0.181 C 
ENDBRANCH   6  22
TORSDOF 4
ENDMDL
MODEL 5
REMARK VINA RESULT:      -8.3      1.082      1.959
REMARK  4 active torsions:
REMARK  status: ('A' for Active; 'I' for Inactive)
REMARK    1  A    between atoms: N_3  and  S_1 
REMARK    2  A    between atoms: C_5  and  S_1 
REMARK    3  A    between atoms: C_2  and  N_3 
REMARK    4  A    between atoms: O_18  and  C_11 
ROOT
ATOM      1  C   UNL d   1      52.586  33.710  53.377  0.00  0.00     0.113 A 
ATOM      2  C   UNL d   1      53.110  33.209  53.790  0.00  0.00     0.100 A 
ATOM      3  C   UNL d   1      52.580  34.515  53.501  0.00  0.00     0.046 A 
ATOM      4  C   UNL d   1      53.628  33.514  54.327  0.00  0.00     0.021 A 
ATOM      5  N   UNL d   1      53.096  32.396  53.646  0.00  0.00    -0.242 NA
ATOM      6  C   UNL d   1      53.116  34.825  54.056  0.00  0.00     0.096 A 
ATOM      7  C   UNL d   1      53.640  34.324  54.469  0.00  0.00     0.026 A 
ATOM      8  C   UNL d   1      54.144  33.021  54.733  0.00  0.00     0.003 A 
ATOM      9  C   UNL d   1      53.612  31.903  54.052  0.00  0.00     0.099 A 
ATOM     10  C   UNL d   1      54.159  32.207  54.616  0.00  0.00     0.021 A 
ENDROOT
BRANCH   1  11
ATOM     11  N   UNL d   1      52.029  33.394  52.801  0.00  0.00    -0.157 NA
BRANCH  11  12
ATOM     12  S   UNL d   1      51.303  33.775  52.650  0.00  0.00     0.285 S 
ATOM     13  O   UNL d   1      51.657  34.191  52.002  0.00  0.00    -0.198 OA
ATOM     14  O   UNL d   1      50.961  33.372  53.277  0.00  0.00    -0.198 OA
BRANCH  12  15
ATOM     15  C   UNL d   1      50.580  34.154  52.499  0.00  0.00     0.105 A 
ATOM     16  C   UNL d   1      50.291  34.210  51.731  0.00  0.00     0.013 A 
ATOM     17  C   UNL d   1      49.573  34.587  51.581  0.00  0.00     0.001 A 
ATOM     18  C   UNL d   1      49.128  34.916  52.196  0.00  0.00     0.000 A 
ATOM     19  C   UNL d   1      49.425  34.855  52.966  0.00  0.00     0.001 A 
ATOM     20  C   UNL d   1      48.414  35.290  52.047  0.00  0.00     0.000 C 
ATOM     21  C   UNL d   1      50.143  34.479  53.116  0.00  0.00     0.013 A 
ENDBRANCH  12  15
ENDBRANCH  11  12
ENDBRANCH   1  11
BRANCH   6  22
ATOM     22  O   UNL d   1      53.112  35.671  54.189  0.00  0.00    -0.328 OA
ATOM     23  C   UNL d   1      52.937  35.991  54.939  0.00  0.00     0.181 C 
ENDBRANCH   6  22
TORSDOF 4
ENDMDL
