MODEL 1
REMARK VINA RESULT:      20.0      0.000      0.000
REMARK  5 active torsions:
REMARK  status: ('A' for Active; 'I' for Inactive)
REMARK    1  A    between atoms: C_11  and  N_2 
REMARK    2  A    between atoms: C_6  and  O_13 
REMARK    3  A    between atoms: C_12  and  C_7 
REMARK    4  A    between atoms: C_16  and  C_11 
REMARK    5  A    between atoms: O_13  and  C_16 
ROOT
ATOM      1  C   UNL d   1      45.872 -16.445  44.118  0.00  0.00     0.142 C 
ENDROOT
BRANCH   1   2
ATOM      2  O   UNL d   1      45.976 -15.715  44.482  0.00  0.00    -0.304 OA
BRANCH   2   3
ATOM      3  C   UNL d   1      45.324 -15.221  44.590  0.00  0.00     0.100 A 
ATOM      4  C   UNL d   1      45.420 -14.404  44.575  0.00  0.00     0.023 A 
ATOM      5  C   UNL d   1      44.778 -13.905  44.683  0.00  0.00     0.002 A 
ATOM      6  C   UNL d   1      44.022 -14.232  44.808  0.00  0.00     0.000 A 
ATOM      7  C   UNL d   1      43.924 -15.052  44.824  0.00  0.00     0.002 A 
ATOM      8  C   UNL d   1      44.576 -15.547  44.715  0.00  0.00     0.025 A 
ATOM      9  C   UNL d   1      43.178 -15.375  44.947  0.00  0.00     0.000 C 
BRANCH   4  10
ATOM     10  C   UNL d   1      46.170 -14.082  44.451  0.00  0.00     0.002 C 
ATOM     11  C   UNL d   1      46.457 -13.487  44.945  0.00  0.00     0.000 C 
ATOM     12  C   UNL d   1      46.641 -14.354  43.830  0.00  0.00     0.000 C 
ENDBRANCH   4  10
ENDBRANCH   2   3
ENDBRANCH   1   2
BRANCH   1  13
ATOM     13  C   UNL d   1      46.359 -17.077  44.331  0.00  0.00     0.112 C 
BRANCH  13  14
ATOM     14  N   UNL d   1      46.283 -17.798  43.946  0.00  0.00    -0.249 N 
ATOM     15  C   UNL d   1      46.179 -17.737  43.122  0.00  0.00     0.378 A 
ATOM     16  O   UNL d   1      46.111 -18.499  42.806  0.00  0.00    -0.258 OA
ATOM     17  O   UNL d   1      46.149 -17.030  42.699  0.00  0.00    -0.237 OA
ATOM     18  C   UNL d   1      46.174 -19.042  43.437  0.00  0.00     0.121 A 
ATOM     19  C   UNL d   1      46.148 -19.868  43.466  0.00  0.00     0.026 A 
ATOM     20  C   UNL d   1      46.280 -18.605  44.138  0.00  0.00     0.092 A 
ATOM     21  C   UNL d   1      46.228 -20.257  44.187  0.00  0.00     0.002 A 
ATOM     22  C   UNL d   1      46.333 -19.823  44.881  0.00  0.00     0.002 A 
ATOM     23  C   UNL d   1      46.360 -18.997  44.861  0.00  0.00     0.020 A 
ENDBRANCH  13  14
ENDBRANCH   1  13
TORSDOF 5
ENDMDL
MODEL 2
REMARK VINA RESULT:      22.3      0.410      1.620
REMARK  5 active torsions:
REMARK  status: ('A' for Active; 'I' for Inactive)
REMARK    1  A    between atoms: C_11  and  N_2 
REMARK    2  A    between atoms: C_6  and  O_13 
REMARK    3  A    between atoms: C_12  and  C_7 
REMARK    4  A    between atoms: C_16  and  C_11 
REMARK    5  A    between atoms: O_13  and  C_16 
ROOT
ATOM      1  C   UNL d   1      45.864 -16.373  44.158  0.00  0.00     0.142 C 
ENDROOT
BRANCH   1   2
ATOM      2  O   UNL d   1      45.655 -15.906  44.802  0.00  0.00    -0.304 OA
BRANCH   2   3
ATOM      3  C   UNL d   1      45.519 -15.100  44.690  0.00  0.00     0.100 A 
ATOM      4  C   UNL d   1      44.752 -14.803  44.726  0.00  0.00     0.023 A 
ATOM      5  C   UNL d   1      44.608 -14.003  44.616  0.00  0.00     0.002 A 
ATOM      6  C   UNL d   1      45.246 -13.489  44.467  0.00  0.00     0.000 A 
ATOM      7  C   UNL d   1      46.016 -13.785  44.430  0.00  0.00     0.002 A 
ATOM      8  C   UNL d   1      46.153 -14.591  44.542  0.00  0.00     0.025 A 
ATOM      9  C   UNL d   1      46.646 -13.277  44.283  0.00  0.00     0.000 C 
BRANCH   4  10
ATOM     10  C   UNL d   1      44.122 -15.314  44.874  0.00  0.00     0.002 C 
ATOM     11  C   UNL d   1      44.251 -16.126  44.950  0.00  0.00     0.000 C 
ATOM     12  C   UNL d   1      43.355 -15.019  44.947  0.00  0.00     0.000 C 
ENDBRANCH   4  10
ENDBRANCH   2   3
ENDBRANCH   1   2
BRANCH   1  13
ATOM     13  C   UNL d   1      46.472 -16.925  44.239  0.00  0.00     0.112 C 
BRANCH  13  14
ATOM     14  N   UNL d   1      46.398 -17.666  43.894  0.00  0.00    -0.249 N 
ATOM     15  C   UNL d   1      46.422 -17.661  43.061  0.00  0.00     0.378 A 
ATOM     16  O   UNL d   1      46.342 -18.438  42.787  0.00  0.00    -0.258 OA
ATOM     17  O   UNL d   1      46.510 -16.987  42.595  0.00  0.00    -0.237 OA
ATOM     18  C   UNL d   1      46.268 -18.935  43.455  0.00  0.00     0.121 A 
ATOM     19  C   UNL d   1      46.174 -19.752  43.532  0.00  0.00     0.026 A 
ATOM     20  C   UNL d   1      46.303 -18.455  44.134  0.00  0.00     0.092 A 
ATOM     21  C   UNL d   1      46.115 -20.091  44.280  0.00  0.00     0.002 A 
ATOM     22  C   UNL d   1      46.150 -19.615  44.953  0.00  0.00     0.002 A 
ATOM     23  C   UNL d   1      46.244 -18.796  44.885  0.00  0.00     0.020 A 
ENDBRANCH  13  14
ENDBRANCH   1  13
TORSDOF 5
ENDMDL
