MODEL 1
REMARK VINA RESULT:      -7.5      0.000      0.000
REMARK  5 active torsions:
REMARK  status: ('A' for Active; 'I' for Inactive)
REMARK    1  A    between atoms: C_2  and  S_1 
REMARK    2  A    between atoms: N_4  and  S_1 
REMARK    3  A    between atoms: C_15  and  N_4 
REMARK    4  A    between atoms: N_7  and  C_6 
REMARK    5  A    between atoms: C_12  and  C_13 
ROOT
ATOM      1  C   UNL d   1     -46.853  13.990  22.658  0.00  0.00     0.021 A 
ATOM      2  C   UNL d   1     -48.108  14.623  22.400  0.00  0.00     0.094 A 
ATOM      3  C   UNL d   1     -47.668  13.939  22.541  0.00  0.00     0.021 A 
ATOM      4  C   UNL d   1     -46.478  14.725  22.635  0.00  0.00     0.002 A 
ATOM      5  C   UNL d   1     -46.919  15.405  22.494  0.00  0.00     0.002 A 
ATOM      6  C   UNL d   1     -47.734  15.354  22.377  0.00  0.00     0.020 A 
ENDROOT
BRANCH   1   7
ATOM      7  C   UNL d   1     -46.413  13.306  22.799  0.00  0.00     0.103 A 
ATOM      8  N   UNL d   1     -46.386  12.981  23.557  0.00  0.00    -0.147 NA
ATOM      9  N   UNL d   1     -45.945  12.298  23.698  0.00  0.00    -0.130 NA
ATOM     10  C   UNL d   1     -45.531  11.939  23.081  0.00  0.00     0.170 A 
ATOM     11  C   UNL d   1     -45.559  12.264  22.323  0.00  0.00     0.041 A 
ATOM     12  C   UNL d   1     -45.999  12.948  22.181  0.00  0.00     0.024 A 
BRANCH  10  13
ATOM     13  N   UNL d   1     -45.094  11.262  23.216  0.00  0.00    -0.284 N 
ATOM     14  C   UNL d   1     -44.270  11.287  23.190  0.00  0.00     0.108 A 
ATOM     15  C   UNL d   1     -43.831  10.610  23.325  0.00  0.00     0.142 A 
ATOM     16  O   UNL d   1     -44.218   9.899  23.490  0.00  0.00    -0.300 OA
ATOM     17  C   UNL d   1     -45.042   9.874  23.517  0.00  0.00     0.142 A 
ATOM     18  C   UNL d   1     -45.480  10.560  23.379  0.00  0.00     0.108 A 
ENDBRANCH  10  13
ENDBRANCH   1   7
BRANCH   2  19
ATOM     19  N   UNL d   1     -48.923  14.572  22.283  0.00  0.00    -0.158 NA
BRANCH  19  20
ATOM     20  S   UNL d   1     -49.341  13.923  22.567  0.00  0.00     0.285 S 
ATOM     21  O   UNL d   1     -49.353  13.596  21.806  0.00  0.00    -0.198 OA
ATOM     22  O   UNL d   1     -49.328  14.253  23.332  0.00  0.00    -0.198 OA
BRANCH  20  23
ATOM     23  C   UNL d   1     -49.762  13.267  22.844  0.00  0.00     0.106 A 
ATOM     24  C   UNL d   1     -49.380  12.563  23.005  0.00  0.00     0.025 A 
ATOM     25  C   UNL d   1     -49.796  11.910  23.281  0.00  0.00     0.069 A 
ATOM     26 CL   UNL d   1     -49.410  11.197  23.444  0.00  0.00    -0.082 Cl
ATOM     27  C   UNL d   1     -50.611  11.967  23.396  0.00  0.00     0.068 A 
ATOM     28  C   UNL d   1     -51.000  12.678  23.234  0.00  0.00     0.013 A 
ATOM     29 CL   UNL d   1     -51.049  11.313  23.676  0.00  0.00    -0.082 Cl
ATOM     30  C   UNL d   1     -50.576  13.324  22.959  0.00  0.00     0.014 A 
ENDBRANCH  20  23
ENDBRANCH  19  20
ENDBRANCH   2  19
TORSDOF 5
ENDMDL
MODEL 2
REMARK VINA RESULT:      -6.8      4.206      6.662
REMARK  5 active torsions:
REMARK  status: ('A' for Active; 'I' for Inactive)
REMARK    1  A    between atoms: C_2  and  S_1 
REMARK    2  A    between atoms: N_4  and  S_1 
REMARK    3  A    between atoms: C_15  and  N_4 
REMARK    4  A    between atoms: N_7  and  C_6 
REMARK    5  A    between atoms: C_12  and  C_13 
ROOT
ATOM      1  C   UNL d   1     -44.585  12.832  22.064  0.00  0.00     0.021 A 
ATOM      2  C   UNL d   1     -43.388  12.885  21.286  0.00  0.00     0.094 A 
ATOM      3  C   UNL d   1     -44.144  13.169  21.454  0.00  0.00     0.021 A 
ATOM      4  C   UNL d   1     -44.269  12.211  22.507  0.00  0.00     0.002 A 
ATOM      5  C   UNL d   1     -43.516  11.929  22.338  0.00  0.00     0.002 A 
ATOM      6  C   UNL d   1     -43.075  12.266  21.727  0.00  0.00     0.020 A 
ENDROOT
BRANCH   1   7
ATOM      7  C   UNL d   1     -45.341  13.116  22.233  0.00  0.00     0.103 A 
ATOM      8  N   UNL d   1     -45.457  13.629  22.870  0.00  0.00    -0.147 NA
ATOM      9  N   UNL d   1     -46.214  13.913  23.038  0.00  0.00    -0.130 NA
ATOM     10  C   UNL d   1     -46.854  13.685  22.570  0.00  0.00     0.170 A 
ATOM     11  C   UNL d   1     -46.738  13.172  21.934  0.00  0.00     0.041 A 
ATOM     12  C   UNL d   1     -45.982  12.888  21.765  0.00  0.00     0.024 A 
BRANCH  10  13
ATOM     13  N   UNL d   1     -47.605  13.964  22.734  0.00  0.00    -0.284 N 
ATOM     14  C   UNL d   1     -47.805  14.745  22.559  0.00  0.00     0.108 A 
ATOM     15  C   UNL d   1     -48.556  15.026  22.723  0.00  0.00     0.142 A 
ATOM     16  O   UNL d   1     -49.114  14.523  23.066  0.00  0.00    -0.300 OA
ATOM     17  C   UNL d   1     -48.914  13.742  23.241  0.00  0.00     0.142 A 
ATOM     18  C   UNL d   1     -48.155  13.464  23.073  0.00  0.00     0.108 A 
ENDBRANCH  10  13
ENDBRANCH   1   7
BRANCH   2  19
ATOM     19  N   UNL d   1     -42.947  13.222  20.676  0.00  0.00    -0.158 NA
BRANCH  19  20
ATOM     20  S   UNL d   1     -42.269  13.655  20.846  0.00  0.00     0.285 S 
ATOM     21  O   UNL d   1     -42.736  14.294  21.087  0.00  0.00    -0.198 OA
ATOM     22  O   UNL d   1     -41.800  13.010  20.603  0.00  0.00    -0.198 OA
BRANCH  20  23
ATOM     23  C   UNL d   1     -41.592  14.097  21.020  0.00  0.00     0.106 A 
ATOM     24  C   UNL d   1     -40.911  13.731  21.284  0.00  0.00     0.025 A 
ATOM     25  C   UNL d   1     -40.237  14.169  21.457  0.00  0.00     0.069 A 
ATOM     26 CL   UNL d   1     -39.547  13.800  21.724  0.00  0.00    -0.082 Cl
ATOM     27  C   UNL d   1     -40.250  14.989  21.363  0.00  0.00     0.068 A 
ATOM     28  C   UNL d   1     -40.937  15.361  21.096  0.00  0.00     0.013 A 
ATOM     29 CL   UNL d   1     -39.574  15.448  21.535  0.00  0.00    -0.082 Cl
ATOM     30  C   UNL d   1     -41.605  14.916  20.926  0.00  0.00     0.014 A 
ENDBRANCH  20  23
ENDBRANCH  19  20
ENDBRANCH   2  19
TORSDOF 5
ENDMDL
MODEL 3
REMARK VINA RESULT:      -6.7      2.168      2.955
REMARK  5 active torsions:
REMARK  status: ('A' for Active; 'I' for Inactive)
REMARK    1  A    between atoms: C_2  and  S_1 
REMARK    2  A    between atoms: N_4  and  S_1 
REMARK    3  A    between atoms: C_15  and  N_4 
REMARK    4  A    between atoms: N_7  and  C_6 
REMARK    5  A    between atoms: C_12  and  C_13 
ROOT
ATOM      1  C   UNL d   1     -45.633  12.043  22.921  0.00  0.00     0.021 A 
ATOM      2  C   UNL d   1     -46.917  12.354  23.464  0.00  0.00     0.094 A 
ATOM      3  C   UNL d   1     -46.229  12.592  23.075  0.00  0.00     0.021 A 
ATOM      4  C   UNL d   1     -45.724  11.257  23.155  0.00  0.00     0.002 A 
ATOM      5  C   UNL d   1     -46.411  11.023  23.542  0.00  0.00     0.002 A 
ATOM      6  C   UNL d   1     -47.007  11.572  23.697  0.00  0.00     0.020 A 
ENDROOT
BRANCH   1   7
ATOM      7  C   UNL d   1     -44.944  12.280  22.532  0.00  0.00     0.103 A 
ATOM      8  N   UNL d   1     -44.253  11.834  22.608  0.00  0.00    -0.147 NA
ATOM      9  N   UNL d   1     -43.564  12.071  22.219  0.00  0.00    -0.130 NA
ATOM     10  C   UNL d   1     -43.566  12.753  21.755  0.00  0.00     0.170 A 
ATOM     11  C   UNL d   1     -44.257  13.199  21.680  0.00  0.00     0.041 A 
ATOM     12  C   UNL d   1     -44.946  12.962  22.068  0.00  0.00     0.024 A 
BRANCH  10  13
ATOM     13  N   UNL d   1     -42.886  12.991  21.369  0.00  0.00    -0.284 N 
ATOM     14  C   UNL d   1     -42.898  13.137  20.557  0.00  0.00     0.108 A 
ATOM     15  C   UNL d   1     -42.218  13.374  20.169  0.00  0.00     0.142 A 
ATOM     16  O   UNL d   1     -41.517  13.468  20.595  0.00  0.00    -0.300 OA
ATOM     17  C   UNL d   1     -41.505  13.322  21.407  0.00  0.00     0.142 A 
ATOM     18  C   UNL d   1     -42.194  13.083  21.793  0.00  0.00     0.108 A 
ENDBRANCH  10  13
ENDBRANCH   1   7
BRANCH   2  19
ATOM     19  N   UNL d   1     -47.513  12.903  23.618  0.00  0.00    -0.158 NA
BRANCH  19  20
ATOM     20  S   UNL d   1     -48.206  12.895  23.176  0.00  0.00     0.285 S 
ATOM     21  O   UNL d   1     -47.963  13.580  22.780  0.00  0.00    -0.198 OA
ATOM     22  O   UNL d   1     -48.450  12.206  23.576  0.00  0.00    -0.198 OA
BRANCH  20  23
ATOM     23  C   UNL d   1     -48.901  12.894  22.727  0.00  0.00     0.106 A 
ATOM     24  C   UNL d   1     -49.629  12.794  23.084  0.00  0.00     0.025 A 
ATOM     25  C   UNL d   1     -50.320  12.792  22.639  0.00  0.00     0.069 A 
ATOM     26 CL   UNL d   1     -51.058  12.691  22.999  0.00  0.00    -0.082 Cl
ATOM     27  C   UNL d   1     -50.277  12.894  21.822  0.00  0.00     0.068 A 
ATOM     28  C   UNL d   1     -49.543  12.995  21.458  0.00  0.00     0.013 A 
ATOM     29 CL   UNL d   1     -50.971  12.895  21.355  0.00  0.00    -0.082 Cl
ATOM     30  C   UNL d   1     -48.857  12.996  21.910  0.00  0.00     0.014 A 
ENDBRANCH  20  23
ENDBRANCH  19  20
ENDBRANCH   2  19
TORSDOF 5
ENDMDL
MODEL 4
REMARK VINA RESULT:      -6.4      7.600      9.291
REMARK  5 active torsions:
REMARK  status: ('A' for Active; 'I' for Inactive)
REMARK    1  A    between atoms: C_2  and  S_1 
REMARK    2  A    between atoms: N_4  and  S_1 
REMARK    3  A    between atoms: C_15  and  N_4 
REMARK    4  A    between atoms: N_7  and  C_6 
REMARK    5  A    between atoms: C_12  and  C_13 
ROOT
ATOM      1  C   UNL d   1     -40.427  14.887  20.072  0.00  0.00     0.021 A 
ATOM      2  C   UNL d   1     -39.857  15.576  18.958  0.00  0.00     0.094 A 
ATOM      3  C   UNL d   1     -40.466  15.123  19.283  0.00  0.00     0.021 A 
ATOM      4  C   UNL d   1     -39.780  15.104  20.537  0.00  0.00     0.002 A 
ATOM      5  C   UNL d   1     -39.175  15.556  20.211  0.00  0.00     0.002 A 
ATOM      6  C   UNL d   1     -39.214  15.792  19.421  0.00  0.00     0.020 A 
ENDROOT
BRANCH   1   7
ATOM      7  C   UNL d   1     -41.035  14.433  20.398  0.00  0.00     0.103 A 
ATOM      8  N   UNL d   1     -41.245  13.714  20.050  0.00  0.00    -0.147 NA
ATOM      9  N   UNL d   1     -41.853  13.261  20.376  0.00  0.00    -0.130 NA
ATOM     10  C   UNL d   1     -42.251  13.526  21.048  0.00  0.00     0.170 A 
ATOM     11  C   UNL d   1     -42.041  14.245  21.395  0.00  0.00     0.041 A 
ATOM     12  C   UNL d   1     -41.433  14.698  21.070  0.00  0.00     0.024 A 
BRANCH  10  13
ATOM     13  N   UNL d   1     -42.854  13.079  21.374  0.00  0.00    -0.284 N 
ATOM     14  C   UNL d   1     -42.682  12.384  21.783  0.00  0.00     0.108 A 
ATOM     15  C   UNL d   1     -43.284  11.937  22.109  0.00  0.00     0.142 A 
ATOM     16  O   UNL d   1     -44.067  12.184  22.026  0.00  0.00    -0.300 OA
ATOM     17  C   UNL d   1     -44.239  12.879  21.616  0.00  0.00     0.142 A 
ATOM     18  C   UNL d   1     -43.628  13.327  21.290  0.00  0.00     0.108 A 
ENDBRANCH  10  13
ENDBRANCH   1   7
BRANCH   2  19
ATOM     19  N   UNL d   1     -39.896  15.813  18.168  0.00  0.00    -0.158 NA
BRANCH  19  20
ATOM     20  S   UNL d   1     -39.501  15.383  17.589  0.00  0.00     0.285 S 
ATOM     21  O   UNL d   1     -40.212  15.019  17.372  0.00  0.00    -0.198 OA
ATOM     22  O   UNL d   1     -38.786  15.751  17.809  0.00  0.00    -0.198 OA
BRANCH  20  23
ATOM     23  C   UNL d   1     -39.111  14.948  17.004  0.00  0.00     0.106 A 
ATOM     24  C   UNL d   1     -38.925  14.161  17.123  0.00  0.00     0.025 A 
ATOM     25  C   UNL d   1     -38.538  13.727  16.542  0.00  0.00     0.069 A 
ATOM     26 CL   UNL d   1     -38.349  12.931  16.661  0.00  0.00    -0.082 Cl
ATOM     27  C   UNL d   1     -38.334  14.091  15.831  0.00  0.00     0.068 A 
ATOM     28  C   UNL d   1     -38.521  14.887  15.707  0.00  0.00     0.013 A 
ATOM     29 CL   UNL d   1     -37.940  13.664  15.231  0.00  0.00    -0.082 Cl
ATOM     30  C   UNL d   1     -38.908  15.312  16.293  0.00  0.00     0.014 A 
ENDBRANCH  20  23
ENDBRANCH  19  20
ENDBRANCH   2  19
TORSDOF 5
ENDMDL
MODEL 5
REMARK VINA RESULT:      -6.4      4.028      4.885
REMARK  5 active torsions:
REMARK  status: ('A' for Active; 'I' for Inactive)
REMARK    1  A    between atoms: C_2  and  S_1 
REMARK    2  A    between atoms: N_4  and  S_1 
REMARK    3  A    between atoms: C_15  and  N_4 
REMARK    4  A    between atoms: N_7  and  C_6 
REMARK    5  A    between atoms: C_12  and  C_13 
ROOT
ATOM      1  C   UNL d   1     -43.175  13.035  21.449  0.00  0.00     0.021 A 
ATOM      2  C   UNL d   1     -44.484  13.162  22.008  0.00  0.00     0.094 A 
ATOM      3  C   UNL d   1     -43.853  13.485  21.584  0.00  0.00     0.021 A 
ATOM      4  C   UNL d   1     -43.128  12.263  21.737  0.00  0.00     0.002 A 
ATOM      5  C   UNL d   1     -43.757  11.944  22.159  0.00  0.00     0.002 A 
ATOM      6  C   UNL d   1     -44.435  12.394  22.294  0.00  0.00     0.020 A 
ENDROOT
BRANCH   1   7
ATOM      7  C   UNL d   1     -42.544  13.357  21.025  0.00  0.00     0.103 A 
ATOM      8  N   UNL d   1     -42.412  13.127  20.243  0.00  0.00    -0.147 NA
ATOM      9  N   UNL d   1     -41.780  13.449  19.820  0.00  0.00    -0.130 NA
ATOM     10  C   UNL d   1     -41.282  14.000  20.177  0.00  0.00     0.170 A 
ATOM     11  C   UNL d   1     -41.415  14.230  20.959  0.00  0.00     0.041 A 
ATOM     12  C   UNL d   1     -42.045  13.908  21.383  0.00  0.00     0.024 A 
BRANCH  10  13
ATOM     13  N   UNL d   1     -40.656  14.321  19.761  0.00  0.00    -0.284 N 
ATOM     14  C   UNL d   1     -39.923  14.424  20.125  0.00  0.00     0.108 A 
ATOM     15  C   UNL d   1     -39.296  14.744  19.709  0.00  0.00     0.142 A 
ATOM     16  O   UNL d   1     -39.400  14.966  18.920  0.00  0.00    -0.300 OA
ATOM     17  C   UNL d   1     -40.133  14.863  18.556  0.00  0.00     0.142 A 
ATOM     18  C   UNL d   1     -40.762  14.539  18.980  0.00  0.00     0.108 A 
ENDBRANCH  10  13
ENDBRANCH   1   7
BRANCH   2  19
ATOM     19  N   UNL d   1     -45.162  13.612  22.143  0.00  0.00    -0.158 NA
BRANCH  19  20
ATOM     20  S   UNL d   1     -45.853  13.250  22.402  0.00  0.00     0.285 S 
ATOM     21  O   UNL d   1     -45.689  13.487  23.178  0.00  0.00    -0.198 OA
ATOM     22  O   UNL d   1     -46.017  13.012  21.620  0.00  0.00    -0.198 OA
BRANCH  20  23
ATOM     23  C   UNL d   1     -46.547  12.888  22.669  0.00  0.00     0.106 A 
ATOM     24  C   UNL d   1     -47.237  12.933  22.234  0.00  0.00     0.025 A 
ATOM     25  C   UNL d   1     -47.927  12.573  22.499  0.00  0.00     0.069 A 
ATOM     26 CL   UNL d   1     -48.626  12.618  22.059  0.00  0.00    -0.082 Cl
ATOM     27  C   UNL d   1     -47.922  12.161  23.214  0.00  0.00     0.068 A 
ATOM     28  C   UNL d   1     -47.226  12.114  23.657  0.00  0.00     0.013 A 
ATOM     29 CL   UNL d   1     -48.615  11.790  23.497  0.00  0.00    -0.082 Cl
ATOM     30  C   UNL d   1     -46.541  12.476  23.384  0.00  0.00     0.014 A 
ENDBRANCH  20  23
ENDBRANCH  19  20
ENDBRANCH   2  19
TORSDOF 5
ENDMDL
MODEL 6
REMARK VINA RESULT:      -5.7      5.640      6.882
REMARK  5 active torsions:
REMARK  status: ('A' for Active; 'I' for Inactive)
REMARK    1  A    between atoms: C_2  and  S_1 
REMARK    2  A    between atoms: N_4  and  S_1 
REMARK    3  A    between atoms: C_15  and  N_4 
REMARK    4  A    between atoms: N_7  and  C_6 
REMARK    5  A    between atoms: C_12  and  C_13 
ROOT
ATOM      1  C   UNL d   1     -41.367  13.930  20.309  0.00  0.00     0.021 A 
ATOM      2  C   UNL d   1     -42.289  13.089  21.006  0.00  0.00     0.094 A 
ATOM      3  C   UNL d   1     -41.949  13.345  20.299  0.00  0.00     0.021 A 
ATOM      4  C   UNL d   1     -41.125  14.259  21.027  0.00  0.00     0.002 A 
ATOM      5  C   UNL d   1     -41.466  14.002  21.730  0.00  0.00     0.002 A 
ATOM      6  C   UNL d   1     -42.047  13.417  21.720  0.00  0.00     0.020 A 
ENDROOT
BRANCH   1   7
ATOM      7  C   UNL d   1     -41.027  14.187  19.602  0.00  0.00     0.103 A 
ATOM      8  N   UNL d   1     -41.196  13.793  18.896  0.00  0.00    -0.147 NA
ATOM      9  N   UNL d   1     -40.855  14.050  18.189  0.00  0.00    -0.130 NA
ATOM     10  C   UNL d   1     -40.347  14.699  18.188  0.00  0.00     0.170 A 
ATOM     11  C   UNL d   1     -40.178  15.092  18.894  0.00  0.00     0.041 A 
ATOM     12  C   UNL d   1     -40.518  14.836  19.601  0.00  0.00     0.024 A 
BRANCH  10  13
ATOM     13  N   UNL d   1     -40.008  14.956  17.490  0.00  0.00    -0.284 N 
ATOM     14  C   UNL d   1     -39.418  14.509  17.125  0.00  0.00     0.108 A 
ATOM     15  C   UNL d   1     -39.078  14.765  16.427  0.00  0.00     0.142 A 
ATOM     16  O   UNL d   1     -39.329  15.475  16.086  0.00  0.00    -0.300 OA
ATOM     17  C   UNL d   1     -39.919  15.921  16.451  0.00  0.00     0.142 A 
ATOM     18  C   UNL d   1     -40.259  15.659  17.156  0.00  0.00     0.108 A 
ENDBRANCH  10  13
ENDBRANCH   1   7
BRANCH   2  19
ATOM     19  N   UNL d   1     -42.870  12.504  20.996  0.00  0.00    -0.158 NA
BRANCH  19  20
ATOM     20  S   UNL d   1     -43.573  12.613  21.409  0.00  0.00     0.285 S 
ATOM     21  O   UNL d   1     -43.249  12.225  22.064  0.00  0.00    -0.198 OA
ATOM     22  O   UNL d   1     -43.897  13.003  20.747  0.00  0.00    -0.198 OA
BRANCH  20  23
ATOM     23  C   UNL d   1     -44.276  12.718  21.831  0.00  0.00     0.106 A 
ATOM     24  C   UNL d   1     -44.546  12.143  22.344  0.00  0.00     0.025 A 
ATOM     25  C   UNL d   1     -45.245  12.246  22.765  0.00  0.00     0.069 A 
ATOM     26 CL   UNL d   1     -45.518  11.664  23.284  0.00  0.00    -0.082 Cl
ATOM     27  C   UNL d   1     -45.678  12.940  22.666  0.00  0.00     0.068 A 
ATOM     28  C   UNL d   1     -45.409  13.525  22.148  0.00  0.00     0.013 A 
ATOM     29 CL   UNL d   1     -46.391  13.061  23.086  0.00  0.00    -0.082 Cl
ATOM     30  C   UNL d   1     -44.710  13.413  21.732  0.00  0.00     0.014 A 
ENDBRANCH  20  23
ENDBRANCH  19  20
ENDBRANCH   2  19
TORSDOF 5
ENDMDL
MODEL 7
REMARK VINA RESULT:      -4.6      7.731      9.294
REMARK  5 active torsions:
REMARK  status: ('A' for Active; 'I' for Inactive)
REMARK    1  A    between atoms: C_2  and  S_1 
REMARK    2  A    between atoms: N_4  and  S_1 
REMARK    3  A    between atoms: C_15  and  N_4 
REMARK    4  A    between atoms: N_7  and  C_6 
REMARK    5  A    between atoms: C_12  and  C_13 
ROOT
ATOM      1  C   UNL d   1     -38.511  14.153  19.633  0.00  0.00     0.021 A 
ATOM      2  C   UNL d   1     -39.261  14.449  20.812  0.00  0.00     0.094 A 
ATOM      3  C   UNL d   1     -39.166  14.501  19.994  0.00  0.00     0.021 A 
ATOM      4  C   UNL d   1     -37.952  13.752  20.090  0.00  0.00     0.002 A 
ATOM      5  C   UNL d   1     -38.049  13.702  20.905  0.00  0.00     0.002 A 
ATOM      6  C   UNL d   1     -38.704  14.050  21.266  0.00  0.00     0.020 A 
ENDROOT
BRANCH   1   7
ATOM      7  C   UNL d   1     -38.415  14.205  18.815  0.00  0.00     0.103 A 
ATOM      8  N   UNL d   1     -38.067  14.875  18.482  0.00  0.00    -0.147 NA
ATOM      9  N   UNL d   1     -37.971  14.927  17.663  0.00  0.00    -0.130 NA
ATOM     10  C   UNL d   1     -38.222  14.309  17.178  0.00  0.00     0.170 A 
ATOM     11  C   UNL d   1     -38.569  13.638  17.512  0.00  0.00     0.041 A 
ATOM     12  C   UNL d   1     -38.666  13.586  18.330  0.00  0.00     0.024 A 
BRANCH  10  13
ATOM     13  N   UNL d   1     -38.128  14.356  16.368  0.00  0.00    -0.284 N 
ATOM     14  C   UNL d   1     -38.099  15.092  15.995  0.00  0.00     0.108 A 
ATOM     15  C   UNL d   1     -38.005  15.141  15.184  0.00  0.00     0.142 A 
ATOM     16  O   UNL d   1     -37.940  14.449  14.738  0.00  0.00    -0.300 OA
ATOM     17  C   UNL d   1     -37.969  13.713  15.111  0.00  0.00     0.142 A 
ATOM     18  C   UNL d   1     -38.064  13.670  15.929  0.00  0.00     0.108 A 
ENDBRANCH  10  13
ENDBRANCH   1   7
BRANCH   2  19
ATOM     19  N   UNL d   1     -39.916  14.798  21.174  0.00  0.00    -0.158 NA
BRANCH  19  20
ATOM     20  S   UNL d   1     -40.642  14.411  21.174  0.00  0.00     0.285 S 
ATOM     21  O   UNL d   1     -40.918  14.927  20.588  0.00  0.00    -0.198 OA
ATOM     22  O   UNL d   1     -40.362  13.893  21.764  0.00  0.00    -0.198 OA
BRANCH  20  23
ATOM     23  C   UNL d   1     -41.374  14.028  21.168  0.00  0.00     0.106 A 
ATOM     24  C   UNL d   1     -41.498  13.355  21.614  0.00  0.00     0.025 A 
ATOM     25  C   UNL d   1     -42.225  12.972  21.610  0.00  0.00     0.069 A 
ATOM     26 CL   UNL d   1     -42.351  12.291  22.061  0.00  0.00    -0.082 Cl
ATOM     27  C   UNL d   1     -42.839  13.274  21.148  0.00  0.00     0.068 A 
ATOM     28  C   UNL d   1     -42.718  13.954  20.695  0.00  0.00     0.013 A 
ATOM     29 CL   UNL d   1     -43.585  12.897  21.132  0.00  0.00    -0.082 Cl
ATOM     30  C   UNL d   1     -41.988  14.329  20.706  0.00  0.00     0.014 A 
ENDBRANCH  20  23
ENDBRANCH  19  20
ENDBRANCH   2  19
TORSDOF 5
ENDMDL
