MODEL 1
REMARK VINA RESULT:      -3.5      0.000      0.000
REMARK  1 active torsions:
REMARK  status: ('A' for Active; 'I' for Inactive)
REMARK    1  A    between atoms: C_2  and  N_1 
ROOT
ATOM      1  C   UNL d   1      32.263  17.040 -23.837  0.00  0.00     0.169 A 
ATOM      2  C   UNL d   1      31.515  16.753 -23.916  0.00  0.00     0.060 A 
ATOM      3  C   UNL d   1      31.313  16.008 -23.566  0.00  0.00     0.115 A 
ATOM      4  S   UNL d   1      30.529  15.854 -23.730  0.00  0.00    -0.068 SA
ATOM      5  C   UNL d   1      30.831  17.024 -24.282  0.00  0.00     0.011 A 
ATOM      6  N   UNL d   1      32.834  16.639 -23.433  0.00  0.00    -0.208 NA
ATOM      7  N   UNL d   1      31.872  15.594 -23.160  0.00  0.00    -0.220 NA
ATOM      8  C   UNL d   1      30.226  16.466 -24.166  0.00  0.00     0.031 A 
ATOM      9  C   UNL d   1      32.661  15.882 -23.068  0.00  0.00     0.165 A 
ATOM     10  C   UNL d   1      30.673  17.714 -24.716  0.00  0.00     0.001 A 
ATOM     11  C   UNL d   1      29.478  16.597 -24.476  0.00  0.00     0.006 A 
ATOM     12  C   UNL d   1      33.232  15.453 -22.649  0.00  0.00     0.042 C 
ATOM     13  C   UNL d   1      29.914  17.828 -25.020  0.00  0.00     0.000 A 
ATOM     14  C   UNL d   1      29.298  17.262 -24.902  0.00  0.00     0.001 A 
ENDROOT
BRANCH   1  15
ATOM     15  N   UNL d   1      32.470  17.767 -24.174  0.00  0.00    -0.193 N 
ATOM     16  N   UNL d   1      32.457  17.929 -24.974  0.00  0.00    -0.058 NA
ATOM     17  N   UNL d   1      32.703  18.721 -25.090  0.00  0.00    -0.129 NA
ATOM     18  C   UNL d   1      32.867  19.045 -24.347  0.00  0.00     0.122 A 
ATOM     19  C   UNL d   1      32.730  18.477 -23.783  0.00  0.00     0.105 A 
ATOM     20  C   UNL d   1      33.120  19.776 -24.137  0.00  0.00     0.022 A 
ATOM     21  C   UNL d   1      32.836  18.612 -23.008  0.00  0.00     0.021 A 
ATOM     22  C   UNL d   1      33.096  19.358 -22.769  0.00  0.00     0.002 A 
ATOM     23  C   UNL d   1      33.238  19.943 -23.347  0.00  0.00     0.002 A 
ENDBRANCH   1  15
TORSDOF 1
ENDMDL
MODEL 2
REMARK VINA RESULT:      -1.2      1.384      3.115
REMARK  1 active torsions:
REMARK  status: ('A' for Active; 'I' for Inactive)
REMARK    1  A    between atoms: C_2  and  N_1 
ROOT
ATOM      1  C   UNL d   1      31.851  16.509 -23.638  0.00  0.00     0.169 A 
ATOM      2  C   UNL d   1      32.241  17.209 -23.724  0.00  0.00     0.060 A 
ATOM      3  C   UNL d   1      32.956  17.345 -23.289  0.00  0.00     0.115 A 
ATOM      4  S   UNL d   1      33.231  18.089 -23.480  0.00  0.00    -0.068 SA
ATOM      5  C   UNL d   1      32.112  17.888 -24.167  0.00  0.00     0.011 A 
ATOM      6  N   UNL d   1      32.118  15.928 -23.148  0.00  0.00    -0.208 NA
ATOM      7  N   UNL d   1      33.236  16.775 -22.795  0.00  0.00    -0.220 NA
ATOM      8  C   UNL d   1      32.725  18.428 -24.013  0.00  0.00     0.031 A 
ATOM      9  C   UNL d   1      32.838  16.036 -22.695  0.00  0.00     0.165 A 
ATOM     10  C   UNL d   1      31.509  18.095 -24.700  0.00  0.00     0.001 A 
ATOM     11  C   UNL d   1      32.734  19.159 -24.385  0.00  0.00     0.006 A 
ATOM     12  C   UNL d   1      33.132  15.452 -22.185  0.00  0.00     0.042 C 
ATOM     13  C   UNL d   1      31.536  18.834 -25.064  0.00  0.00     0.000 A 
ATOM     14  C   UNL d   1      32.158  19.384 -24.909  0.00  0.00     0.001 A 
ENDROOT
BRANCH   1  15
ATOM     15  N   UNL d   1      31.151  16.366 -24.058  0.00  0.00    -0.193 N 
ATOM     16  N   UNL d   1      31.097  16.331 -24.872  0.00  0.00    -0.058 NA
ATOM     17  N   UNL d   1      30.301  16.176 -25.080  0.00  0.00    -0.129 NA
ATOM     18  C   UNL d   1      29.865  16.117 -24.379  0.00  0.00     0.122 A 
ATOM     19  C   UNL d   1      30.369  16.231 -23.753  0.00  0.00     0.105 A 
ATOM     20  C   UNL d   1      29.086  15.977 -24.256  0.00  0.00     0.022 A 
ATOM     21  C   UNL d   1      30.123  16.209 -22.998  0.00  0.00     0.021 A 
ATOM     22  C   UNL d   1      29.324  16.065 -22.847  0.00  0.00     0.002 A 
ATOM     23  C   UNL d   1      28.804  15.948 -23.490  0.00  0.00     0.002 A 
ENDBRANCH   1  15
TORSDOF 1
ENDMDL
