MODEL 1
REMARK VINA RESULT:      -4.0      0.000      0.000
REMARK  6 active torsions:
REMARK  status: ('A' for Active; 'I' for Inactive)
REMARK    1  A    between atoms: C_8  and  C_6 
REMARK    2  A    between atoms: C_9  and  C_8 
REMARK       I    between atoms: N_11  and  C_9 
REMARK    3  A    between atoms: C_10  and  C_12 
REMARK    4  A    between atoms: O_20  and  C_10 
REMARK    5  A    between atoms: C_19  and  N_11 
REMARK    6  A    between atoms: C_29  and  O_20 
ROOT
ATOM      1  N   UNL d   1      57.565   0.508  32.609  0.00  0.00    -0.207 NA
ATOM      2  N   UNL d   1      56.989  -0.720  31.622  0.00  0.00    -0.240 NA
ATOM      3  C   UNL d   1      57.781   0.257  31.866  0.00  0.00     0.297 A 
ATOM      4  C   UNL d   1      56.978   0.223  33.114  0.00  0.00     0.086 A 
ATOM      5  C   UNL d   1      56.488  -0.829  32.262  0.00  0.00     0.083 A 
ATOM      6  C   UNL d   1      57.584  -0.159  31.534  0.00  0.00     0.144 A 
ATOM      7  C   UNL d   1      56.451  -0.410  32.977  0.00  0.00     0.035 A 
ATOM      8  O   UNL d   1      58.399   0.674  31.518  0.00  0.00    -0.264 OA
ATOM      9  C   UNL d   1      55.900  -0.610  33.558  0.00  0.00     0.003 A 
ATOM     10  C   UNL d   1      55.967  -1.455  32.128  0.00  0.00     0.019 A 
ATOM     11  C   UNL d   1      56.945   0.643  33.825  0.00  0.00     0.019 A 
ATOM     12  C   UNL d   1      55.404  -1.664  32.713  0.00  0.00     0.002 A 
ATOM     13  C   UNL d   1      56.389   0.437  34.402  0.00  0.00     0.002 A 
ATOM     14  C   UNL d   1      55.372  -1.243  33.422  0.00  0.00     0.000 A 
ATOM     15  C   UNL d   1      55.868  -0.189  34.267  0.00  0.00     0.000 A 
ENDROOT
BRANCH   6  16
ATOM     16  C   UNL d   1      57.978  -0.213  30.812  0.00  0.00     0.086 C 
BRANCH  16  17
ATOM     17  C   UNL d   1      57.648   0.150  30.139  0.00  0.00     0.281 C 
ATOM     18  N   UNL d   1      57.982   0.020  29.394  0.00  0.00    -0.208 NA
ATOM     19  O   UNL d   1      56.985   0.640  30.212  0.00  0.00    -0.265 OA
BRANCH  18  20
ATOM     20  C   UNL d   1      58.645  -0.469  29.316  0.00  0.00     0.085 A 
ATOM     21  C   UNL d   1      58.542  -1.269  29.159  0.00  0.00     0.019 A 
ATOM     22  C   UNL d   1      59.197  -1.762  29.081  0.00  0.00     0.007 A 
ATOM     23  C   UNL d   1      59.962  -1.447  29.160  0.00  0.00     0.064 A 
ATOM     24  C   UNL d   1      60.060  -0.644  29.317  0.00  0.00     0.007 A 
ATOM     25  C   UNL d   1      59.402  -0.154  29.395  0.00  0.00     0.019 A 
BRANCH  23  26
ATOM     26  C   UNL d   1      60.608  -1.928  29.083  0.00  0.00     0.300 C 
ATOM     27  O   UNL d   1      61.121  -1.831  28.455  0.00  0.00    -0.259 OA
BRANCH  26  28
ATOM     28  O   UNL d   1      60.752  -2.511  29.631  0.00  0.00    -0.271 OA
BRANCH  28  29
ATOM     29  C   UNL d   1      61.040  -3.233  29.393  0.00  0.00     0.126 C 
ATOM     30  C   UNL d   1      60.975  -3.880  29.881  0.00  0.00     0.029 C 
ENDBRANCH  28  29
ENDBRANCH  26  28
ENDBRANCH  23  26
ENDBRANCH  18  20
ENDBRANCH  16  17
ENDBRANCH   6  16
TORSDOF 6
ENDMDL
MODEL 2
REMARK VINA RESULT:      -3.0      0.671      1.427
REMARK  6 active torsions:
REMARK  status: ('A' for Active; 'I' for Inactive)
REMARK    1  A    between atoms: C_8  and  C_6 
REMARK    2  A    between atoms: C_9  and  C_8 
REMARK       I    between atoms: N_11  and  C_9 
REMARK    3  A    between atoms: C_10  and  C_12 
REMARK    4  A    between atoms: O_20  and  C_10 
REMARK    5  A    between atoms: C_19  and  N_11 
REMARK    6  A    between atoms: C_29  and  O_20 
ROOT
ATOM      1  N   UNL d   1      56.297  -1.467  31.974  0.00  0.00    -0.207 NA
ATOM      2  N   UNL d   1      57.305  -0.132  32.097  0.00  0.00    -0.240 NA
ATOM      3  C   UNL d   1      56.825  -1.131  31.454  0.00  0.00     0.297 A 
ATOM      4  C   UNL d   1      56.095  -1.242  32.742  0.00  0.00     0.086 A 
ATOM      5  C   UNL d   1      56.963  -0.097  32.840  0.00  0.00     0.083 A 
ATOM      6  C   UNL d   1      57.165  -0.679  31.499  0.00  0.00     0.144 A 
ATOM      7  C   UNL d   1      56.394  -0.597  33.179  0.00  0.00     0.035 A 
ATOM      8  O   UNL d   1      56.889  -1.505  30.724  0.00  0.00    -0.264 OA
ATOM      9  C   UNL d   1      56.117  -0.466  33.946  0.00  0.00     0.003 A 
ATOM     10  C   UNL d   1      57.257   0.540  33.274  0.00  0.00     0.019 A 
ATOM     11  C   UNL d   1      55.528  -1.742  33.076  0.00  0.00     0.019 A 
ATOM     12  C   UNL d   1      56.981   0.680  34.053  0.00  0.00     0.002 A 
ATOM     13  C   UNL d   1      55.256  -1.604  33.845  0.00  0.00     0.002 A 
ATOM     14  C   UNL d   1      56.415   0.179  34.385  0.00  0.00     0.000 A 
ATOM     15  C   UNL d   1      55.551  -0.967  34.278  0.00  0.00     0.000 A 
ENDROOT
BRANCH   6  16
ATOM     16  C   UNL d   1      57.613  -0.541  30.820  0.00  0.00     0.086 C 
BRANCH  16  17
ATOM     17  C   UNL d   1      57.505   0.168  30.396  0.00  0.00     0.281 C 
ATOM     18  N   UNL d   1      58.021   0.363  29.780  0.00  0.00    -0.208 NA
ATOM     19  O   UNL d   1      56.884   0.679  30.589  0.00  0.00    -0.265 OA
BRANCH  18  20
ATOM     20  C   UNL d   1      58.644  -0.145  29.584  0.00  0.00     0.085 A 
ATOM     21  C   UNL d   1      58.527  -0.732  29.021  0.00  0.00     0.019 A 
ATOM     22  C   UNL d   1      59.142  -1.241  28.821  0.00  0.00     0.007 A 
ATOM     23  C   UNL d   1      59.882  -1.158  29.190  0.00  0.00     0.064 A 
ATOM     24  C   UNL d   1      59.996  -0.567  29.754  0.00  0.00     0.007 A 
ATOM     25  C   UNL d   1      59.376  -0.060  29.951  0.00  0.00     0.019 A 
BRANCH  23  26
ATOM     26  C   UNL d   1      60.490  -1.656  28.996  0.00  0.00     0.300 C 
ATOM     27  O   UNL d   1      61.133  -1.377  28.577  0.00  0.00    -0.259 OA
BRANCH  26  28
ATOM     28  O   UNL d   1      60.465  -2.438  29.217  0.00  0.00    -0.271 OA
BRANCH  28  29
ATOM     29  C   UNL d   1      61.124  -2.907  29.131  0.00  0.00     0.126 C 
ATOM     30  C   UNL d   1      61.059  -3.715  29.195  0.00  0.00     0.029 C 
ENDBRANCH  28  29
ENDBRANCH  26  28
ENDBRANCH  23  26
ENDBRANCH  18  20
ENDBRANCH  16  17
ENDBRANCH   6  16
TORSDOF 6
ENDMDL
