MODEL 1
REMARK VINA RESULT:      54.5      0.000      0.000
REMARK  2 active torsions:
REMARK  status: ('A' for Active; 'I' for Inactive)
REMARK    1  A    between atoms: N_10  and  C_6 
REMARK    2  A    between atoms: C_12  and  N_10 
ROOT
ATOM      1  N   UNL d   1     -54.714-101.429 -41.672  0.00  0.00    -0.169 N 
ATOM      2  C   UNL d   1     -54.716-100.719 -41.250  0.00  0.00     0.201 A 
ATOM      3  C   UNL d   1     -54.713-102.139 -41.271  0.00  0.00     0.283 A 
ATOM      4  S   UNL d   1     -54.717-100.098 -41.792  0.00  0.00    -0.008 SA
ATOM      5  N   UNL d   1     -54.714-101.241 -42.480  0.00  0.00    -0.134 NA
ATOM      6  C   UNL d   1     -54.716-100.427 -42.551  0.00  0.00     0.216 A 
ATOM      7  N   UNL d   1     -54.716-100.714 -40.438  0.00  0.00    -0.221 NA
ATOM      8  C   UNL d   1     -54.713-102.147 -40.444  0.00  0.00     0.076 A 
ATOM      9  C   UNL d   1     -54.714-101.434 -40.027  0.00  0.00     0.088 A 
ATOM     10  O   UNL d   1     -54.711-102.852 -41.688  0.00  0.00    -0.265 OA
ATOM     11  C   UNL d   1     -54.711-102.864 -40.031  0.00  0.00     0.006 A 
ATOM     12  C   UNL d   1     -54.715-101.438 -39.198  0.00  0.00     0.019 A 
ATOM     13  C   UNL d   1     -54.712-102.862 -39.196  0.00  0.00     0.000 A 
ATOM     14  C   UNL d   1     -54.713-102.160 -38.786  0.00  0.00     0.002 A 
ENDROOT
BRANCH   6  15
ATOM     15  N   UNL d   1     -54.717-100.000 -43.258  0.00  0.00    -0.220 NA
BRANCH  15  16
ATOM     16  C   UNL d   1     -54.855-100.366 -43.978  0.00  0.00     0.084 A 
ATOM     17  C   UNL d   1     -54.798-101.177 -44.049  0.00  0.00     0.019 A 
ATOM     18  C   UNL d   1     -54.939-101.530 -44.777  0.00  0.00     0.002 A 
ATOM     19  C   UNL d   1     -54.884-102.344 -44.855  0.00  0.00     0.000 C 
ATOM     20  C   UNL d   1     -55.136-101.060 -45.426  0.00  0.00     0.000 A 
ATOM     21  C   UNL d   1     -55.193-100.252 -45.356  0.00  0.00     0.002 A 
ATOM     22  C   UNL d   1     -55.051 -99.898 -44.625  0.00  0.00     0.019 A 
ENDBRANCH  15  16
ENDBRANCH   6  15
TORSDOF 2
ENDMDL
