MODEL 1
REMARK VINA RESULT:      24.8      0.000      0.000
REMARK  4 active torsions:
REMARK  status: ('A' for Active; 'I' for Inactive)
REMARK    1  A    between atoms: C_8  and  C_2 
REMARK    2  A    between atoms: C_9  and  N_3 
REMARK    3  A    between atoms: C_12  and  C_9 
REMARK    4  A    between atoms: C_14  and  C_12 
ROOT
ATOM      1  N   UNL d   1      45.941 -17.439  42.282  0.00  0.00    -0.217 NA
ATOM      2  C   UNL d   1      46.011 -17.650  43.073  0.00  0.00     0.149 A 
ATOM      3  N   UNL d   1      46.205 -18.423  43.275  0.00  0.00    -0.290 N 
ATOM      4  C   UNL d   1      46.257 -18.763  41.887  0.00  0.00     0.044 A 
ATOM      5  C   UNL d   1      46.062 -17.986  41.686  0.00  0.00     0.139 A 
ATOM      6  C   UNL d   1      46.331 -18.988  42.682  0.00  0.00     0.068 A 
ATOM      7  S   UNL d   1      45.993 -17.777  40.903  0.00  0.00    -0.057 SA
ATOM      8  C   UNL d   1      46.381 -19.320  41.297  0.00  0.00     0.004 A 
ATOM      9  C   UNL d   1      46.524 -19.756  42.877  0.00  0.00     0.018 A 
ATOM     10  C   UNL d   1      46.575 -20.091  41.492  0.00  0.00     0.000 A 
ATOM     11  C   UNL d   1      46.646 -20.308  42.301  0.00  0.00     0.002 A 
ENDROOT
BRANCH   2  12
ATOM     12  C   UNL d   1      45.888 -17.095  43.670  0.00  0.00     0.035 A 
ATOM     13  C   UNL d   1      46.399 -16.457  43.748  0.00  0.00     0.003 A 
ATOM     14  C   UNL d   1      46.270 -15.897  44.355  0.00  0.00     0.000 A 
ATOM     15  C   UNL d   1      45.632 -15.989  44.871  0.00  0.00     0.000 A 
ATOM     16  C   UNL d   1      45.124 -16.634  44.783  0.00  0.00     0.000 A 
ATOM     17  C   UNL d   1      45.248 -17.187  44.186  0.00  0.00     0.003 A 
ENDBRANCH   2  12
BRANCH   3  18
ATOM     18  C   UNL d   1      46.276 -18.637  44.073  0.00  0.00     0.085 C 
BRANCH  18  19
ATOM     19  C   UNL d   1      46.625 -19.354  44.264  0.00  0.00     0.064 C 
BRANCH  19  20
ATOM     20  C   UNL d   1      46.392 -19.756  44.945  0.00  0.00     0.236 C 
ATOM     21  O   UNL d   1      45.715 -20.201  44.954  0.00  0.00    -0.283 OA
ENDBRANCH  19  20
ENDBRANCH  18  19
ENDBRANCH   3  18
TORSDOF 4
ENDMDL
