MODEL 1
REMARK VINA RESULT:      35.4      0.000      0.000
REMARK  3 active torsions:
REMARK  status: ('A' for Active; 'I' for Inactive)
REMARK    1  A    between atoms: C_2  and  N_1 
REMARK    2  A    between atoms: O_14  and  C_5 
REMARK    3  A    between atoms: O_15  and  C_12 
ROOT
ATOM      1  C   UNL d   1      60.035  49.618  51.246  0.00  0.00     0.092 A 
ATOM      2  C   UNL d   1      60.759  49.533  50.877  0.00  0.00     0.112 A 
ATOM      3  C   UNL d   1      61.453  49.533  51.326  0.00  0.00     0.050 A 
ATOM      4  C   UNL d   1      59.985  49.705  52.061  0.00  0.00     0.022 A 
ATOM      5  C   UNL d   1      61.404  49.619  52.145  0.00  0.00     0.096 A 
ATOM      6  C   UNL d   1      60.668  49.705  52.511  0.00  0.00     0.026 A 
ENDROOT
BRANCH   1   7
ATOM      7  N   UNL d   1      59.338  49.618  50.796  0.00  0.00    -0.240 N 
ATOM      8  C   UNL d   1      58.568  49.582  51.079  0.00  0.00     0.267 A 
ATOM      9  C   UNL d   1      58.054  49.596  50.445  0.00  0.00     0.066 A 
ATOM     10  O   UNL d   1      58.350  49.538  51.878  0.00  0.00    -0.267 OA
ATOM     11  C   UNL d   1      58.505  49.642  49.749  0.00  0.00     0.066 A 
ATOM     12  C   UNL d   1      59.300  49.656  49.967  0.00  0.00     0.267 A 
ATOM     13  O   UNL d   1      59.984  49.702  49.412  0.00  0.00    -0.267 OA
ENDBRANCH   1   7
BRANCH   2  14
ATOM     14  O   UNL d   1      60.809  49.445  50.054  0.00  0.00    -0.327 OA
ATOM     15  C   UNL d   1      61.482  49.702  49.646  0.00  0.00     0.181 C 
ENDBRANCH   2  14
BRANCH   5  16
ATOM     16  O   UNL d   1      62.099  49.620  52.603  0.00  0.00    -0.328 OA
ATOM     17  C   UNL d   1      62.177  49.106  53.246  0.00  0.00     0.181 C 
ENDBRANCH   5  16
TORSDOF 3
ENDMDL
