MODEL 1
REMARK VINA RESULT:      15.7      0.000      0.000
REMARK  1 active torsions:
REMARK  status: ('A' for Active; 'I' for Inactive)
REMARK    1  A    between atoms: C_7  and  C_1 
ROOT
ATOM      1  C   UNL d   1      57.641  49.690  50.212  0.00  0.00     0.102 A 
ATOM      2  C   UNL d   1      57.490  49.701  51.025  0.00  0.00     0.303 A 
ATOM      3  C   UNL d   1      58.425  49.685  49.945  0.00  0.00     0.011 A 
ATOM      4  O   UNL d   1      58.122  49.707  51.572  0.00  0.00    -0.273 OA
ATOM      5  C   UNL d   1      59.048  49.691  50.473  0.00  0.00     0.023 A 
ATOM      6  C   UNL d   1      58.897  49.702  51.286  0.00  0.00     0.103 A 
ATOM      7  O   UNL d   1      56.692  49.707  51.306  0.00  0.00    -0.259 OA
ATOM      8  C   UNL d   1      59.819  49.686  50.204  0.00  0.00     0.002 A 
ATOM      9  C   UNL d   1      59.516  49.708  51.831  0.00  0.00     0.025 A 
ATOM     10  C   UNL d   1      60.437  49.691  50.732  0.00  0.00     0.000 A 
ATOM     11  C   UNL d   1      60.286  49.702  51.545  0.00  0.00     0.002 A 
ENDROOT
BRANCH   1  12
ATOM     12  C   UNL d   1      56.994  49.685  49.679  0.00  0.00     0.201 C 
ATOM     13  O   UNL d   1      57.145  49.708  48.866  0.00  0.00    -0.286 OA
ATOM     14  C   UNL d   1      56.223  49.657  49.948  0.00  0.00     0.045 C 
ENDBRANCH   1  12
TORSDOF 1
ENDMDL
