MODEL 1
REMARK VINA RESULT:      -2.7      0.000      0.000
REMARK  3 active torsions:
REMARK  status: ('A' for Active; 'I' for Inactive)
REMARK    1  A    between atoms: N_2  and  S_1 
REMARK    2  A    between atoms: C_4  and  S_1 
REMARK    3  A    between atoms: C_11  and  C_3 
ROOT
ATOM      1  N   UNL d   1      32.623  16.756 -24.194  0.00  0.00    -0.213 N 
ATOM      2  C   UNL d   1      31.892  16.400 -24.356  0.00  0.00     0.157 A 
ATOM      3  N   UNL d   1      32.030  15.594 -24.473  0.00  0.00    -0.224 NA
ATOM      4  C   UNL d   1      33.204  16.170 -24.212  0.00  0.00     0.114 A 
ATOM      5  C   UNL d   1      32.835  15.453 -24.384  0.00  0.00     0.120 A 
ENDROOT
BRANCH   1   6
ATOM      6  S   UNL d   1      32.746  17.557 -24.042  0.00  0.00     0.273 S 
ATOM      7  O   UNL d   1      32.801  17.703 -24.852  0.00  0.00    -0.200 OA
ATOM      8  O   UNL d   1      32.692  17.412 -23.236  0.00  0.00    -0.200 OA
BRANCH   6   9
ATOM      9  C   UNL d   1      32.870  18.355 -23.891  0.00  0.00     0.104 A 
ATOM     10  C   UNL d   1      32.829  18.645 -23.118  0.00  0.00     0.015 A 
ATOM     11  C   UNL d   1      32.952  19.446 -22.956  0.00  0.00     0.028 A 
ATOM     12  C   UNL d   1      32.911  19.729 -22.189  0.00  0.00     0.002 C 
ATOM     13  C   UNL d   1      33.118  19.962 -23.585  0.00  0.00     0.140 A 
ATOM     14  C   UNL d   1      33.159  19.679 -24.353  0.00  0.00     0.030 A 
ATOM     15  F   UNL d   1      33.241  20.760 -23.434  0.00  0.00    -0.204 F 
ATOM     16  C   UNL d   1      33.035  18.877 -24.505  0.00  0.00     0.015 A 
ENDBRANCH   6   9
ENDBRANCH   1   6
BRANCH   2  17
ATOM     17  C   UNL d   1      31.162  16.780 -24.394  0.00  0.00     0.035 A 
ATOM     18  C   UNL d   1      30.605  16.667 -23.794  0.00  0.00     0.003 A 
ATOM     19  C   UNL d   1      29.873  17.047 -23.829  0.00  0.00     0.000 A 
ATOM     20  C   UNL d   1      29.700  17.540 -24.467  0.00  0.00     0.000 A 
ATOM     21  C   UNL d   1      30.259  17.653 -25.067  0.00  0.00     0.000 A 
ATOM     22  C   UNL d   1      30.988  17.273 -25.030  0.00  0.00     0.003 A 
ENDBRANCH   2  17
TORSDOF 3
ENDMDL
MODEL 2
REMARK VINA RESULT:      -1.1      1.154      2.204
REMARK  3 active torsions:
REMARK  status: ('A' for Active; 'I' for Inactive)
REMARK    1  A    between atoms: N_2  and  S_1 
REMARK    2  A    between atoms: C_4  and  S_1 
REMARK    3  A    between atoms: C_11  and  C_3 
ROOT
ATOM      1  N   UNL d   1      30.600  17.112 -24.284  0.00  0.00    -0.213 N 
ATOM      2  C   UNL d   1      30.808  16.319 -24.161  0.00  0.00     0.157 A 
ATOM      3  N   UNL d   1      30.115  15.871 -24.212  0.00  0.00    -0.224 NA
ATOM      4  C   UNL d   1      29.785  17.149 -24.409  0.00  0.00     0.114 A 
ATOM      5  C   UNL d   1      29.488  16.380 -24.364  0.00  0.00     0.120 A 
ENDROOT
BRANCH   1   6
ATOM      6  S   UNL d   1      31.119  17.753 -24.281  0.00  0.00     0.273 S 
ATOM      7  O   UNL d   1      31.047  17.808 -23.461  0.00  0.00    -0.200 OA
ATOM      8  O   UNL d   1      31.191  17.699 -25.097  0.00  0.00    -0.200 OA
BRANCH   6   9
ATOM      9  C   UNL d   1      31.637  18.392 -24.278  0.00  0.00     0.104 A 
ATOM     10  C   UNL d   1      31.977  18.651 -23.571  0.00  0.00     0.015 A 
ATOM     11  C   UNL d   1      32.498  19.293 -23.559  0.00  0.00     0.028 A 
ATOM     12  C   UNL d   1      32.832  19.546 -22.856  0.00  0.00     0.002 C 
ATOM     13  C   UNL d   1      32.678  19.677 -24.273  0.00  0.00     0.140 A 
ATOM     14  C   UNL d   1      32.343  19.424 -24.976  0.00  0.00     0.030 A 
ATOM     15  F   UNL d   1      33.195  20.316 -24.270  0.00  0.00    -0.204 F 
ATOM     16  C   UNL d   1      31.823  18.782 -24.979  0.00  0.00     0.015 A 
ENDBRANCH   6   9
ENDBRANCH   1   6
BRANCH   2  17
ATOM     17  C   UNL d   1      31.566  16.031 -24.015  0.00  0.00     0.035 A 
ATOM     18  C   UNL d   1      32.057  15.822 -24.645  0.00  0.00     0.003 A 
ATOM     19  C   UNL d   1      32.817  15.532 -24.502  0.00  0.00     0.000 A 
ATOM     20  C   UNL d   1      33.083  15.453 -23.726  0.00  0.00     0.000 A 
ATOM     21  C   UNL d   1      32.589  15.662 -23.095  0.00  0.00     0.000 A 
ATOM     22  C   UNL d   1      31.833  15.950 -23.241  0.00  0.00     0.003 A 
ENDBRANCH   2  17
TORSDOF 3
ENDMDL
MODEL 3
REMARK VINA RESULT:      -0.5      2.064      3.036
REMARK  3 active torsions:
REMARK  status: ('A' for Active; 'I' for Inactive)
REMARK    1  A    between atoms: N_2  and  S_1 
REMARK    2  A    between atoms: C_4  and  S_1 
REMARK    3  A    between atoms: C_11  and  C_3 
ROOT
ATOM      1  N   UNL d   1      29.657  16.056 -23.157  0.00  0.00    -0.213 N 
ATOM      2  C   UNL d   1      28.927  16.422 -23.295  0.00  0.00     0.157 A 
ATOM      3  N   UNL d   1      28.367  16.045 -22.819  0.00  0.00    -0.224 NA
ATOM      4  C   UNL d   1      29.544  15.458 -22.599  0.00  0.00     0.114 A 
ATOM      5  C   UNL d   1      28.745  15.453 -22.392  0.00  0.00     0.120 A 
ENDROOT
BRANCH   1   6
ATOM      6  S   UNL d   1      30.373  16.256 -23.515  0.00  0.00     0.273 S 
ATOM      7  O   UNL d   1      30.533  16.783 -22.900  0.00  0.00    -0.200 OA
ATOM      8  O   UNL d   1      30.214  15.732 -24.126  0.00  0.00    -0.200 OA
BRANCH   6   9
ATOM      9  C   UNL d   1      31.086  16.455 -23.871  0.00  0.00     0.104 A 
ATOM     10  C   UNL d   1      31.638  16.922 -23.470  0.00  0.00     0.015 A 
ATOM     11  C   UNL d   1      32.357  17.126 -23.821  0.00  0.00     0.028 A 
ATOM     12  C   UNL d   1      32.901  17.589 -23.420  0.00  0.00     0.002 C 
ATOM     13  C   UNL d   1      32.522  16.856 -24.589  0.00  0.00     0.140 A 
ATOM     14  C   UNL d   1      31.978  16.393 -24.990  0.00  0.00     0.030 A 
ATOM     15  F   UNL d   1      33.235  17.055 -24.945  0.00  0.00    -0.204 F 
ATOM     16  C   UNL d   1      31.261  16.193 -24.632  0.00  0.00     0.015 A 
ENDBRANCH   6   9
ENDBRANCH   1   6
BRANCH   2  17
ATOM     17  C   UNL d   1      28.785  17.048 -23.812  0.00  0.00     0.035 A 
ATOM     18  C   UNL d   1      28.508  16.898 -24.576  0.00  0.00     0.003 A 
ATOM     19  C   UNL d   1      28.365  17.523 -25.097  0.00  0.00     0.000 A 
ATOM     20  C   UNL d   1      28.501  18.298 -24.850  0.00  0.00     0.000 A 
ATOM     21  C   UNL d   1      28.778  18.446 -24.084  0.00  0.00     0.000 A 
ATOM     22  C   UNL d   1      28.919  17.822 -23.567  0.00  0.00     0.003 A 
ENDBRANCH   2  17
TORSDOF 3
ENDMDL
