MODEL 1
REMARK VINA RESULT:      -6.8      0.000      0.000
REMARK  2 active torsions:
REMARK  status: ('A' for Active; 'I' for Inactive)
REMARK    1  A    between atoms: C_3  and  C_1 
REMARK       I    between atoms: C_2  and  N_4 
REMARK    2  A    between atoms: N_4  and  C_9 
ROOT
ATOM      1  C   UNL d   1     -46.849  12.833  23.014  0.00  0.00     0.065 A 
ATOM      2  C   UNL d   1     -47.427  12.896  22.431  0.00  0.00     0.008 A 
ATOM      3  C   UNL d   1     -46.943  12.296  23.630  0.00  0.00     0.008 A 
ATOM      4  C   UNL d   1     -48.201  11.877  23.082  0.00  0.00     0.085 A 
ATOM      5  C   UNL d   1     -48.107  12.415  22.466  0.00  0.00     0.019 A 
ATOM      6  C   UNL d   1     -47.616  11.821  23.664  0.00  0.00     0.019 A 
ENDROOT
BRANCH   4   7
ATOM      7  N   UNL d   1     -48.873  11.400  23.120  0.00  0.00    -0.208 NA
ATOM      8  C   UNL d   1     -49.576  11.707  23.430  0.00  0.00     0.279 C 
ATOM      9  O   UNL d   1     -50.247  11.229  23.467  0.00  0.00    -0.265 OA
ATOM     10  C   UNL d   1     -49.603  12.484  23.698  0.00  0.00     0.068 C 
ENDBRANCH   4   7
BRANCH   1  11
ATOM     11  C   UNL d   1     -46.171  13.312  22.979  0.00  0.00     0.211 C 
ATOM     12  O   UNL d   1     -46.174  14.056  23.333  0.00  0.00    -0.644 OA
ATOM     13  O   UNL d   1     -45.497  13.044  22.592  0.00  0.00    -0.644 OA
ENDBRANCH   1  11
TORSDOF 2
ENDMDL
MODEL 2
REMARK VINA RESULT:      -6.7      2.133      2.485
REMARK  2 active torsions:
REMARK  status: ('A' for Active; 'I' for Inactive)
REMARK    1  A    between atoms: C_3  and  C_1 
REMARK       I    between atoms: C_2  and  N_4 
REMARK    2  A    between atoms: N_4  and  C_9 
ROOT
ATOM      1  C   UNL d   1     -46.857  13.633  22.803  0.00  0.00     0.065 A 
ATOM      2  C   UNL d   1     -47.543  13.265  22.535  0.00  0.00     0.008 A 
ATOM      3  C   UNL d   1     -46.826  14.454  22.853  0.00  0.00     0.008 A 
ATOM      4  C   UNL d   1     -48.172  14.544  22.365  0.00  0.00     0.085 A 
ATOM      5  C   UNL d   1     -48.204  13.722  22.315  0.00  0.00     0.019 A 
ATOM      6  C   UNL d   1     -47.480  14.907  22.635  0.00  0.00     0.019 A 
ENDROOT
BRANCH   4   7
ATOM      7  N   UNL d   1     -48.824  15.000  22.147  0.00  0.00    -0.208 NA
ATOM      8  C   UNL d   1     -49.419  15.151  22.701  0.00  0.00     0.279 C 
ATOM      9  O   UNL d   1     -50.071  15.608  22.483  0.00  0.00    -0.265 OA
ATOM     10  C   UNL d   1     -49.360  14.848  23.463  0.00  0.00     0.068 C 
ENDBRANCH   4   7
BRANCH   1  11
ATOM     11  C   UNL d   1     -46.199  13.178  23.023  0.00  0.00     0.211 C 
ATOM     12  O   UNL d   1     -46.231  12.707  23.698  0.00  0.00    -0.644 OA
ATOM     13  O   UNL d   1     -45.515  13.195  22.567  0.00  0.00    -0.644 OA
ENDBRANCH   1  11
TORSDOF 2
ENDMDL
MODEL 3
REMARK VINA RESULT:      -6.4      0.961      3.170
REMARK  2 active torsions:
REMARK  status: ('A' for Active; 'I' for Inactive)
REMARK    1  A    between atoms: C_3  and  C_1 
REMARK       I    between atoms: C_2  and  N_4 
REMARK    2  A    between atoms: N_4  and  C_9 
ROOT
ATOM      1  C   UNL d   1     -48.990  11.972  23.093  0.00  0.00     0.065 A 
ATOM      2  C   UNL d   1     -48.762  12.277  22.363  0.00  0.00     0.008 A 
ATOM      3  C   UNL d   1     -48.437  11.898  23.698  0.00  0.00     0.008 A 
ATOM      4  C   UNL d   1     -47.418  12.437  22.843  0.00  0.00     0.085 A 
ATOM      5  C   UNL d   1     -47.972  12.511  22.238  0.00  0.00     0.019 A 
ATOM      6  C   UNL d   1     -47.655  12.130  23.574  0.00  0.00     0.019 A 
ENDROOT
BRANCH   4   7
ATOM      7  N   UNL d   1     -46.635  12.668  22.723  0.00  0.00    -0.208 NA
ATOM      8  C   UNL d   1     -46.426  13.464  22.806  0.00  0.00     0.279 C 
ATOM      9  O   UNL d   1     -45.643  13.693  22.686  0.00  0.00    -0.265 OA
ATOM     10  C   UNL d   1     -46.997  14.021  23.008  0.00  0.00     0.068 C 
ENDBRANCH   4   7
BRANCH   1  11
ATOM     11  C   UNL d   1     -49.777  11.739  23.218  0.00  0.00     0.211 C 
ATOM     12  O   UNL d   1     -50.393  12.176  22.890  0.00  0.00    -0.644 OA
ATOM     13  O   UNL d   1     -49.942  11.072  23.670  0.00  0.00    -0.644 OA
ENDBRANCH   1  11
TORSDOF 2
ENDMDL
