MODEL 1
REMARK VINA RESULT:      -1.3      0.000      0.000
REMARK  3 active torsions:
REMARK  status: ('A' for Active; 'I' for Inactive)
REMARK    1  A    between atoms: S_2  and  N_1 
REMARK    2  A    between atoms: C_7  and  S_2 
REMARK    3  A    between atoms: C_14  and  C_6 
ROOT
ATOM      1  S   UNL d   1     -42.041-122.977 -50.278  0.00  0.00     0.273 S 
ATOM      2  O   UNL d   1     -42.217-122.235 -50.116  0.00  0.00    -0.200 OA
ATOM      3  O   UNL d   1     -41.945-123.707 -50.254  0.00  0.00    -0.200 OA
ENDROOT
BRANCH   1   4
ATOM      4  N   UNL d   1     -42.291-123.186 -49.607  0.00  0.00    -0.202 N 
ATOM      5  C   UNL d   1     -41.866-123.450 -49.042  0.00  0.00     0.218 A 
ATOM      6  N   UNL d   1     -42.325-123.600 -48.458  0.00  0.00    -0.178 NA
ATOM      7  S   UNL d   1     -41.123-123.504 -49.175  0.00  0.00    -0.037 SA
ATOM      8  C   UNL d   1     -43.022-123.427 -48.670  0.00  0.00     0.298 A 
ATOM      9  C   UNL d   1     -43.005-123.172 -49.376  0.00  0.00     0.135 A 
ATOM     10  O   UNL d   1     -43.618-123.509 -48.219  0.00  0.00    -0.264 OA
BRANCH   9  11
ATOM     11  C   UNL d   1     -43.590-122.943 -49.785  0.00  0.00     0.022 C 
ATOM     12  C   UNL d   1     -43.984-123.445 -50.180  0.00  0.00     0.002 C 
ATOM     13  C   UNL d   1     -43.781-122.218 -49.800  0.00  0.00     0.002 C 
ENDBRANCH   9  11
ENDBRANCH   1   4
BRANCH   1  14
ATOM     14  C   UNL d   1     -41.748-122.816 -51.034  0.00  0.00     0.104 A 
ATOM     15  C   UNL d   1     -41.417-122.078 -51.209  0.00  0.00     0.012 A 
ATOM     16  C   UNL d   1     -41.124-121.917 -51.964  0.00  0.00     0.001 A 
ATOM     17  C   UNL d   1     -41.386-121.498 -50.599  0.00  0.00     0.001 C 
ATOM     18  C   UNL d   1     -41.160-122.493 -52.552  0.00  0.00     0.000 A 
ATOM     19  C   UNL d   1     -41.490-123.234 -52.386  0.00  0.00     0.001 A 
ATOM     20  C   UNL d   1     -41.786-123.397 -51.623  0.00  0.00     0.013 A 
ATOM     21  C   UNL d   1     -41.527-123.817 -52.980  0.00  0.00     0.000 C 
ENDBRANCH   1  14
TORSDOF 3
ENDMDL
MODEL 2
REMARK VINA RESULT:      -1.0      1.489      3.329
REMARK  3 active torsions:
REMARK  status: ('A' for Active; 'I' for Inactive)
REMARK    1  A    between atoms: S_2  and  N_1 
REMARK    2  A    between atoms: C_7  and  S_2 
REMARK    3  A    between atoms: C_14  and  C_6 
ROOT
ATOM      1  S   UNL d   1     -41.661-122.454 -50.861  0.00  0.00     0.273 S 
ATOM      2  O   UNL d   1     -41.194-123.066 -50.980  0.00  0.00    -0.200 OA
ATOM      3  O   UNL d   1     -42.039-121.824 -50.924  0.00  0.00    -0.200 OA
ENDROOT
BRANCH   1   4
ATOM      4  N   UNL d   1     -41.473-122.177 -51.528  0.00  0.00    -0.202 N 
ATOM      5  C   UNL d   1     -41.275-121.462 -51.668  0.00  0.00     0.218 A 
ATOM      6  N   UNL d   1     -41.126-121.404 -52.408  0.00  0.00    -0.178 NA
ATOM      7  S   UNL d   1     -41.270-120.991 -51.076  0.00  0.00    -0.037 SA
ATOM      8  C   UNL d   1     -41.234-122.080 -52.713  0.00  0.00     0.298 A 
ATOM      9  C   UNL d   1     -41.447-122.558 -52.174  0.00  0.00     0.135 A 
ATOM     10  O   UNL d   1     -41.133-122.218 -53.445  0.00  0.00    -0.264 OA
BRANCH   9  11
ATOM     11  C   UNL d   1     -41.607-123.285 -52.257  0.00  0.00     0.022 C 
ATOM     12  C   UNL d   1     -41.177-123.799 -51.920  0.00  0.00     0.002 C 
ATOM     13  C   UNL d   1     -42.193-123.499 -52.674  0.00  0.00     0.002 C 
ENDBRANCH   9  11
ENDBRANCH   1   4
BRANCH   1  14
ATOM     14  C   UNL d   1     -41.913-122.700 -50.114  0.00  0.00     0.104 A 
ATOM     15  C   UNL d   1     -42.684-122.542 -49.856  0.00  0.00     0.012 A 
ATOM     16  C   UNL d   1     -42.936-122.789 -49.109  0.00  0.00     0.001 A 
ATOM     17  C   UNL d   1     -43.201-122.126 -50.373  0.00  0.00     0.001 C 
ATOM     18  C   UNL d   1     -42.419-123.196 -48.613  0.00  0.00     0.000 A 
ATOM     19  C   UNL d   1     -41.646-123.358 -48.862  0.00  0.00     0.001 A 
ATOM     20  C   UNL d   1     -41.392-123.109 -49.617  0.00  0.00     0.013 A 
ATOM     21  C   UNL d   1     -41.124-123.770 -48.361  0.00  0.00     0.000 C 
ENDBRANCH   1  14
TORSDOF 3
ENDMDL
MODEL 3
REMARK VINA RESULT:      -1.0      1.227      3.171
REMARK  3 active torsions:
REMARK  status: ('A' for Active; 'I' for Inactive)
REMARK    1  A    between atoms: S_2  and  N_1 
REMARK    2  A    between atoms: C_7  and  S_2 
REMARK    3  A    between atoms: C_14  and  C_6 
ROOT
ATOM      1  S   UNL d   1     -41.969-122.646 -50.413  0.00  0.00     0.273 S 
ATOM      2  O   UNL d   1     -41.275-122.970 -50.275  0.00  0.00    -0.200 OA
ATOM      3  O   UNL d   1     -42.531-122.255 -50.690  0.00  0.00    -0.200 OA
ENDROOT
BRANCH   1   4
ATOM      4  N   UNL d   1     -41.685-122.277 -50.996  0.00  0.00    -0.202 N 
ATOM      5  C   UNL d   1     -41.423-121.568 -50.983  0.00  0.00     0.218 A 
ATOM      6  N   UNL d   1     -41.183-121.398 -51.681  0.00  0.00    -0.178 NA
ATOM      7  S   UNL d   1     -41.456-121.209 -50.318  0.00  0.00    -0.037 SA
ATOM      8  C   UNL d   1     -41.300-121.999 -52.112  0.00  0.00     0.298 A 
ATOM      9  C   UNL d   1     -41.608-122.541 -51.694  0.00  0.00     0.135 A 
ATOM     10  O   UNL d   1     -41.123-122.018 -52.842  0.00  0.00    -0.264 OA
BRANCH   9  11
ATOM     11  C   UNL d   1     -41.807-123.227 -51.923  0.00  0.00     0.022 C 
ATOM     12  C   UNL d   1     -41.287-123.766 -51.973  0.00  0.00     0.002 C 
ATOM     13  C   UNL d   1     -42.520-123.374 -52.103  0.00  0.00     0.002 C 
ENDBRANCH   9  11
ENDBRANCH   1   4
BRANCH   1  14
ATOM     14  C   UNL d   1     -42.350-123.022 -49.784  0.00  0.00     0.104 A 
ATOM     15  C   UNL d   1     -41.937-123.201 -49.089  0.00  0.00     0.012 A 
ATOM     16  C   UNL d   1     -42.317-123.578 -48.460  0.00  0.00     0.001 A 
ATOM     17  C   UNL d   1     -41.123-122.991 -49.041  0.00  0.00     0.001 C 
ATOM     18  C   UNL d   1     -43.114-123.779 -48.519  0.00  0.00     0.000 A 
ATOM     19  C   UNL d   1     -43.535-123.603 -49.211  0.00  0.00     0.001 A 
ATOM     20  C   UNL d   1     -43.151-123.223 -49.846  0.00  0.00     0.013 A 
ATOM     21  C   UNL d   1     -44.340-123.806 -49.271  0.00  0.00     0.000 C 
ENDBRANCH   1  14
TORSDOF 3
ENDMDL
MODEL 4
REMARK VINA RESULT:      -0.1      1.816      2.558
REMARK  3 active torsions:
REMARK  status: ('A' for Active; 'I' for Inactive)
REMARK    1  A    between atoms: S_2  and  N_1 
REMARK    2  A    between atoms: C_7  and  S_2 
REMARK    3  A    between atoms: C_14  and  C_6 
ROOT
ATOM      1  S   UNL d   1     -41.870-122.262 -52.362  0.00  0.00     0.273 S 
ATOM      2  O   UNL d   1     -42.629-122.410 -52.266  0.00  0.00    -0.200 OA
ATOM      3  O   UNL d   1     -41.158-122.099 -52.261  0.00  0.00    -0.200 OA
ENDROOT
BRANCH   1   4
ATOM      4  N   UNL d   1     -41.796-122.152 -51.628  0.00  0.00    -0.202 N 
ATOM      5  C   UNL d   1     -41.745-121.480 -51.287  0.00  0.00     0.218 A 
ATOM      6  N   UNL d   1     -41.676-121.603 -50.543  0.00  0.00    -0.178 NA
ATOM      7  S   UNL d   1     -41.772-120.871 -51.735  0.00  0.00    -0.037 SA
ATOM      8  C   UNL d   1     -41.685-122.345 -50.436  0.00  0.00     0.298 A 
ATOM      9  C   UNL d   1     -41.759-122.685 -51.101  0.00  0.00     0.135 A 
ATOM     10  O   UNL d   1     -41.628-122.659 -49.755  0.00  0.00    -0.264 OA
BRANCH   9  11
ATOM     11  C   UNL d   1     -41.791-123.423 -51.226  0.00  0.00     0.022 C 
ATOM     12  C   UNL d   1     -42.452-123.776 -51.190  0.00  0.00     0.002 C 
ATOM     13  C   UNL d   1     -41.167-123.808 -51.386  0.00  0.00     0.002 C 
ENDBRANCH   9  11
ENDBRANCH   1   4
BRANCH   1  14
ATOM     14  C   UNL d   1     -41.880-122.370 -53.181  0.00  0.00     0.104 A 
ATOM     15  C   UNL d   1     -42.247-121.816 -53.674  0.00  0.00     0.012 A 
ATOM     16  C   UNL d   1     -42.256-121.924 -54.493  0.00  0.00     0.001 A 
ATOM     17  C   UNL d   1     -42.608-121.143 -53.321  0.00  0.00     0.001 C 
ATOM     18  C   UNL d   1     -41.899-122.587 -54.827  0.00  0.00     0.000 A 
ATOM     19  C   UNL d   1     -41.529-123.147 -54.341  0.00  0.00     0.001 A 
ATOM     20  C   UNL d   1     -41.519-123.038 -53.514  0.00  0.00     0.013 A 
ATOM     21  C   UNL d   1     -41.168-123.817 -54.677  0.00  0.00     0.000 C 
ENDBRANCH   1  14
TORSDOF 3
ENDMDL
MODEL 5
REMARK VINA RESULT:      -0.0      1.916      2.917
REMARK  3 active torsions:
REMARK  status: ('A' for Active; 'I' for Inactive)
REMARK    1  A    between atoms: S_2  and  N_1 
REMARK    2  A    between atoms: C_7  and  S_2 
REMARK    3  A    between atoms: C_14  and  C_6 
ROOT
ATOM      1  S   UNL d   1     -41.631-122.542 -52.706  0.00  0.00     0.273 S 
ATOM      2  O   UNL d   1     -41.124-121.951 -52.723  0.00  0.00    -0.200 OA
ATOM      3  O   UNL d   1     -42.071-123.097 -52.501  0.00  0.00    -0.200 OA
ENDROOT
BRANCH   1   4
ATOM      4  N   UNL d   1     -41.539-122.603 -51.969  0.00  0.00    -0.202 N 
ATOM      5  C   UNL d   1     -41.292-123.217 -51.605  0.00  0.00     0.218 A 
ATOM      6  N   UNL d   1     -41.277-123.057 -50.865  0.00  0.00    -0.178 NA
ATOM      7  S   UNL d   1     -41.124-123.817 -52.033  0.00  0.00    -0.037 SA
ATOM      8  C   UNL d   1     -41.514-122.351 -50.782  0.00  0.00     0.298 A 
ATOM      9  C   UNL d   1     -41.676-122.069 -51.459  0.00  0.00     0.135 A 
ATOM     10  O   UNL d   1     -41.567-122.015 -50.112  0.00  0.00    -0.264 OA
BRANCH   9  11
ATOM     11  C   UNL d   1     -41.930-121.380 -51.609  0.00  0.00     0.022 C 
ATOM     12  C   UNL d   1     -41.443-120.814 -51.678  0.00  0.00     0.002 C 
ATOM     13  C   UNL d   1     -42.666-121.256 -51.689  0.00  0.00     0.002 C 
ENDBRANCH   9  11
ENDBRANCH   1   4
BRANCH   1  14
ATOM     14  C   UNL d   1     -41.780-122.530 -53.519  0.00  0.00     0.104 A 
ATOM     15  C   UNL d   1     -41.535-123.158 -54.000  0.00  0.00     0.012 A 
ATOM     16  C   UNL d   1     -41.684-123.146 -54.813  0.00  0.00     0.001 A 
ATOM     17  C   UNL d   1     -41.132-123.804 -53.642  0.00  0.00     0.001 C 
ATOM     18  C   UNL d   1     -42.080-122.508 -55.151  0.00  0.00     0.000 A 
ATOM     19  C   UNL d   1     -42.328-121.876 -54.677  0.00  0.00     0.001 A 
ATOM     20  C   UNL d   1     -42.178-121.887 -53.857  0.00  0.00     0.013 A 
ATOM     21  C   UNL d   1     -42.728-121.230 -55.019  0.00  0.00     0.000 C 
ENDBRANCH   1  14
TORSDOF 3
ENDMDL
MODEL 6
REMARK VINA RESULT:       0.6      1.305      3.273
REMARK  3 active torsions:
REMARK  status: ('A' for Active; 'I' for Inactive)
REMARK    1  A    between atoms: S_2  and  N_1 
REMARK    2  A    between atoms: C_7  and  S_2 
REMARK    3  A    between atoms: C_14  and  C_6 
ROOT
ATOM      1  S   UNL d   1     -41.854-122.693 -50.535  0.00  0.00     0.273 S 
ATOM      2  O   UNL d   1     -42.584-122.560 -50.773  0.00  0.00    -0.200 OA
ATOM      3  O   UNL d   1     -41.123-122.784 -50.495  0.00  0.00    -0.200 OA
ENDROOT
BRANCH   1   4
ATOM      4  N   UNL d   1     -41.603-122.573 -51.227  0.00  0.00    -0.202 N 
ATOM      5  C   UNL d   1     -41.359-123.105 -51.705  0.00  0.00     0.218 A 
ATOM      6  N   UNL d   1     -41.152-122.760 -52.347  0.00  0.00    -0.178 NA
ATOM      7  S   UNL d   1     -41.374-123.818 -51.453  0.00  0.00    -0.037 SA
ATOM      8  C   UNL d   1     -41.271-122.026 -52.257  0.00  0.00     0.298 A 
ATOM      9  C   UNL d   1     -41.548-121.908 -51.569  0.00  0.00     0.135 A 
ATOM     10  O   UNL d   1     -41.123-121.520 -52.793  0.00  0.00    -0.264 OA
BRANCH   9  11
ATOM     11  C   UNL d   1     -41.738-121.247 -51.270  0.00  0.00     0.022 C 
ATOM     12  C   UNL d   1     -41.215-120.832 -50.927  0.00  0.00     0.002 C 
ATOM     13  C   UNL d   1     -42.446-121.002 -51.311  0.00  0.00     0.002 C 
ENDBRANCH   9  11
ENDBRANCH   1   4
BRANCH   1  14
ATOM     14  C   UNL d   1     -42.062-122.838 -49.749  0.00  0.00     0.104 A 
ATOM     15  C   UNL d   1     -42.841-123.037 -49.549  0.00  0.00     0.012 A 
ATOM     16  C   UNL d   1     -43.049-123.182 -48.763  0.00  0.00     0.001 A 
ATOM     17  C   UNL d   1     -43.412-123.087 -50.165  0.00  0.00     0.001 C 
ATOM     18  C   UNL d   1     -42.480-123.130 -48.169  0.00  0.00     0.000 A 
ATOM     19  C   UNL d   1     -41.698-122.932 -48.360  0.00  0.00     0.001 A 
ATOM     20  C   UNL d   1     -41.489-122.785 -49.153  0.00  0.00     0.013 A 
ATOM     21  C   UNL d   1     -41.123-122.879 -47.760  0.00  0.00     0.000 C 
ENDBRANCH   1  14
TORSDOF 3
ENDMDL
