MODEL 1
REMARK VINA RESULT:      55.4      0.000      0.000
REMARK  10 active torsions:
REMARK  status: ('A' for Active; 'I' for Inactive)
REMARK    1  A    between atoms: C_5  and  C_1 
REMARK    2  A    between atoms: N_6  and  C_2 
REMARK    3  A    between atoms: C_7  and  C_5 
REMARK    4  A    between atoms: C_8  and  C_5 
REMARK    5  A    between atoms: O_13  and  C_7 
REMARK    6  A    between atoms: C_20  and  N_12 
REMARK    7  A    between atoms: C_19  and  O_13 
REMARK    8  A    between atoms: C_23  and  C_19 
REMARK    9  A    between atoms: C_24  and  C_23 
REMARK   10  A    between atoms: C_25  and  C_23 
ROOT
ATOM      1  C   UNL d   1      45.527 -16.450  43.250  0.00  0.00     0.122 A 
ATOM      2  C   UNL d   1      45.534 -16.654  44.047  0.00  0.00     0.166 A 
ATOM      3  N   UNL d   1      45.372 -16.077  44.607  0.00  0.00    -0.225 NA
ATOM      4  N   UNL d   1      45.360 -15.677  43.016  0.00  0.00    -0.241 NA
ATOM      5  C   UNL d   1      45.205 -15.311  44.385  0.00  0.00     0.101 A 
ATOM      6  C   UNL d   1      45.199 -15.109  43.583  0.00  0.00     0.099 A 
ATOM      7  C   UNL d   1      45.043 -14.735  44.953  0.00  0.00     0.021 A 
ATOM      8  C   UNL d   1      45.032 -14.342  43.355  0.00  0.00     0.021 A 
ATOM      9  C   UNL d   1      44.875 -13.962  44.719  0.00  0.00     0.002 A 
ATOM     10  C   UNL d   1      44.870 -13.766  43.924  0.00  0.00     0.002 A 
ENDROOT
BRANCH   1  11
ATOM     11  C   UNL d   1      45.690 -17.023  42.670  0.00  0.00     0.105 C 
BRANCH  11  12
ATOM     12  C   UNL d   1      45.101 -17.274  42.147  0.00  0.00     0.303 C 
ATOM     13  O   UNL d   1      44.346 -17.387  42.431  0.00  0.00    -0.259 OA
BRANCH  12  14
ATOM     14  O   UNL d   1      45.288 -17.404  41.364  0.00  0.00    -0.271 OA
BRANCH  14  15
ATOM     15  C   UNL d   1      45.229 -17.877  40.700  0.00  0.00     0.126 C 
BRANCH  15  16
ATOM     16  C   UNL d   1      45.779 -18.465  40.578  0.00  0.00     0.025 C 
BRANCH  16  17
ATOM     17  C   UNL d   1      45.844 -19.074  41.107  0.00  0.00     0.002 C 
ATOM     18  C   UNL d   1      46.529 -19.537  41.123  0.00  0.00     0.000 C 
ENDBRANCH  16  17
BRANCH  16  19
ATOM     19  C   UNL d   1      46.265 -18.434  39.916  0.00  0.00     0.002 C 
ATOM     20  C   UNL d   1      46.573 -19.121  39.588  0.00  0.00     0.000 C 
ENDBRANCH  16  19
ENDBRANCH  15  16
ENDBRANCH  14  15
ENDBRANCH  12  14
ENDBRANCH  11  12
BRANCH  11  21
ATOM     21  C   UNL d   1      46.455 -17.344  42.616  0.00  0.00     0.129 C 
ATOM     22  N   UNL d   1      46.645 -18.133  42.119  0.00  0.00    -0.146 N 
ENDBRANCH  11  21
ENDBRANCH   1  11
BRANCH   2  23
ATOM     23  N   UNL d   1      45.702 -17.425  44.273  0.00  0.00    -0.285 N 
ATOM     24  C   UNL d   1      46.477 -17.659  44.390  0.00  0.00     0.101 A 
ATOM     25  C   UNL d   1      46.639 -18.435  44.617  0.00  0.00     0.100 A 
ATOM     26  N   UNL d   1      46.020 -18.973  44.726  0.00  0.00    -0.300 N 
ATOM     27  C   UNL d   1      45.239 -18.733  44.607  0.00  0.00     0.100 A 
ATOM     28  C   UNL d   1      45.083 -17.962  44.381  0.00  0.00     0.101 A 
BRANCH  26  29
ATOM     29  C   UNL d   1      46.187 -19.755  44.955  0.00  0.00     0.080 C 
ATOM     30  C   UNL d   1      46.514 -20.276  44.403  0.00  0.00     0.021 C 
ENDBRANCH  26  29
ENDBRANCH   2  23
TORSDOF 10
ENDMDL
MODEL 2
REMARK VINA RESULT:      57.4      1.990      4.046
REMARK  10 active torsions:
REMARK  status: ('A' for Active; 'I' for Inactive)
REMARK    1  A    between atoms: C_5  and  C_1 
REMARK    2  A    between atoms: N_6  and  C_2 
REMARK    3  A    between atoms: C_7  and  C_5 
REMARK    4  A    between atoms: C_8  and  C_5 
REMARK    5  A    between atoms: O_13  and  C_7 
REMARK    6  A    between atoms: C_20  and  N_12 
REMARK    7  A    between atoms: C_19  and  O_13 
REMARK    8  A    between atoms: C_23  and  C_19 
REMARK    9  A    between atoms: C_24  and  C_23 
REMARK   10  A    between atoms: C_25  and  C_23 
ROOT
ATOM      1  C   UNL d   1      44.362 -15.282  44.655  0.00  0.00     0.122 A 
ATOM      2  C   UNL d   1      44.102 -14.529  44.449  0.00  0.00     0.166 A 
ATOM      3  N   UNL d   1      43.295 -14.383  44.414  0.00  0.00    -0.225 NA
ATOM      4  N   UNL d   1      43.821 -15.881  44.824  0.00  0.00    -0.241 NA
ATOM      5  C   UNL d   1      42.754 -14.969  44.579  0.00  0.00     0.101 A 
ATOM      6  C   UNL d   1      43.019 -15.725  44.786  0.00  0.00     0.099 A 
ATOM      7  C   UNL d   1      41.944 -14.815  44.542  0.00  0.00     0.021 A 
ATOM      8  C   UNL d   1      42.479 -16.316  44.952  0.00  0.00     0.021 A 
ATOM      9  C   UNL d   1      41.403 -15.415  44.710  0.00  0.00     0.002 A 
ATOM     10  C   UNL d   1      41.670 -16.162  44.915  0.00  0.00     0.002 A 
ENDROOT
BRANCH   1  11
ATOM     11  C   UNL d   1      45.175 -15.448  44.696  0.00  0.00     0.105 C 
BRANCH  11  12
ATOM     12  C   UNL d   1      45.466 -16.194  44.491  0.00  0.00     0.303 C 
ATOM     13  O   UNL d   1      46.054 -16.525  44.948  0.00  0.00    -0.259 OA
BRANCH  12  14
ATOM     14  O   UNL d   1      45.161 -16.578  43.841  0.00  0.00    -0.271 OA
BRANCH  14  15
ATOM     15  C   UNL d   1      45.226 -17.178  43.287  0.00  0.00     0.126 C 
BRANCH  15  16
ATOM     16  C   UNL d   1      45.636 -17.854  43.478  0.00  0.00     0.025 C 
BRANCH  16  17
ATOM     17  C   UNL d   1      45.367 -18.339  44.068  0.00  0.00     0.002 C 
ATOM     18  C   UNL d   1      45.779 -19.030  44.257  0.00  0.00     0.000 C 
ENDBRANCH  16  17
BRANCH  16  19
ATOM     19  C   UNL d   1      46.324 -18.040  43.068  0.00  0.00     0.002 C 
ATOM     20  C   UNL d   1      46.383 -18.737  42.639  0.00  0.00     0.000 C 
ENDBRANCH  16  19
ENDBRANCH  15  16
ENDBRANCH  14  15
ENDBRANCH  12  14
ENDBRANCH  11  12
BRANCH  11  21
ATOM     21  C   UNL d   1      45.701 -14.854  44.946  0.00  0.00     0.129 C 
ATOM     22  N   UNL d   1      46.626 -14.861  44.722  0.00  0.00    -0.146 N 
ENDBRANCH  11  21
ENDBRANCH   1  11
BRANCH   2  23
ATOM     23  N   UNL d   1      44.645 -13.937  44.283  0.00  0.00    -0.285 N 
ATOM     24  C   UNL d   1      44.869 -13.791  43.510  0.00  0.00     0.101 A 
ATOM     25  C   UNL d   1      45.416 -13.195  43.349  0.00  0.00     0.100 A 
ATOM     26  N   UNL d   1      45.735 -12.748  43.968  0.00  0.00    -0.300 N 
ATOM     27  C   UNL d   1      45.507 -12.898  44.746  0.00  0.00     0.100 A 
ATOM     28  C   UNL d   1      44.964 -13.490  44.901  0.00  0.00     0.101 A 
BRANCH  26  29
ATOM     29  C   UNL d   1      46.286 -12.147  43.802  0.00  0.00     0.080 C 
ATOM     30  C   UNL d   1      46.593 -12.082  43.037  0.00  0.00     0.021 C 
ENDBRANCH  26  29
ENDBRANCH   2  23
TORSDOF 10
ENDMDL
