MODEL 1
REMARK VINA RESULT:      -7.4      0.000      0.000
REMARK  4 active torsions:
REMARK  status: ('A' for Active; 'I' for Inactive)
REMARK    1  A    between atoms: C_2  and  C_1 
REMARK    2  A    between atoms: C_3  and  C_1 
REMARK       I    between atoms: N_6  and  C_2 
REMARK    3  A    between atoms: C_13  and  C_3 
REMARK    4  A    between atoms: C_8  and  N_6 
ROOT
ATOM      1  C   UNL d   1     -47.751  14.077  22.597  0.00  0.00     0.282 C 
ATOM      2  N   UNL d   1     -47.066  14.074  23.112  0.00  0.00    -0.208 NA
ATOM      3  O   UNL d   1     -47.840  13.496  22.015  0.00  0.00    -0.265 OA
ENDROOT
BRANCH   1   4
ATOM      4  C   UNL d   1     -48.318  14.660  22.688  0.00  0.00     0.104 C 
BRANCH   4   5
ATOM      5  C   UNL d   1     -49.072  14.548  22.357  0.00  0.00     0.200 C 
ATOM      6  O   UNL d   1     -49.154  14.242  21.593  0.00  0.00    -0.286 OA
BRANCH   5   7
ATOM      7  C   UNL d   1     -49.735  14.747  22.799  0.00  0.00     0.039 A 
ATOM      8  C   UNL d   1     -49.864  15.532  23.019  0.00  0.00     0.003 A 
ATOM      9  C   UNL d   1     -50.535  15.722  23.464  0.00  0.00     0.000 A 
ATOM     10  C   UNL d   1     -51.064  15.136  23.683  0.00  0.00     0.000 A 
ATOM     11  C   UNL d   1     -50.930  14.344  23.458  0.00  0.00     0.000 A 
ATOM     12  C   UNL d   1     -50.266  14.146  23.015  0.00  0.00     0.003 A 
ENDBRANCH   5   7
ENDBRANCH   4   5
ENDBRANCH   1   4
BRANCH   2  13
ATOM     13  C   UNL d   1     -46.490  13.466  23.006  0.00  0.00     0.087 A 
ATOM     14  C   UNL d   1     -46.562  12.761  23.399  0.00  0.00     0.046 A 
ATOM     15  C   UNL d   1     -46.014  12.183  23.299  0.00  0.00     0.124 A 
ATOM     16  O   UNL d   1     -46.077  11.454  23.698  0.00  0.00    -0.301 OA
ATOM     17  C   UNL d   1     -45.369  12.306  22.789  0.00  0.00     0.123 A 
ATOM     18  C   UNL d   1     -45.526  10.867  23.599  0.00  0.00     0.149 A 
ATOM     19  C   UNL d   1     -44.881  10.990  23.090  0.00  0.00     0.149 A 
ATOM     20  O   UNL d   1     -44.793  11.698  22.684  0.00  0.00    -0.301 OA
ATOM     21  C   UNL d   1     -45.278  13.005  22.385  0.00  0.00     0.028 A 
ATOM     22  C   UNL d   1     -45.845  13.588  22.496  0.00  0.00     0.021 A 
ENDBRANCH   2  13
TORSDOF 4
ENDMDL
MODEL 2
REMARK VINA RESULT:      -7.3      0.650      1.209
REMARK  4 active torsions:
REMARK  status: ('A' for Active; 'I' for Inactive)
REMARK    1  A    between atoms: C_2  and  C_1 
REMARK    2  A    between atoms: C_3  and  C_1 
REMARK       I    between atoms: N_6  and  C_2 
REMARK    3  A    between atoms: C_13  and  C_3 
REMARK    4  A    between atoms: C_8  and  N_6 
ROOT
ATOM      1  C   UNL d   1     -47.740  14.117  22.602  0.00  0.00     0.282 C 
ATOM      2  N   UNL d   1     -47.069  14.085  23.135  0.00  0.00    -0.208 NA
ATOM      3  O   UNL d   1     -47.770  13.624  21.938  0.00  0.00    -0.265 OA
ENDROOT
BRANCH   1   4
ATOM      4  C   UNL d   1     -48.349  14.640  22.755  0.00  0.00     0.104 C 
BRANCH   4   5
ATOM      5  C   UNL d   1     -49.114  14.466  22.479  0.00  0.00     0.200 C 
ATOM      6  O   UNL d   1     -49.219  13.998  21.805  0.00  0.00    -0.286 OA
BRANCH   5   7
ATOM      7  C   UNL d   1     -49.763  14.763  22.884  0.00  0.00     0.039 A 
ATOM      8  C   UNL d   1     -49.758  15.544  23.152  0.00  0.00     0.003 A 
ATOM      9  C   UNL d   1     -50.417  15.836  23.559  0.00  0.00     0.000 A 
ATOM     10  C   UNL d   1     -51.064  15.352  23.694  0.00  0.00     0.000 A 
ATOM     11  C   UNL d   1     -51.064  14.564  23.422  0.00  0.00     0.000 A 
ATOM     12  C   UNL d   1     -50.414  14.266  23.017  0.00  0.00     0.003 A 
ENDBRANCH   5   7
ENDBRANCH   4   5
ENDBRANCH   1   4
BRANCH   2  13
ATOM     13  C   UNL d   1     -46.448  13.540  22.964  0.00  0.00     0.087 A 
ATOM     14  C   UNL d   1     -45.829  13.761  22.490  0.00  0.00     0.046 A 
ATOM     15  C   UNL d   1     -45.238  13.244  22.327  0.00  0.00     0.124 A 
ATOM     16  O   UNL d   1     -44.596  13.459  21.841  0.00  0.00    -0.301 OA
ATOM     17  C   UNL d   1     -45.259  12.476  22.644  0.00  0.00     0.123 A 
ATOM     18  C   UNL d   1     -43.997  12.940  21.673  0.00  0.00     0.149 A 
ATOM     19  C   UNL d   1     -44.018  12.172  21.991  0.00  0.00     0.149 A 
ATOM     20  O   UNL d   1     -44.638  11.931  22.472  0.00  0.00    -0.301 OA
ATOM     21  C   UNL d   1     -45.871  12.233  23.122  0.00  0.00     0.028 A 
ATOM     22  C   UNL d   1     -46.469  12.772  23.281  0.00  0.00     0.021 A 
ENDBRANCH   2  13
TORSDOF 4
ENDMDL
MODEL 3
REMARK VINA RESULT:      -7.1      1.794      5.295
REMARK  4 active torsions:
REMARK  status: ('A' for Active; 'I' for Inactive)
REMARK    1  A    between atoms: C_2  and  C_1 
REMARK    2  A    between atoms: C_3  and  C_1 
REMARK       I    between atoms: N_6  and  C_2 
REMARK    3  A    between atoms: C_13  and  C_3 
REMARK    4  A    between atoms: C_8  and  N_6 
ROOT
ATOM      1  C   UNL d   1     -47.443  11.810  23.387  0.00  0.00     0.282 C 
ATOM      2  N   UNL d   1     -48.111  11.464  22.976  0.00  0.00    -0.208 NA
ATOM      3  O   UNL d   1     -47.486  12.582  23.680  0.00  0.00    -0.265 OA
ENDROOT
BRANCH   1   4
ATOM      4  C   UNL d   1     -46.761  11.369  23.485  0.00  0.00     0.104 C 
BRANCH   4   5
ATOM      5  C   UNL d   1     -46.022  11.734  23.382  0.00  0.00     0.200 C 
ATOM      6  O   UNL d   1     -45.969  12.554  23.289  0.00  0.00    -0.286 OA
BRANCH   5   7
ATOM      7  C   UNL d   1     -45.345  11.270  23.372  0.00  0.00     0.039 A 
ATOM      8  C   UNL d   1     -45.363  10.508  23.690  0.00  0.00     0.003 A 
ATOM      9  C   UNL d   1     -44.675  10.048  23.676  0.00  0.00     0.000 A 
ATOM     10  C   UNL d   1     -43.986  10.347  23.351  0.00  0.00     0.000 A 
ATOM     11  C   UNL d   1     -43.972  11.118  23.031  0.00  0.00     0.000 A 
ATOM     12  C   UNL d   1     -44.650  11.582  23.041  0.00  0.00     0.003 A 
ENDBRANCH   5   7
ENDBRANCH   4   5
ENDBRANCH   1   4
BRANCH   2  13
ATOM     13  C   UNL d   1     -48.808  11.932  22.882  0.00  0.00     0.087 A 
ATOM     14  C   UNL d   1     -48.950  12.317  22.184  0.00  0.00     0.046 A 
ATOM     15  C   UNL d   1     -49.612  12.761  22.094  0.00  0.00     0.124 A 
ATOM     16  O   UNL d   1     -49.771  13.162  21.380  0.00  0.00    -0.301 OA
ATOM     17  C   UNL d   1     -50.156  12.828  22.719  0.00  0.00     0.123 A 
ATOM     18  C   UNL d   1     -50.438  13.612  21.286  0.00  0.00     0.149 A 
ATOM     19  C   UNL d   1     -50.981  13.679  21.911  0.00  0.00     0.149 A 
ATOM     20  O   UNL d   1     -50.852  13.296  22.625  0.00  0.00    -0.301 OA
ATOM     21  C   UNL d   1     -50.032  12.450  23.428  0.00  0.00     0.028 A 
ATOM     22  C   UNL d   1     -49.351  11.999  23.507  0.00  0.00     0.021 A 
ENDBRANCH   2  13
TORSDOF 4
ENDMDL
MODEL 4
REMARK VINA RESULT:      -7.0      1.574      1.820
REMARK  4 active torsions:
REMARK  status: ('A' for Active; 'I' for Inactive)
REMARK    1  A    between atoms: C_2  and  C_1 
REMARK    2  A    between atoms: C_3  and  C_1 
REMARK       I    between atoms: N_6  and  C_2 
REMARK    3  A    between atoms: C_13  and  C_3 
REMARK    4  A    between atoms: C_8  and  N_6 
ROOT
ATOM      1  C   UNL d   1     -48.063  11.916  23.156  0.00  0.00     0.282 C 
ATOM      2  N   UNL d   1     -47.433  12.337  23.559  0.00  0.00    -0.208 NA
ATOM      3  O   UNL d   1     -47.885  11.345  22.585  0.00  0.00    -0.265 OA
ENDROOT
BRANCH   1   4
ATOM      4  C   UNL d   1     -48.840  12.084  23.344  0.00  0.00     0.104 C 
BRANCH   4   5
ATOM      5  C   UNL d   1     -49.424  12.019  22.755  0.00  0.00     0.200 C 
ATOM      6  O   UNL d   1     -49.452  11.353  22.266  0.00  0.00    -0.286 OA
BRANCH   5   7
ATOM      7  C   UNL d   1     -49.971  12.624  22.665  0.00  0.00     0.039 A 
ATOM      8  C   UNL d   1     -50.344  12.943  23.329  0.00  0.00     0.003 A 
ATOM      9  C   UNL d   1     -50.894  13.554  23.229  0.00  0.00     0.000 A 
ATOM     10  C   UNL d   1     -51.064  13.836  22.479  0.00  0.00     0.000 A 
ATOM     11  C   UNL d   1     -50.684  13.510  21.811  0.00  0.00     0.000 A 
ATOM     12  C   UNL d   1     -50.137  12.904  21.901  0.00  0.00     0.003 A 
ENDBRANCH   5   7
ENDBRANCH   4   5
ENDBRANCH   1   4
BRANCH   2  13
ATOM     13  C   UNL d   1     -46.635  12.153  23.355  0.00  0.00     0.087 A 
ATOM     14  C   UNL d   1     -46.293  11.468  23.620  0.00  0.00     0.046 A 
ATOM     15  C   UNL d   1     -45.534  11.293  23.427  0.00  0.00     0.124 A 
ATOM     16  O   UNL d   1     -45.170  10.592  23.694  0.00  0.00    -0.301 OA
ATOM     17  C   UNL d   1     -45.096  11.815  22.951  0.00  0.00     0.123 A 
ATOM     18  C   UNL d   1     -44.404  10.411  23.500  0.00  0.00     0.149 A 
ATOM     19  C   UNL d   1     -43.966  10.933  23.025  0.00  0.00     0.149 A 
ATOM     20  O   UNL d   1     -44.298  11.630  22.747  0.00  0.00    -0.301 OA
ATOM     21  C   UNL d   1     -45.420  12.507  22.674  0.00  0.00     0.028 A 
ATOM     22  C   UNL d   1     -46.197  12.674  22.879  0.00  0.00     0.021 A 
ENDBRANCH   2  13
TORSDOF 4
ENDMDL
MODEL 5
REMARK VINA RESULT:      -6.7      1.195      5.061
REMARK  4 active torsions:
REMARK  status: ('A' for Active; 'I' for Inactive)
REMARK    1  A    between atoms: C_2  and  C_1 
REMARK    2  A    between atoms: C_3  and  C_1 
REMARK       I    between atoms: N_6  and  C_2 
REMARK    3  A    between atoms: C_13  and  C_3 
REMARK    4  A    between atoms: C_8  and  N_6 
ROOT
ATOM      1  C   UNL d   1     -47.580  13.141  22.742  0.00  0.00     0.282 C 
ATOM      2  N   UNL d   1     -48.084  13.593  22.216  0.00  0.00    -0.208 NA
ATOM      3  O   UNL d   1     -47.820  12.985  23.518  0.00  0.00    -0.265 OA
ENDROOT
BRANCH   1   4
ATOM      4  C   UNL d   1     -46.860  12.865  22.470  0.00  0.00     0.104 C 
BRANCH   4   5
ATOM      5  C   UNL d   1     -46.166  13.069  22.878  0.00  0.00     0.200 C 
ATOM      6  O   UNL d   1     -46.206  13.502  23.582  0.00  0.00    -0.286 OA
BRANCH   5   7
ATOM      7  C   UNL d   1     -45.440  12.834  22.575  0.00  0.00     0.039 A 
ATOM      8  C   UNL d   1     -45.055  13.306  22.018  0.00  0.00     0.003 A 
ATOM      9  C   UNL d   1     -44.323  13.061  21.717  0.00  0.00     0.000 A 
ATOM     10  C   UNL d   1     -43.988  12.358  21.972  0.00  0.00     0.000 A 
ATOM     11  C   UNL d   1     -44.381  11.885  22.536  0.00  0.00     0.000 A 
ATOM     12  C   UNL d   1     -45.108  12.120  22.839  0.00  0.00     0.003 A 
ENDBRANCH   5   7
ENDBRANCH   4   5
ENDBRANCH   1   4
BRANCH   2  13
ATOM     13  C   UNL d   1     -48.824  13.870  22.511  0.00  0.00     0.087 A 
ATOM     14  C   UNL d   1     -48.888  14.618  22.816  0.00  0.00     0.046 A 
ATOM     15  C   UNL d   1     -49.592  14.883  23.097  0.00  0.00     0.124 A 
ATOM     16  O   UNL d   1     -49.671  15.650  23.413  0.00  0.00    -0.301 OA
ATOM     17  C   UNL d   1     -50.259  14.388  23.077  0.00  0.00     0.123 A 
ATOM     18  C   UNL d   1     -50.379  15.921  23.698  0.00  0.00     0.149 A 
ATOM     19  C   UNL d   1     -51.047  15.426  23.678  0.00  0.00     0.149 A 
ATOM     20  O   UNL d   1     -51.000  14.666  23.373  0.00  0.00    -0.301 OA
ATOM     21  C   UNL d   1     -50.217  13.634  22.776  0.00  0.00     0.028 A 
ATOM     22  C   UNL d   1     -49.492  13.376  22.491  0.00  0.00     0.021 A 
ENDBRANCH   2  13
TORSDOF 4
ENDMDL
MODEL 6
REMARK VINA RESULT:      -5.6      8.785      9.989
REMARK  4 active torsions:
REMARK  status: ('A' for Active; 'I' for Inactive)
REMARK    1  A    between atoms: C_2  and  C_1 
REMARK    2  A    between atoms: C_3  and  C_1 
REMARK       I    between atoms: N_6  and  C_2 
REMARK    3  A    between atoms: C_13  and  C_3 
REMARK    4  A    between atoms: C_8  and  N_6 
ROOT
ATOM      1  C   UNL d   1     -39.382  14.469  19.270  0.00  0.00     0.282 C 
ATOM      2  N   UNL d   1     -38.765  14.740  19.800  0.00  0.00    -0.208 NA
ATOM      3  O   UNL d   1     -40.035  14.055  19.565  0.00  0.00    -0.265 OA
ENDROOT
BRANCH   1   4
ATOM      4  C   UNL d   1     -39.320  14.623  18.470  0.00  0.00     0.104 C 
BRANCH   4   5
ATOM      5  C   UNL d   1     -39.504  14.023  17.924  0.00  0.00     0.200 C 
ATOM      6  O   UNL d   1     -40.121  13.494  18.077  0.00  0.00    -0.286 OA
BRANCH   5   7
ATOM      7  C   UNL d   1     -39.065  13.963  17.233  0.00  0.00     0.039 A 
ATOM      8  C   UNL d   1     -38.565  13.317  17.118  0.00  0.00     0.003 A 
ATOM      9  C   UNL d   1     -38.126  13.264  16.417  0.00  0.00     0.000 A 
ATOM     10  C   UNL d   1     -38.191  13.849  15.847  0.00  0.00     0.000 A 
ATOM     11  C   UNL d   1     -38.699  14.500  15.968  0.00  0.00     0.000 A 
ATOM     12  C   UNL d   1     -39.138  14.560  16.660  0.00  0.00     0.003 A 
ENDBRANCH   5   7
ENDBRANCH   4   5
ENDBRANCH   1   4
BRANCH   2  13
ATOM     13  C   UNL d   1     -38.844  14.574  20.624  0.00  0.00     0.087 A 
ATOM     14  C   UNL d   1     -38.444  13.953  20.956  0.00  0.00     0.046 A 
ATOM     15  C   UNL d   1     -38.519  13.795  21.739  0.00  0.00     0.124 A 
ATOM     16  O   UNL d   1     -38.112  13.159  22.093  0.00  0.00    -0.301 OA
ATOM     17  C   UNL d   1     -39.009  14.269  22.214  0.00  0.00     0.123 A 
ATOM     18  C   UNL d   1     -38.184  12.995  22.883  0.00  0.00     0.149 A 
ATOM     19  C   UNL d   1     -38.675  13.469  23.357  0.00  0.00     0.149 A 
ATOM     20  O   UNL d   1     -39.088  14.102  23.037  0.00  0.00    -0.301 OA
ATOM     21  C   UNL d   1     -39.420  14.896  21.900  0.00  0.00     0.028 A 
ATOM     22  C   UNL d   1     -39.335  15.048  21.098  0.00  0.00     0.021 A 
ENDBRANCH   2  13
TORSDOF 4
ENDMDL
