MODEL 1
REMARK VINA RESULT:      53.8      0.000      0.000
REMARK  4 active torsions:
REMARK  status: ('A' for Active; 'I' for Inactive)
REMARK    1  A    between atoms: N_2  and  C_1 
REMARK       I    between atoms: C_3  and  N_2 
REMARK    2  A    between atoms: C_6  and  C_3 
REMARK    3  A    between atoms: C_11  and  C_7 
REMARK    4  A    between atoms: C_10  and  C_11 
ROOT
ATOM      1  C   UNL d   1     -48.929  27.873  34.602  0.00  0.00     0.197 A 
ATOM      2  N   UNL d   1     -48.805  27.175  34.988  0.00  0.00    -0.219 NA
ATOM      3  S   UNL d   1     -49.326  27.710  33.887  0.00  0.00    -0.047 SA
ATOM      4  C   UNL d   1     -49.438  26.895  33.854  0.00  0.00     0.051 A 
ATOM      5  C   UNL d   1     -49.123  26.551  34.526  0.00  0.00     0.108 A 
ENDROOT
BRANCH   1   6
ATOM      6  N   UNL d   1     -48.695  28.627  34.879  0.00  0.00    -0.182 NA
ATOM      7  C   UNL d   1     -47.912  28.787  35.055  0.00  0.00     0.287 C 
ATOM      8  O   UNL d   1     -47.361  28.198  34.958  0.00  0.00    -0.265 OA
BRANCH   7   9
ATOM      9  C   UNL d   1     -47.690  29.516  35.322  0.00  0.00     0.087 A 
ATOM     10  S   UNL d   1     -47.821  30.171  34.870  0.00  0.00    -0.082 SA
ATOM     11  C   UNL d   1     -47.531  30.829  35.297  0.00  0.00     0.036 A 
ATOM     12  C   UNL d   1     -47.238  30.582  35.977  0.00  0.00     0.008 A 
ATOM     13  C   UNL d   1     -47.324  29.755  36.024  0.00  0.00     0.012 A 
ENDBRANCH   7   9
ENDBRANCH   1   6
BRANCH   4  14
ATOM     14  C   UNL d   1     -49.785  26.405  33.307  0.00  0.00     0.009 C 
BRANCH  14  15
ATOM     15  C   UNL d   1     -50.619  26.308  33.307  0.00  0.00     0.011 A 
ATOM     16  C   UNL d   1     -50.942  25.553  33.306  0.00  0.00     0.058 A 
ATOM     17 CL   UNL d   1     -50.453  24.880  33.306  0.00  0.00    -0.082 Cl
ATOM     18  C   UNL d   1     -51.779  25.454  33.307  0.00  0.00     0.011 A 
ATOM     19  C   UNL d   1     -52.269  26.095  33.308  0.00  0.00     0.001 A 
ATOM     20  C   UNL d   1     -51.959  26.863  33.308  0.00  0.00     0.000 A 
ATOM     21  C   UNL d   1     -51.125  26.961  33.308  0.00  0.00     0.001 A 
ENDBRANCH  14  15
ENDBRANCH   4  14
TORSDOF 4
ENDMDL
