MODEL 1
REMARK VINA RESULT:      68.7      0.000      0.000
REMARK  3 active torsions:
REMARK  status: ('A' for Active; 'I' for Inactive)
REMARK    1  A    between atoms: C_5  and  S_1 
REMARK    2  A    between atoms: N_7  and  S_1 
REMARK       I    between atoms: N_2  and  C_3 
REMARK    3  A    between atoms: C_3  and  C_9 
ROOT
ATOM      1  C   UNL d   1     -49.999  26.269  34.032  0.00  0.00     0.104 A 
ATOM      2  C   UNL d   1     -51.222  25.637  33.654  0.00  0.00     0.059 A 
ATOM      3  C   UNL d   1     -50.822  26.262  34.018  0.00  0.00     0.018 A 
ATOM      4  C   UNL d   1     -49.572  25.655  33.686  0.00  0.00     0.012 A 
ATOM      5  C   UNL d   1     -50.797  25.021  33.306  0.00  0.00     0.005 A 
ATOM      6  C   UNL d   1     -49.972  25.031  33.322  0.00  0.00     0.001 A 
ATOM      7  C   UNL d   1     -48.750  25.663  33.701  0.00  0.00     0.001 C 
ENDROOT
BRANCH   1   8
ATOM      8  S   UNL d   1     -49.603  26.887  34.393  0.00  0.00     0.272 S 
ATOM      9  O   UNL d   1     -49.904  27.477  33.710  0.00  0.00    -0.200 OA
ATOM     10  O   UNL d   1     -49.341  26.374  34.986  0.00  0.00    -0.200 OA
BRANCH   8  11
ATOM     11  N   UNL d   1     -49.222  27.551  34.712  0.00  0.00    -0.225 N 
ATOM     12  C   UNL d   1     -49.249  27.683  35.519  0.00  0.00     0.118 A 
ATOM     13  C   UNL d   1     -48.871  28.344  35.838  0.00  0.00     0.142 A 
ATOM     14  O   UNL d   1     -48.466  28.870  35.341  0.00  0.00    -0.300 OA
ATOM     15  C   UNL d   1     -48.445  28.728  34.526  0.00  0.00     0.142 A 
ATOM     16  C   UNL d   1     -48.825  28.064  34.205  0.00  0.00     0.118 A 
ENDBRANCH   8  11
ENDBRANCH   1   8
BRANCH   2  17
ATOM     17  C   UNL d   1     -52.045  25.622  33.635  0.00  0.00     0.280 C 
ATOM     18  N   UNL d   1     -52.441  24.905  33.585  0.00  0.00    -0.195 N 
ATOM     19  N   UNL d   1     -53.247  24.798  33.561  0.00  0.00    -0.163 NA
ATOM     20  C   UNL d   1     -52.078  24.163  33.549  0.00  0.00     0.088 A 
ATOM     21  C   UNL d   1     -53.406  23.990  33.510  0.00  0.00     0.103 A 
ATOM     22  C   UNL d   1     -54.149  23.638  33.473  0.00  0.00     0.022 C 
ATOM     23  C   UNL d   1     -52.681  23.598  33.503  0.00  0.00     0.040 A 
ATOM     24  C   UNL d   1     -51.265  24.011  33.558  0.00  0.00     0.021 C 
ATOM     25  O   UNL d   1     -52.469  26.326  33.667  0.00  0.00    -0.265 OA
ENDBRANCH   2  17
TORSDOF 3
ENDMDL
