MODEL 1
REMARK VINA RESULT:      -9.1      0.000      0.000
REMARK  5 active torsions:
REMARK  status: ('A' for Active; 'I' for Inactive)
REMARK    1  A    between atoms: N_5  and  S_1 
REMARK    2  A    between atoms: C_10  and  S_1 
REMARK    3  A    between atoms: C_2  and  N_6 
REMARK    4  A    between atoms: C_20  and  N_5 
REMARK    5  A    between atoms: C_7  and  C_14 
REMARK       I    between atoms: N_8  and  C_7 
ROOT
ATOM      1  C   UNL d   1      52.346  33.323  53.062  0.00  0.00     0.104 A 
ATOM      2  C   UNL d   1      51.144  34.040  52.226  0.00  0.00     0.057 A 
ATOM      3  C   UNL d   1      51.708  32.887  52.748  0.00  0.00     0.013 A 
ATOM      4  C   UNL d   1      52.371  34.124  52.949  0.00  0.00     0.013 A 
ATOM      5  C   UNL d   1      51.113  33.263  52.331  0.00  0.00     0.005 A 
ATOM      6  C   UNL d   1      51.772  34.492  52.531  0.00  0.00     0.005 A 
ENDROOT
BRANCH   2   7
ATOM      7  C   UNL d   1      50.538  34.407  51.804  0.00  0.00     0.265 C 
ATOM      8  N   UNL d   1      49.885  34.728  52.198  0.00  0.00    -0.269 N 
ATOM      9  C   UNL d   1      49.236  35.115  51.808  0.00  0.00     0.102 A 
ATOM     10  C   UNL d   1      49.838  34.681  53.013  0.00  0.00     0.102 A 
ATOM     11  C   UNL d   1      48.603  35.427  52.185  0.00  0.00     0.101 A 
ATOM     12  N   UNL d   1      48.578  35.368  53.006  0.00  0.00    -0.281 N 
ATOM     13  C   UNL d   1      49.151  35.018  53.435  0.00  0.00     0.101 A 
ATOM     14  O   UNL d   1      50.596  34.449  50.976  0.00  0.00    -0.267 OA
BRANCH  12  15
ATOM     15  C   UNL d   1      47.947  35.676  53.412  0.00  0.00     0.179 A 
ATOM     16  N   UNL d   1      47.902  35.842  54.246  0.00  0.00    -0.222 NA
ATOM     17  C   UNL d   1      47.143  36.145  54.361  0.00  0.00     0.089 A 
ATOM     18  C   UNL d   1      46.752  36.411  55.033  0.00  0.00     0.020 A 
ATOM     19  C   UNL d   1      46.781  36.147  53.624  0.00  0.00     0.050 A 
ATOM     20  C   UNL d   1      45.948  36.704  54.997  0.00  0.00     0.002 A 
ATOM     21  C   UNL d   1      45.588  36.699  54.230  0.00  0.00     0.001 A 
ATOM     22  C   UNL d   1      45.994  36.426  53.551  0.00  0.00     0.008 A 
ATOM     23  S   UNL d   1      47.297  35.854  53.060  0.00  0.00    -0.048 SA
ENDBRANCH  12  15
ENDBRANCH   2   7
BRANCH   1  24
ATOM     24  S   UNL d   1      52.941  32.921  53.482  0.00  0.00     0.271 S 
ATOM     25  O   UNL d   1      53.403  32.895  52.781  0.00  0.00    -0.200 OA
ATOM     26  O   UNL d   1      52.486  32.944  54.183  0.00  0.00    -0.200 OA
BRANCH  24  27
ATOM     27  N   UNL d   1      53.544  32.520  53.886  0.00  0.00    -0.229 N 
ATOM     28  C   UNL d   1      53.587  31.687  53.851  0.00  0.00     0.111 C 
BRANCH  27  29
ATOM     29  C   UNL d   1      54.100  32.945  54.321  0.00  0.00     0.075 A 
ATOM     30  C   UNL d   1      54.792  33.217  53.959  0.00  0.00     0.018 A 
ATOM     31  C   UNL d   1      55.347  33.641  54.393  0.00  0.00     0.002 A 
ATOM     32  C   UNL d   1      55.222  33.800  55.198  0.00  0.00     0.000 A 
ATOM     33  C   UNL d   1      54.523  33.521  55.551  0.00  0.00     0.002 A 
ATOM     34  C   UNL d   1      53.968  33.097  55.117  0.00  0.00     0.018 A 
ENDBRANCH  27  29
ENDBRANCH  24  27
ENDBRANCH   1  24
TORSDOF 5
ENDMDL
MODEL 2
REMARK VINA RESULT:      -7.5      1.543      6.492
REMARK  5 active torsions:
REMARK  status: ('A' for Active; 'I' for Inactive)
REMARK    1  A    between atoms: N_5  and  S_1 
REMARK    2  A    between atoms: C_10  and  S_1 
REMARK    3  A    between atoms: C_2  and  N_6 
REMARK    4  A    between atoms: C_20  and  N_5 
REMARK    5  A    between atoms: C_7  and  C_14 
REMARK       I    between atoms: N_8  and  C_7 
ROOT
ATOM      1  C   UNL d   1      47.420  35.652  52.425  0.00  0.00     0.104 A 
ATOM      2  C   UNL d   1      48.762  34.968  51.799  0.00  0.00     0.057 A 
ATOM      3  C   UNL d   1      47.379  35.056  51.843  0.00  0.00     0.013 A 
ATOM      4  C   UNL d   1      48.145  35.899  52.688  0.00  0.00     0.013 A 
ATOM      5  C   UNL d   1      48.062  34.724  51.539  0.00  0.00     0.005 A 
ATOM      6  C   UNL d   1      48.822  35.561  52.379  0.00  0.00     0.005 A 
ENDROOT
BRANCH   2   7
ATOM      7  C   UNL d   1      49.443  34.626  51.485  0.00  0.00     0.265 C 
ATOM      8  N   UNL d   1      50.094  34.462  51.968  0.00  0.00    -0.269 N 
ATOM      9  C   UNL d   1      50.816  34.111  51.693  0.00  0.00     0.102 A 
ATOM     10  C   UNL d   1      50.062  34.641  52.766  0.00  0.00     0.102 A 
ATOM     11  C   UNL d   1      51.448  33.950  52.158  0.00  0.00     0.101 A 
ATOM     12  N   UNL d   1      51.393  34.140  52.957  0.00  0.00    -0.281 N 
ATOM     13  C   UNL d   1      50.746  34.471  53.283  0.00  0.00     0.101 A 
ATOM     14  O   UNL d   1      49.463  34.448  50.673  0.00  0.00    -0.267 OA
BRANCH  12  15
ATOM     15  C   UNL d   1      52.020  33.988  53.450  0.00  0.00     0.179 A 
ATOM     16  N   UNL d   1      52.466  34.552  53.904  0.00  0.00    -0.222 NA
ATOM     17  C   UNL d   1      53.033  34.102  54.302  0.00  0.00     0.089 A 
ATOM     18  C   UNL d   1      53.631  34.309  54.826  0.00  0.00     0.020 A 
ATOM     19  C   UNL d   1      52.907  33.323  54.079  0.00  0.00     0.050 A 
ATOM     20  C   UNL d   1      54.152  33.720  55.165  0.00  0.00     0.002 A 
ATOM     21  C   UNL d   1      54.010  32.919  54.925  0.00  0.00     0.001 A 
ATOM     22  C   UNL d   1      53.399  32.719  54.391  0.00  0.00     0.008 A 
ATOM     23  S   UNL d   1      52.279  33.281  53.555  0.00  0.00    -0.048 SA
ENDBRANCH  12  15
ENDBRANCH   2   7
BRANCH   1  24
ATOM     24  S   UNL d   1      46.713  35.976  52.721  0.00  0.00     0.271 S 
ATOM     25  O   UNL d   1      46.325  35.249  52.560  0.00  0.00    -0.200 OA
ATOM     26  O   UNL d   1      47.094  36.702  52.883  0.00  0.00    -0.200 OA
BRANCH  24  27
ATOM     27  N   UNL d   1      46.000  36.284  53.012  0.00  0.00    -0.229 N 
ATOM     28  C   UNL d   1      45.492  36.709  52.504  0.00  0.00     0.111 C 
BRANCH  27  29
ATOM     29  C   UNL d   1      45.795  36.169  53.801  0.00  0.00     0.075 A 
ATOM     30  C   UNL d   1      45.337  35.516  54.021  0.00  0.00     0.018 A 
ATOM     31  C   UNL d   1      45.132  35.401  54.809  0.00  0.00     0.002 A 
ATOM     32  C   UNL d   1      45.380  35.937  55.392  0.00  0.00     0.000 A 
ATOM     33  C   UNL d   1      45.839  36.589  55.160  0.00  0.00     0.002 A 
ATOM     34  C   UNL d   1      46.044  36.704  54.371  0.00  0.00     0.018 A 
ENDBRANCH  27  29
ENDBRANCH  24  27
ENDBRANCH   1  24
TORSDOF 5
ENDMDL
