MODEL 1
REMARK VINA RESULT:       7.3      0.000      0.000
REMARK  1 active torsions:
REMARK  status: ('A' for Active; 'I' for Inactive)
REMARK    1  A    between atoms: C_2  and  C_1 
ROOT
ATOM      1  C   UNL d   1     -51.280  25.972  33.347  0.00  0.00     0.067 A 
ATOM      2  C   UNL d   1     -51.634  24.591  33.336  0.00  0.00     0.123 A 
ATOM      3  C   UNL d   1     -51.052  25.178  33.331  0.00  0.00     0.033 A 
ATOM      4  C   UNL d   1     -52.433  24.796  33.356  0.00  0.00     0.123 A 
ATOM      5  O   UNL d   1     -51.407  23.792  33.319  0.00  0.00    -0.301 OA
ATOM      6  O   UNL d   1     -53.011  24.203  33.361  0.00  0.00    -0.301 OA
ATOM      7  C   UNL d   1     -52.078  26.177  33.368  0.00  0.00     0.008 A 
ATOM      8  C   UNL d   1     -52.656  25.589  33.373  0.00  0.00     0.027 A 
ATOM      9  C   UNL d   1     -51.990  23.201  33.324  0.00  0.00     0.149 A 
ATOM     10  C   UNL d   1     -52.789  23.406  33.345  0.00  0.00     0.149 A 
ENDROOT
BRANCH   1  11
ATOM     11  C   UNL d   1     -50.698  26.559  33.343  0.00  0.00     0.211 C 
ATOM     12  O   UNL d   1     -49.889  26.400  33.358  0.00  0.00    -0.644 OA
ATOM     13  O   UNL d   1     -50.867  27.368  33.322  0.00  0.00    -0.644 OA
ENDBRANCH   1  11
TORSDOF 1
ENDMDL
MODEL 2
REMARK VINA RESULT:       7.8      0.805      3.032
REMARK  1 active torsions:
REMARK  status: ('A' for Active; 'I' for Inactive)
REMARK    1  A    between atoms: C_2  and  C_1 
ROOT
ATOM      1  C   UNL d   1     -52.270  24.517  33.424  0.00  0.00     0.067 A 
ATOM      2  C   UNL d   1     -51.504  25.718  33.372  0.00  0.00     0.123 A 
ATOM      3  C   UNL d   1     -52.239  25.342  33.405  0.00  0.00     0.033 A 
ATOM      4  C   UNL d   1     -50.808  25.274  33.359  0.00  0.00     0.123 A 
ATOM      5  O   UNL d   1     -51.470  26.548  33.352  0.00  0.00    -0.301 OA
ATOM      6  O   UNL d   1     -50.075  25.657  33.326  0.00  0.00    -0.301 OA
ATOM      7  C   UNL d   1     -51.575  24.073  33.411  0.00  0.00     0.008 A 
ATOM      8  C   UNL d   1     -50.843  24.451  33.378  0.00  0.00     0.027 A 
ATOM      9  C   UNL d   1     -50.733  26.927  33.320  0.00  0.00     0.149 A 
ATOM     10  C   UNL d   1     -50.037  26.483  33.307  0.00  0.00     0.149 A 
ENDROOT
BRANCH   1  11
ATOM     11  C   UNL d   1     -53.005  24.141  33.456  0.00  0.00     0.211 C 
ATOM     12  O   UNL d   1     -53.721  24.526  33.316  0.00  0.00    -0.644 OA
ATOM     13  O   UNL d   1     -53.099  23.339  33.634  0.00  0.00    -0.644 OA
ENDBRANCH   1  11
TORSDOF 1
ENDMDL
