MODEL 1
REMARK VINA RESULT:      -3.6      0.000      0.000
REMARK  4 active torsions:
REMARK  status: ('A' for Active; 'I' for Inactive)
REMARK    1  A    between atoms: C_14  and  N_3 
REMARK    2  A    between atoms: C_13  and  N_7 
REMARK       I    between atoms: N_9  and  C_10 
REMARK    3  A    between atoms: C_10  and  C_13 
REMARK    4  A    between atoms: C_19  and  C_14 
ROOT
ATOM      1  C   UNL d   1      32.912  18.474 -23.293  0.00  0.00     0.191 A 
ATOM      2  C   UNL d   1      33.032  19.129 -23.780  0.00  0.00     0.196 A 
ATOM      3  N   UNL d   1      32.848  17.811 -23.769  0.00  0.00    -0.191 N 
ATOM      4  N   UNL d   1      32.877  18.571 -22.465  0.00  0.00    -0.204 NA
ATOM      5  N   UNL d   1      33.039  18.855 -24.562  0.00  0.00    -0.122 NA
ATOM      6  N   UNL d   1      32.925  18.041 -24.546  0.00  0.00    -0.058 NA
ATOM      7  N   UNL d   1      33.084  19.984 -22.638  0.00  0.00    -0.249 N 
ATOM      8  C   UNL d   1      33.118  19.878 -23.465  0.00  0.00     0.289 A 
ATOM      9  C   UNL d   1      32.964  19.331 -22.134  0.00  0.00     0.187 A 
ATOM     10  O   UNL d   1      33.238  20.532 -23.952  0.00  0.00    -0.265 OA
ENDROOT
BRANCH   7  11
ATOM     11  C   UNL d   1      33.169  20.727 -22.305  0.00  0.00     0.146 C 
BRANCH  11  12
ATOM     12  C   UNL d   1      33.176  20.842 -21.495  0.00  0.00     0.283 C 
ATOM     13  N   UNL d   1      33.196  21.607 -21.164  0.00  0.00    -0.272 N 
ATOM     14  C   UNL d   1      33.209  22.269 -21.669  0.00  0.00     0.067 A 
ATOM     15  C   UNL d   1      33.204  21.705 -20.360  0.00  0.00     0.083 A 
ATOM     16  C   UNL d   1      33.228  23.033 -21.338  0.00  0.00     0.016 A 
ATOM     17  C   UNL d   1      33.201  22.179 -22.482  0.00  0.00     0.018 A 
ATOM     18  C   UNL d   1      33.241  23.696 -21.843  0.00  0.00     0.001 A 
ATOM     19  C   UNL d   1      33.235  23.115 -20.532  0.00  0.00     0.003 A 
ATOM     20  C   UNL d   1      33.233  23.597 -22.655  0.00  0.00     0.000 A 
ATOM     21  C   UNL d   1      33.213  22.832 -22.986  0.00  0.00     0.002 A 
ATOM     22  C   UNL d   1      33.223  22.468 -20.028  0.00  0.00     0.019 A 
ATOM     23  O   UNL d   1      33.164  20.180 -20.990  0.00  0.00    -0.265 OA
ENDBRANCH  11  12
ENDBRANCH   7  11
BRANCH   3  24
ATOM     24  C   UNL d   1      32.724  17.038 -23.500  0.00  0.00     0.104 C 
BRANCH  24  25
ATOM     25  C   UNL d   1      32.209  16.546 -23.887  0.00  0.00     0.019 A 
ATOM     26  C   UNL d   1      31.403  16.570 -23.714  0.00  0.00     0.002 A 
ATOM     27  C   UNL d   1      30.892  16.074 -24.105  0.00  0.00     0.000 A 
ATOM     28  C   UNL d   1      31.164  15.546 -24.672  0.00  0.00     0.000 A 
ATOM     29  C   UNL d   1      31.970  15.522 -24.845  0.00  0.00     0.000 A 
ATOM     30  C   UNL d   1      32.485  16.014 -24.458  0.00  0.00     0.002 A 
ENDBRANCH  24  25
ENDBRANCH   3  24
TORSDOF 4
ENDMDL
MODEL 2
REMARK VINA RESULT:      -2.9      1.014      1.928
REMARK  4 active torsions:
REMARK  status: ('A' for Active; 'I' for Inactive)
REMARK    1  A    between atoms: C_14  and  N_3 
REMARK    2  A    between atoms: C_13  and  N_7 
REMARK       I    between atoms: N_9  and  C_10 
REMARK    3  A    between atoms: C_10  and  C_13 
REMARK    4  A    between atoms: C_19  and  C_14 
ROOT
ATOM      1  C   UNL d   1      31.963  18.310 -23.787  0.00  0.00     0.191 A 
ATOM      2  C   UNL d   1      32.450  18.247 -23.125  0.00  0.00     0.196 A 
ATOM      3  N   UNL d   1      31.752  17.554 -24.021  0.00  0.00    -0.191 N 
ATOM      4  N   UNL d   1      31.772  19.062 -24.095  0.00  0.00    -0.204 NA
ATOM      5  N   UNL d   1      32.534  17.440 -22.958  0.00  0.00    -0.122 NA
ATOM      6  N   UNL d   1      32.100  17.020 -23.515  0.00  0.00    -0.058 NA
ATOM      7  N   UNL d   1      32.568  19.669 -23.063  0.00  0.00    -0.249 N 
ATOM      8  C   UNL d   1      32.753  18.913 -22.761  0.00  0.00     0.289 A 
ATOM      9  C   UNL d   1      32.076  19.747 -23.731  0.00  0.00     0.187 A 
ATOM     10  O   UNL d   1      33.241  18.850 -22.099  0.00  0.00    -0.265 OA
ENDROOT
BRANCH   7  11
ATOM     11  C   UNL d   1      32.862  20.346 -22.710  0.00  0.00     0.146 C 
BRANCH  11  12
ATOM     12  C   UNL d   1      33.049  21.016 -23.142  0.00  0.00     0.283 C 
ATOM     13  N   UNL d   1      33.051  21.773 -22.794  0.00  0.00    -0.272 N 
ATOM     14  C   UNL d   1      32.859  21.850 -21.988  0.00  0.00     0.067 A 
ATOM     15  C   UNL d   1      33.237  22.426 -23.236  0.00  0.00     0.083 A 
ATOM     16  C   UNL d   1      32.861  22.607 -21.640  0.00  0.00     0.016 A 
ATOM     17  C   UNL d   1      32.669  21.196 -21.535  0.00  0.00     0.018 A 
ATOM     18  C   UNL d   1      32.668  22.685 -20.833  0.00  0.00     0.001 A 
ATOM     19  C   UNL d   1      33.049  23.251 -22.094  0.00  0.00     0.003 A 
ATOM     20  C   UNL d   1      32.480  22.026 -20.387  0.00  0.00     0.000 A 
ATOM     21  C   UNL d   1      32.478  21.269 -20.735  0.00  0.00     0.002 A 
ATOM     22  C   UNL d   1      33.240  23.183 -22.889  0.00  0.00     0.019 A 
ATOM     23  O   UNL d   1      33.241  20.938 -23.949  0.00  0.00    -0.265 OA
ENDBRANCH  11  12
ENDBRANCH   7  11
BRANCH   3  24
ATOM     24  C   UNL d   1      31.265  17.369 -24.665  0.00  0.00     0.104 C 
BRANCH  24  25
ATOM     25  C   UNL d   1      30.706  16.786 -24.603  0.00  0.00     0.019 A 
ATOM     26  C   UNL d   1      30.856  16.033 -24.904  0.00  0.00     0.002 A 
ATOM     27  C   UNL d   1      30.289  15.453 -24.838  0.00  0.00     0.000 A 
ATOM     28  C   UNL d   1      29.568  15.604 -24.477  0.00  0.00     0.000 A 
ATOM     29  C   UNL d   1      29.418  16.357 -24.176  0.00  0.00     0.000 A 
ATOM     30  C   UNL d   1      29.978  16.940 -24.238  0.00  0.00     0.002 A 
ENDBRANCH  24  25
ENDBRANCH   3  24
TORSDOF 4
ENDMDL
