MODEL 1
REMARK VINA RESULT:      14.9      0.000      0.000
REMARK  5 active torsions:
REMARK  status: ('A' for Active; 'I' for Inactive)
REMARK    1  A    between atoms: N_9  and  C_1 
REMARK    2  A    between atoms: C_12  and  C_2 
REMARK       I    between atoms: C_13  and  N_9 
REMARK    3  A    between atoms: C_11  and  C_14 
REMARK    4  A    between atoms: O_19  and  C_12 
REMARK    5  A    between atoms: C_14  and  C_13 
ROOT
ATOM      1  C   UNL d   1      46.534 -18.280  43.663  0.00  0.00     0.119 A 
ATOM      2  C   UNL d   1      46.428 -18.886  43.089  0.00  0.00     0.087 A 
ATOM      3  S   UNL d   1      46.527 -18.610  44.420  0.00  0.00    -0.068 SA
ATOM      4  C   UNL d   1      46.359 -19.583  43.503  0.00  0.00     0.013 A 
ATOM      5  C   UNL d   1      46.418 -19.426  44.325  0.00  0.00     0.031 A 
ATOM      6  C   UNL d   1      46.249 -20.313  43.150  0.00  0.00     0.001 C 
ATOM      7  C   UNL d   1      46.376 -19.981  44.934  0.00  0.00     0.007 C 
ENDROOT
BRANCH   1   8
ATOM      8  N   UNL d   1      46.634 -17.460  43.573  0.00  0.00    -0.201 NA
ATOM      9  C   UNL d   1      46.360 -16.943  44.152  0.00  0.00     0.280 C 
ATOM     10  O   UNL d   1      45.975 -17.233  44.840  0.00  0.00    -0.265 OA
BRANCH   9  11
ATOM     11  C   UNL d   1      46.462 -16.108  44.060  0.00  0.00     0.074 C 
BRANCH  11  12
ATOM     12  C   UNL d   1      45.865 -15.571  44.287  0.00  0.00     0.095 A 
ATOM     13  C   UNL d   1      45.937 -14.770  44.314  0.00  0.00     0.287 A 
ATOM     14  N   UNL d   1      45.215 -14.457  44.567  0.00  0.00    -0.181 NA
ATOM     15  O   UNL d   1      46.615 -14.321  44.123  0.00  0.00    -0.265 OA
ATOM     16  C   UNL d   1      44.706 -15.102  44.691  0.00  0.00     0.217 A 
ATOM     17  S   UNL d   1      45.121 -15.796  44.513  0.00  0.00    -0.042 SA
ATOM     18  N   UNL d   1      43.910 -15.043  44.952  0.00  0.00    -0.119 N 
ENDBRANCH  11  12
ENDBRANCH   9  11
ENDBRANCH   1   8
BRANCH   2  19
ATOM     19  C   UNL d   1      46.399 -18.817  42.284  0.00  0.00     0.298 C 
ATOM     20  O   UNL d   1      46.223 -18.098  41.957  0.00  0.00    -0.259 OA
BRANCH  19  21
ATOM     21  O   UNL d   1      46.545 -19.466  41.817  0.00  0.00    -0.296 OA
ATOM     22  C   UNL d   1      46.646 -19.380  41.013  0.00  0.00     0.185 C 
ENDBRANCH  19  21
ENDBRANCH   2  19
TORSDOF 5
ENDMDL
MODEL 2
REMARK VINA RESULT:      17.3      1.435      4.605
REMARK  5 active torsions:
REMARK  status: ('A' for Active; 'I' for Inactive)
REMARK    1  A    between atoms: N_9  and  C_1 
REMARK    2  A    between atoms: C_12  and  C_2 
REMARK       I    between atoms: C_13  and  N_9 
REMARK    3  A    between atoms: C_11  and  C_14 
REMARK    4  A    between atoms: O_19  and  C_12 
REMARK    5  A    between atoms: C_14  and  C_13 
ROOT
ATOM      1  C   UNL d   1      45.565 -15.426  44.689  0.00  0.00     0.119 A 
ATOM      2  C   UNL d   1      45.620 -14.597  44.554  0.00  0.00     0.087 A 
ATOM      3  S   UNL d   1      44.780 -15.631  44.840  0.00  0.00    -0.068 SA
ATOM      4  C   UNL d   1      44.864 -14.303  44.624  0.00  0.00     0.013 A 
ATOM      5  C   UNL d   1      44.336 -14.931  44.801  0.00  0.00     0.031 A 
ATOM      6  C   UNL d   1      44.673 -13.513  44.533  0.00  0.00     0.001 C 
ATOM      7  C   UNL d   1      43.522 -14.869  44.915  0.00  0.00     0.007 C 
ENDROOT
BRANCH   1   8
ATOM      8  N   UNL d   1      46.151 -16.015  44.689  0.00  0.00    -0.201 NA
ATOM      9  C   UNL d   1      45.974 -16.775  44.428  0.00  0.00     0.280 C 
ATOM     10  O   UNL d   1      45.203 -16.969  44.158  0.00  0.00    -0.265 OA
BRANCH   9  11
ATOM     11  C   UNL d   1      46.571 -17.375  44.428  0.00  0.00     0.074 C 
BRANCH  11  12
ATOM     12  C   UNL d   1      46.530 -18.026  43.909  0.00  0.00     0.095 A 
ATOM     13  C   UNL d   1      46.558 -18.802  44.122  0.00  0.00     0.287 A 
ATOM     14  N   UNL d   1      46.500 -19.258  43.435  0.00  0.00    -0.181 NA
ATOM     15  O   UNL d   1      46.633 -19.107  44.896  0.00  0.00    -0.265 OA
ATOM     16  C   UNL d   1      46.436 -18.726  42.800  0.00  0.00     0.217 A 
ATOM     17  S   UNL d   1      46.456 -17.956  43.106  0.00  0.00    -0.042 SA
ATOM     18  N   UNL d   1      46.364 -18.947  41.993  0.00  0.00    -0.119 N 
ENDBRANCH  11  12
ENDBRANCH   9  11
ENDBRANCH   1   8
BRANCH   2  19
ATOM     19  C   UNL d   1      46.277 -14.157  44.386  0.00  0.00     0.298 C 
ATOM     20  O   UNL d   1      46.647 -14.258  43.674  0.00  0.00    -0.259 OA
BRANCH  19  21
ATOM     21  O   UNL d   1      46.557 -13.623  44.932  0.00  0.00    -0.296 OA
ATOM     22  C   UNL d   1      46.641 -12.838  44.734  0.00  0.00     0.185 C 
ENDBRANCH  19  21
ENDBRANCH   2  19
TORSDOF 5
ENDMDL
