MODEL 1
REMARK VINA RESULT:      43.2      0.000      0.000
REMARK  5 active torsions:
REMARK  status: ('A' for Active; 'I' for Inactive)
REMARK    1  A    between atoms: C_15  and  C_4 
REMARK       I    between atoms: C_11  and  N_14 
REMARK    2  A    between atoms: C_19  and  C_11 
REMARK    3  A    between atoms: N_14  and  C_16 
REMARK    4  A    between atoms: C_16  and  C_15 
REMARK    5  A    between atoms: C_20  and  C_19 
ROOT
ATOM      1  N   UNL d   1     -51.987  23.669  33.540  0.00  0.00    -0.208 NA
ATOM      2  C   UNL d   1     -51.334  24.173  33.482  0.00  0.00     0.279 A 
ATOM      3  C   UNL d   1     -52.759  23.981  33.483  0.00  0.00     0.085 A 
ATOM      4  C   UNL d   1     -51.450  24.991  33.366  0.00  0.00     0.059 A 
ATOM      5  C   UNL d   1     -52.217  25.295  33.310  0.00  0.00     0.006 A 
ATOM      6  C   UNL d   1     -52.866  24.791  33.368  0.00  0.00     0.018 A 
ATOM      7  C   UNL d   1     -53.406  23.468  33.542  0.00  0.00     0.019 A 
ATOM      8  C   UNL d   1     -53.636  25.094  33.312  0.00  0.00     0.002 A 
ATOM      9  C   UNL d   1     -54.285  24.590  33.370  0.00  0.00     0.000 A 
ATOM     10  C   UNL d   1     -54.169  23.772  33.486  0.00  0.00     0.002 A 
ATOM     11  O   UNL d   1     -50.572  23.869  33.539  0.00  0.00    -0.265 OA
ATOM     12  C   UNL d   1     -55.046  24.886  33.315  0.00  0.00     0.000 C 
ATOM     13  C   UNL d   1     -54.817  23.268  33.544  0.00  0.00     0.000 C 
ENDROOT
BRANCH   4  14
ATOM     14  C   UNL d   1     -50.801  25.487  33.309  0.00  0.00     0.026 C 
BRANCH  14  15
ATOM     15  C   UNL d   1     -50.869  26.289  33.464  0.00  0.00     0.102 C 
BRANCH  15  16
ATOM     16  N   UNL d   1     -50.525  26.625  34.136  0.00  0.00    -0.206 NA
ATOM     17  C   UNL d   1     -49.824  27.056  34.074  0.00  0.00     0.279 C 
ATOM     18  O   UNL d   1     -49.460  27.155  33.344  0.00  0.00    -0.265 OA
BRANCH  17  19
ATOM     19  C   UNL d   1     -49.486  27.389  34.752  0.00  0.00     0.062 C 
BRANCH  19  20
ATOM     20  C   UNL d   1     -49.125  28.134  34.711  0.00  0.00     0.005 C 
ATOM     21  C   UNL d   1     -48.829  28.492  35.380  0.00  0.00     0.000 C 
ENDBRANCH  19  20
ENDBRANCH  17  19
ENDBRANCH  15  16
ENDBRANCH  14  15
ENDBRANCH   4  14
TORSDOF 5
ENDMDL
