MODEL 1
REMARK VINA RESULT:      56.4      0.000      0.000
REMARK  7 active torsions:
REMARK  status: ('A' for Active; 'I' for Inactive)
REMARK    1  A    between atoms: C_2  and  S_1 
REMARK    2  A    between atoms: N_11  and  S_1 
REMARK    3  A    between atoms: O_14  and  C_4 
REMARK    4  A    between atoms: N_10  and  C_15 
REMARK    5  A    between atoms: C_19  and  N_11 
REMARK    6  A    between atoms: C_15  and  C_16 
REMARK    7  A    between atoms: C_16  and  C_19 
ROOT
ATOM      1  S   UNL d   1      60.499  49.280  50.529  0.00  0.00     0.287 S 
ATOM      2  O   UNL d   1      60.656  49.145  51.323  0.00  0.00    -0.198 OA
ATOM      3  O   UNL d   1      60.341  49.416  49.728  0.00  0.00    -0.198 OA
ENDROOT
BRANCH   1   4
ATOM      4  C   UNL d   1      59.704  49.386  50.704  0.00  0.00     0.128 A 
ATOM      5  C   UNL d   1      59.137  49.299  50.105  0.00  0.00     0.026 A 
ATOM      6  C   UNL d   1      58.330  49.405  50.282  0.00  0.00     0.059 A 
ATOM      7 CL   UNL d   1      57.774  49.320  49.692  0.00  0.00    -0.082 Cl
ATOM      8  C   UNL d   1      58.102  49.598  51.056  0.00  0.00     0.013 A 
ATOM      9  C   UNL d   1      58.667  49.682  51.644  0.00  0.00     0.026 A 
ATOM     10  C   UNL d   1      57.308  49.703  51.231  0.00  0.00     0.001 C 
ATOM     11  C   UNL d   1      59.473  49.575  51.467  0.00  0.00     0.106 A 
BRANCH  11  12
ATOM     12  O   UNL d   1      60.039  49.661  52.059  0.00  0.00    -0.327 OA
ATOM     13  C   UNL d   1      59.799  49.700  52.844  0.00  0.00     0.181 C 
ENDBRANCH  11  12
ENDBRANCH   1   4
BRANCH   1  14
ATOM     14  N   UNL d   1      61.302  49.174  50.352  0.00  0.00    -0.157 NA
BRANCH  14  15
ATOM     15  C   UNL d   1      61.522  48.681  49.722  0.00  0.00     0.114 C 
BRANCH  15  16
ATOM     16  C   UNL d   1      61.413  47.865  49.784  0.00  0.00     0.041 C 
BRANCH  16  17
ATOM     17  C   UNL d   1      62.060  47.364  49.789  0.00  0.00     0.082 C 
BRANCH  17  18
ATOM     18  N   UNL d   1      61.956  46.556  49.684  0.00  0.00    -0.299 N 
ATOM     19  C   UNL d   1      61.478  46.123  50.212  0.00  0.00     0.107 A 
ATOM     20  C   UNL d   1      61.374  45.317  50.107  0.00  0.00     0.142 A 
ATOM     21  O   UNL d   1      61.738  44.929  49.481  0.00  0.00    -0.300 OA
ATOM     22  C   UNL d   1      62.214  45.354  48.951  0.00  0.00     0.142 A 
ATOM     23  C   UNL d   1      62.320  46.174  49.058  0.00  0.00     0.107 A 
ENDBRANCH  17  18
ENDBRANCH  16  17
ENDBRANCH  15  16
ENDBRANCH  14  15
ENDBRANCH   1  14
TORSDOF 7
ENDMDL
MODEL 2
REMARK VINA RESULT:      58.5      1.827      4.372
REMARK  7 active torsions:
REMARK  status: ('A' for Active; 'I' for Inactive)
REMARK    1  A    between atoms: C_2  and  S_1 
REMARK    2  A    between atoms: N_11  and  S_1 
REMARK    3  A    between atoms: O_14  and  C_4 
REMARK    4  A    between atoms: N_10  and  C_15 
REMARK    5  A    between atoms: C_19  and  N_11 
REMARK    6  A    between atoms: C_15  and  C_16 
REMARK    7  A    between atoms: C_16  and  C_19 
ROOT
ATOM      1  S   UNL d   1      60.451  48.827  50.889  0.00  0.00     0.287 S 
ATOM      2  O   UNL d   1      60.903  49.113  50.266  0.00  0.00    -0.198 OA
ATOM      3  O   UNL d   1      59.996  48.538  51.517  0.00  0.00    -0.198 OA
ENDROOT
BRANCH   1   4
ATOM      4  C   UNL d   1      60.760  48.076  50.767  0.00  0.00     0.128 A 
ATOM      5  C   UNL d   1      60.372  47.416  51.088  0.00  0.00     0.026 A 
ATOM      6  C   UNL d   1      60.685  46.654  50.964  0.00  0.00     0.059 A 
ATOM      7 CL   UNL d   1      60.303  46.007  51.279  0.00  0.00    -0.082 Cl
ATOM      8  C   UNL d   1      61.382  46.563  50.523  0.00  0.00     0.013 A 
ATOM      9  C   UNL d   1      61.761  47.218  50.209  0.00  0.00     0.026 A 
ATOM     10  C   UNL d   1      61.690  45.813  50.402  0.00  0.00     0.001 C 
ATOM     11  C   UNL d   1      61.447  47.980  50.332  0.00  0.00     0.106 A 
BRANCH  11  12
ATOM     12  O   UNL d   1      61.830  48.637  50.016  0.00  0.00    -0.327 OA
ATOM     13  C   UNL d   1      61.542  48.980  49.328  0.00  0.00     0.181 C 
ENDBRANCH  11  12
ENDBRANCH   1   4
BRANCH   1  14
ATOM     14  N   UNL d   1      60.140  49.585  51.011  0.00  0.00    -0.157 NA
BRANCH  14  15
ATOM     15  C   UNL d   1      59.346  49.671  51.239  0.00  0.00     0.114 C 
BRANCH  15  16
ATOM     16  C   UNL d   1      58.745  49.476  50.709  0.00  0.00     0.041 C 
BRANCH  16  17
ATOM     17  C   UNL d   1      57.974  49.706  50.861  0.00  0.00     0.082 C 
BRANCH  17  18
ATOM     18  N   UNL d   1      57.379  49.528  50.324  0.00  0.00    -0.299 N 
ATOM     19  C   UNL d   1      57.521  49.592  49.505  0.00  0.00     0.107 A 
ATOM     20  C   UNL d   1      56.927  49.414  48.968  0.00  0.00     0.142 A 
ATOM     21  O   UNL d   1      56.188  49.173  49.233  0.00  0.00    -0.300 OA
ATOM     22  C   UNL d   1      56.039  49.107  50.046  0.00  0.00     0.142 A 
ATOM     23  C   UNL d   1      56.643  49.288  50.592  0.00  0.00     0.107 A 
ENDBRANCH  17  18
ENDBRANCH  16  17
ENDBRANCH  15  16
ENDBRANCH  14  15
ENDBRANCH   1  14
TORSDOF 7
ENDMDL
