MODEL 1
REMARK VINA RESULT:      -3.9      0.000      0.000
REMARK  4 active torsions:
REMARK  status: ('A' for Active; 'I' for Inactive)
REMARK    1  A    between atoms: P_2  and  C_1 
REMARK    2  A    between atoms: N_3  and  C_1 
REMARK    3  A    between atoms: C_5  and  C_1 
REMARK       I    between atoms: C_4  and  N_3 
REMARK    4  A    between atoms: C_6  and  C_4 
ROOT
ATOM      1  C   UNL d   1      56.498  -0.204  32.858  0.00  0.00     0.196 C 
ENDROOT
BRANCH   1   2
ATOM      2  P   UNL d   1      56.379  -0.943  32.470  0.00  0.00     0.317 P 
ATOM      3  O   UNL d   1      56.209  -0.557  31.758  0.00  0.00    -0.635 OA
ATOM      4  O   UNL d   1      56.266  -1.695  32.107  0.00  0.00    -0.635 OA
ATOM      5  O   UNL d   1      56.555  -1.337  33.206  0.00  0.00    -0.635 OA
ENDBRANCH   1   2
BRANCH   1   6
ATOM      6  N   UNL d   1      56.123  -0.014  33.582  0.00  0.00    -0.201 NA
ATOM      7  C   UNL d   1      55.372   0.300  33.584  0.00  0.00     0.255 C 
ATOM      8  O   UNL d   1      54.990   0.426  32.869  0.00  0.00    -0.270 OA
BRANCH   7   9
ATOM      9  C   UNL d   1      55.013   0.483  34.289  0.00  0.00     0.073 C 
ATOM     10  C   UNL d   1      54.189   0.484  34.339  0.00  0.00     0.009 C 
ATOM     11  C   UNL d   1      55.473   0.667  34.955  0.00  0.00     0.009 C 
ATOM     12  C   UNL d   1      54.581   0.682  35.058  0.00  0.00     0.009 C 
ENDBRANCH   7   9
ENDBRANCH   1   6
BRANCH   1  13
ATOM     13  C   UNL d   1      57.000   0.349  32.516  0.00  0.00     0.142 C 
ATOM     14 CL   UNL d   1      56.826   0.539  31.782  0.00  0.00    -0.068 Cl
ATOM     15 CL   UNL d   1      57.664   0.672  32.978  0.00  0.00    -0.068 Cl
ENDBRANCH   1  13
TORSDOF 4
ENDMDL
MODEL 2
REMARK VINA RESULT:      -3.7      9.719     10.267
REMARK  4 active torsions:
REMARK  status: ('A' for Active; 'I' for Inactive)
REMARK    1  A    between atoms: P_2  and  C_1 
REMARK    2  A    between atoms: N_3  and  C_1 
REMARK    3  A    between atoms: C_5  and  C_1 
REMARK       I    between atoms: C_4  and  N_3 
REMARK    4  A    between atoms: C_6  and  C_4 
ROOT
ATOM      1  C   UNL d   1      60.241  -8.557  35.428  0.00  0.00     0.196 C 
ENDROOT
BRANCH   1   2
ATOM      2  P   UNL d   1      60.041  -7.757  35.601  0.00  0.00     0.317 P 
ATOM      3  O   UNL d   1      59.278  -7.982  35.828  0.00  0.00    -0.635 OA
ATOM      4  O   UNL d   1      59.868  -6.949  35.766  0.00  0.00    -0.635 OA
ATOM      5  O   UNL d   1      60.829  -7.529  35.366  0.00  0.00    -0.635 OA
ENDBRANCH   1   2
BRANCH   1   6
ATOM      6  N   UNL d   1      60.491  -8.801  34.667  0.00  0.00    -0.201 NA
ATOM      7  C   UNL d   1      59.961  -9.143  34.152  0.00  0.00     0.255 C 
ATOM      8  O   UNL d   1      59.183  -9.245  34.389  0.00  0.00    -0.270 OA
BRANCH   7   9
ATOM      9  C   UNL d   1      60.209  -9.378  33.415  0.00  0.00     0.073 C 
ATOM     10  C   UNL d   1      59.693  -9.800  32.927  0.00  0.00     0.009 C 
ATOM     11  C   UNL d   1      60.976  -9.195  33.156  0.00  0.00     0.009 C 
ATOM     12  C   UNL d   1      60.453  -9.654  32.590  0.00  0.00     0.009 C 
ENDBRANCH   7   9
ENDBRANCH   1   6
BRANCH   1  13
ATOM     13  C   UNL d   1      60.190  -9.119  36.025  0.00  0.00     0.142 C 
ATOM     14 CL   UNL d   1      60.872  -9.397  36.272  0.00  0.00    -0.068 Cl
ATOM     15 CL   UNL d   1      59.408  -9.354  36.329  0.00  0.00    -0.068 Cl
ENDBRANCH   1  13
TORSDOF 4
ENDMDL
MODEL 3
REMARK VINA RESULT:      -3.5      3.346      4.083
REMARK  4 active torsions:
REMARK  status: ('A' for Active; 'I' for Inactive)
REMARK    1  A    between atoms: P_2  and  C_1 
REMARK    2  A    between atoms: N_3  and  C_1 
REMARK    3  A    between atoms: C_5  and  C_1 
REMARK       I    between atoms: C_4  and  N_3 
REMARK    4  A    between atoms: C_6  and  C_4 
ROOT
ATOM      1  C   UNL d   1      58.871  -0.435  29.624  0.00  0.00     0.196 C 
ENDROOT
BRANCH   1   2
ATOM      2  P   UNL d   1      58.803  -1.030  29.031  0.00  0.00     0.317 P 
ATOM      3  O   UNL d   1      58.378  -0.515  28.543  0.00  0.00    -0.635 OA
ATOM      4  O   UNL d   1      58.750  -1.643  28.455  0.00  0.00    -0.635 OA
ATOM      5  O   UNL d   1      59.243  -1.558  29.537  0.00  0.00    -0.635 OA
ENDBRANCH   1   2
BRANCH   1   6
ATOM      6  N   UNL d   1      58.428  -0.458  30.333  0.00  0.00    -0.201 NA
ATOM      7  C   UNL d   1      57.756  -0.004  30.411  0.00  0.00     0.255 C 
ATOM      8  O   UNL d   1      57.523   0.474  29.788  0.00  0.00    -0.270 OA
BRANCH   7   9
ATOM      9  C   UNL d   1      57.329  -0.030  31.102  0.00  0.00     0.073 C 
ATOM     10  C   UNL d   1      57.070   0.673  31.448  0.00  0.00     0.009 C 
ATOM     11  C   UNL d   1      57.156  -0.760  31.456  0.00  0.00     0.009 C 
ATOM     12  C   UNL d   1      56.852  -0.023  31.870  0.00  0.00     0.009 C 
ENDBRANCH   7   9
ENDBRANCH   1   6
BRANCH   1  13
ATOM     13  C   UNL d   1      59.391   0.190  29.504  0.00  0.00     0.142 C 
ATOM     14 CL   UNL d   1      59.922   0.286  30.063  0.00  0.00    -0.068 Cl
ATOM     15 CL   UNL d   1      59.315   0.681  28.788  0.00  0.00    -0.068 Cl
ENDBRANCH   1  13
TORSDOF 4
ENDMDL
