MODEL 1
REMARK VINA RESULT:      -2.8      0.000      0.000
REMARK  3 active torsions:
REMARK  status: ('A' for Active; 'I' for Inactive)
REMARK    1  A    between atoms: C_2  and  S_1 
REMARK    2  A    between atoms: N_6  and  S_1 
REMARK    3  A    between atoms: N_3  and  C_5 
ROOT
ATOM      1  C   UNL d   1      30.680  16.886 -24.268  0.00  0.00     0.106 A 
ATOM      2  C   UNL d   1      30.059  16.430 -23.973  0.00  0.00     0.036 A 
ATOM      3  C   UNL d   1      29.285  16.588 -24.212  0.00  0.00     0.127 A 
ATOM      4  C   UNL d   1      30.527  17.500 -24.799  0.00  0.00     0.012 A 
ATOM      5  C   UNL d   1      29.132  17.201 -24.743  0.00  0.00     0.024 A 
ATOM      6  C   UNL d   1      29.753  17.658 -25.038  0.00  0.00     0.002 A 
ATOM      7  C   UNL d   1      31.156  17.961 -25.097  0.00  0.00     0.001 C 
ENDROOT
BRANCH   1   8
ATOM      8  S   UNL d   1      31.466  16.731 -24.030  0.00  0.00     0.272 S 
ATOM      9  O   UNL d   1      32.057  16.649 -24.601  0.00  0.00    -0.200 OA
ATOM     10  O   UNL d   1      31.651  16.659 -23.229  0.00  0.00    -0.200 OA
BRANCH   8  11
ATOM     11  N   UNL d   1      32.156  16.584 -23.601  0.00  0.00    -0.226 N 
ATOM     12  C   UNL d   1      32.538  17.203 -23.201  0.00  0.00     0.111 C 
ATOM     13  C   UNL d   1      32.465  15.817 -23.574  0.00  0.00     0.111 C 
ENDBRANCH   8  11
ENDBRANCH   1   8
BRANCH   3  14
ATOM     14  N   UNL d   1      28.664  16.131 -23.917  0.00  0.00    -0.114 N 
ATOM     15  O   UNL d   1      28.288  16.353 -23.216  0.00  0.00    -0.532 OA
ATOM     16  O   UNL d   1      28.418  15.454 -24.322  0.00  0.00    -0.532 OA
ENDBRANCH   3  14
TORSDOF 3
ENDMDL
MODEL 2
REMARK VINA RESULT:      -2.7      1.365      3.311
REMARK  3 active torsions:
REMARK  status: ('A' for Active; 'I' for Inactive)
REMARK    1  A    between atoms: C_2  and  S_1 
REMARK    2  A    between atoms: N_6  and  S_1 
REMARK    3  A    between atoms: N_3  and  C_5 
ROOT
ATOM      1  C   UNL d   1      30.977  16.898 -24.075  0.00  0.00     0.106 A 
ATOM      2  C   UNL d   1      31.354  17.630 -24.019  0.00  0.00     0.036 A 
ATOM      3  C   UNL d   1      32.133  17.670 -23.750  0.00  0.00     0.127 A 
ATOM      4  C   UNL d   1      31.378  16.208 -23.864  0.00  0.00     0.012 A 
ATOM      5  C   UNL d   1      32.535  16.980 -23.538  0.00  0.00     0.024 A 
ATOM      6  C   UNL d   1      32.157  16.248 -23.594  0.00  0.00     0.002 A 
ATOM      7  C   UNL d   1      30.996  15.468 -23.921  0.00  0.00     0.001 C 
ENDROOT
BRANCH   1   8
ATOM      8  S   UNL d   1      30.188  16.852 -24.347  0.00  0.00     0.272 S 
ATOM      9  O   UNL d   1      29.995  16.327 -24.955  0.00  0.00    -0.200 OA
ATOM     10  O   UNL d   1      29.604  17.328 -24.010  0.00  0.00    -0.200 OA
BRANCH   8  11
ATOM     11  N   UNL d   1      29.378  16.955 -24.468  0.00  0.00    -0.226 N 
ATOM     12  C   UNL d   1      28.832  16.583 -23.965  0.00  0.00     0.111 C 
ATOM     13  C   UNL d   1      29.114  17.429 -25.091  0.00  0.00     0.111 C 
ENDBRANCH   8  11
ENDBRANCH   1   8
BRANCH   3  14
ATOM     14  N   UNL d   1      32.511  18.402 -23.693  0.00  0.00    -0.114 N 
ATOM     15  O   UNL d   1      32.823  18.756 -24.370  0.00  0.00    -0.532 OA
ATOM     16  O   UNL d   1      32.575  18.779 -22.961  0.00  0.00    -0.532 OA
ENDBRANCH   3  14
TORSDOF 3
ENDMDL
MODEL 3
REMARK VINA RESULT:      -2.7      1.036      2.962
REMARK  3 active torsions:
REMARK  status: ('A' for Active; 'I' for Inactive)
REMARK    1  A    between atoms: C_2  and  S_1 
REMARK    2  A    between atoms: N_6  and  S_1 
REMARK    3  A    between atoms: N_3  and  C_5 
ROOT
ATOM      1  C   UNL d   1      29.911  16.738 -24.244  0.00  0.00     0.106 A 
ATOM      2  C   UNL d   1      30.558  16.361 -23.897  0.00  0.00     0.036 A 
ATOM      3  C   UNL d   1      31.322  16.633 -24.052  0.00  0.00     0.127 A 
ATOM      4  C   UNL d   1      30.027  17.385 -24.745  0.00  0.00     0.012 A 
ATOM      5  C   UNL d   1      31.438  17.279 -24.552  0.00  0.00     0.024 A 
ATOM      6  C   UNL d   1      30.791  17.656 -24.899  0.00  0.00     0.002 A 
ATOM      7  C   UNL d   1      29.373  17.765 -25.095  0.00  0.00     0.001 C 
ENDROOT
BRANCH   1   8
ATOM      8  S   UNL d   1      29.135  16.467 -24.091  0.00  0.00     0.272 S 
ATOM      9  O   UNL d   1      28.642  16.260 -24.721  0.00  0.00    -0.200 OA
ATOM     10  O   UNL d   1      28.862  16.407 -23.315  0.00  0.00    -0.200 OA
BRANCH   8  11
ATOM     11  N   UNL d   1      28.427  16.230 -23.738  0.00  0.00    -0.226 N 
ATOM     12  C   UNL d   1      28.146  15.457 -23.847  0.00  0.00     0.111 C 
ATOM     13  C   UNL d   1      28.000  16.768 -23.277  0.00  0.00     0.111 C 
ENDBRANCH   8  11
ENDBRANCH   1   8
BRANCH   3  14
ATOM     14  N   UNL d   1      31.969  16.256 -23.705  0.00  0.00    -0.114 N 
ATOM     15  O   UNL d   1      32.476  16.682 -23.212  0.00  0.00    -0.532 OA
ATOM     16  O   UNL d   1      32.109  15.455 -23.850  0.00  0.00    -0.532 OA
ENDBRANCH   3  14
TORSDOF 3
ENDMDL
MODEL 4
REMARK VINA RESULT:      -2.2      2.270      3.769
REMARK  3 active torsions:
REMARK  status: ('A' for Active; 'I' for Inactive)
REMARK    1  A    between atoms: C_2  and  S_1 
REMARK    2  A    between atoms: N_6  and  S_1 
REMARK    3  A    between atoms: N_3  and  C_5 
ROOT
ATOM      1  C   UNL d   1      32.602  18.441 -23.689  0.00  0.00     0.106 A 
ATOM      2  C   UNL d   1      32.608  18.761 -22.928  0.00  0.00     0.036 A 
ATOM      3  C   UNL d   1      32.928  19.511 -22.802  0.00  0.00     0.127 A 
ATOM      4  C   UNL d   1      32.915  18.870 -24.322  0.00  0.00     0.012 A 
ATOM      5  C   UNL d   1      33.241  19.940 -23.435  0.00  0.00     0.024 A 
ATOM      6  C   UNL d   1      33.235  19.620 -24.195  0.00  0.00     0.002 A 
ATOM      7  C   UNL d   1      32.909  18.545 -25.090  0.00  0.00     0.001 C 
ENDROOT
BRANCH   1   8
ATOM      8  S   UNL d   1      32.279  17.681 -23.823  0.00  0.00     0.272 S 
ATOM      9  O   UNL d   1      32.729  17.108 -24.211  0.00  0.00    -0.200 OA
ATOM     10  O   UNL d   1      31.514  17.505 -23.568  0.00  0.00    -0.200 OA
BRANCH   8  11
ATOM     11  N   UNL d   1      31.792  17.015 -23.856  0.00  0.00    -0.226 N 
ATOM     12  C   UNL d   1      31.152  16.993 -24.384  0.00  0.00     0.111 C 
ATOM     13  C   UNL d   1      31.947  16.371 -23.361  0.00  0.00     0.111 C 
ENDBRANCH   8  11
ENDBRANCH   1   8
BRANCH   3  14
ATOM     14  N   UNL d   1      32.934  19.832 -22.041  0.00  0.00    -0.114 N 
ATOM     15  O   UNL d   1      33.201  19.377 -21.407  0.00  0.00    -0.532 OA
ATOM     16  O   UNL d   1      32.673  20.605 -21.915  0.00  0.00    -0.532 OA
ENDBRANCH   3  14
TORSDOF 3
ENDMDL
MODEL 5
REMARK VINA RESULT:       0.1      0.983      1.675
REMARK  3 active torsions:
REMARK  status: ('A' for Active; 'I' for Inactive)
REMARK    1  A    between atoms: C_2  and  S_1 
REMARK    2  A    between atoms: N_6  and  S_1 
REMARK    3  A    between atoms: N_3  and  C_5 
ROOT
ATOM      1  C   UNL d   1      31.086  16.714 -23.973  0.00  0.00     0.106 A 
ATOM      2  C   UNL d   1      30.336  16.968 -24.205  0.00  0.00     0.036 A 
ATOM      3  C   UNL d   1      29.678  16.490 -24.062  0.00  0.00     0.127 A 
ATOM      4  C   UNL d   1      31.178  15.984 -23.597  0.00  0.00     0.012 A 
ATOM      5  C   UNL d   1      29.771  15.760 -23.686  0.00  0.00     0.024 A 
ATOM      6  C   UNL d   1      30.521  15.506 -23.453  0.00  0.00     0.002 A 
ATOM      7  C   UNL d   1      31.937  15.729 -23.362  0.00  0.00     0.001 C 
ENDROOT
BRANCH   1   8
ATOM      8  S   UNL d   1      31.755  17.194 -24.116  0.00  0.00     0.272 S 
ATOM      9  O   UNL d   1      32.431  16.863 -24.456  0.00  0.00    -0.200 OA
ATOM     10  O   UNL d   1      31.741  17.995 -23.918  0.00  0.00    -0.200 OA
BRANCH   8  11
ATOM     11  N   UNL d   1      32.292  17.819 -24.173  0.00  0.00    -0.226 N 
ATOM     12  C   UNL d   1      32.642  18.131 -23.489  0.00  0.00     0.111 C 
ATOM     13  C   UNL d   1      32.479  18.130 -24.916  0.00  0.00     0.111 C 
ENDBRANCH   8  11
ENDBRANCH   1   8
BRANCH   3  14
ATOM     14  N   UNL d   1      28.928  16.743 -24.294  0.00  0.00    -0.114 N 
ATOM     15  O   UNL d   1      28.741  16.788 -25.097  0.00  0.00    -0.532 OA
ATOM     16  O   UNL d   1      28.366  16.952 -23.726  0.00  0.00    -0.532 OA
ENDBRANCH   3  14
TORSDOF 3
ENDMDL
