MODEL 1
REMARK VINA RESULT:      77.1      0.000      0.000
REMARK  3 active torsions:
REMARK  status: ('A' for Active; 'I' for Inactive)
REMARK    1  A    between atoms: C_12  and  C_4 
REMARK       I    between atoms: C_6  and  N_11 
REMARK    2  A    between atoms: C_7  and  C_6 
REMARK    3  A    between atoms: N_11  and  C_18 
ROOT
ATOM      1  C   UNL d   1      59.668  48.650  50.683  0.00  0.00     0.019 A 
ATOM      2  C   UNL d   1      59.017  48.148  50.602  0.00  0.00     0.003 A 
ATOM      3  C   UNL d   1      59.560  49.426  50.914  0.00  0.00     0.003 A 
ATOM      4  C   UNL d   1      58.149  49.207  50.986  0.00  0.00     0.085 A 
ATOM      5  C   UNL d   1      58.799  49.705  51.066  0.00  0.00     0.019 A 
ATOM      6  C   UNL d   1      58.264  48.425  50.752  0.00  0.00     0.019 A 
ENDROOT
BRANCH   1   7
ATOM      7  C   UNL d   1      60.434  48.371  50.531  0.00  0.00     0.101 A 
ATOM      8  N   UNL d   1      60.645  47.590  50.592  0.00  0.00    -0.221 NA
ATOM      9  C   UNL d   1      61.443  47.520  50.401  0.00  0.00     0.179 A 
ATOM     10  N   UNL d   1      61.732  48.264  50.221  0.00  0.00    -0.282 N 
ATOM     11  S   UNL d   1      62.063  46.979  50.324  0.00  0.00    -0.048 SA
ATOM     12  C   UNL d   1      61.102  48.797  50.302  0.00  0.00     0.101 A 
ATOM     13  C   UNL d   1      62.530  48.195  50.031  0.00  0.00     0.089 A 
ATOM     14  C   UNL d   1      62.731  47.397  50.096  0.00  0.00     0.057 A 
ENDBRANCH   1   7
BRANCH   4  15
ATOM     15  N   UNL d   1      57.382  49.486  51.137  0.00  0.00    -0.208 NA
ATOM     16  C   UNL d   1      56.800  49.431  50.552  0.00  0.00     0.279 C 
ATOM     17  O   UNL d   1      56.041  49.706  50.700  0.00  0.00    -0.265 OA
BRANCH  16  18
ATOM     18  C   UNL d   1      56.988  49.100  49.823  0.00  0.00     0.058 A 
ATOM     19  C   UNL d   1      56.468  49.193  49.185  0.00  0.00     0.005 A 
ATOM     20  C   UNL d   1      57.173  48.767  49.085  0.00  0.00     0.005 A 
ENDBRANCH  16  18
ENDBRANCH   4  15
TORSDOF 3
ENDMDL
MODEL 2
REMARK VINA RESULT:      78.5      3.060      4.699
REMARK  3 active torsions:
REMARK  status: ('A' for Active; 'I' for Inactive)
REMARK    1  A    between atoms: C_12  and  C_4 
REMARK       I    between atoms: C_6  and  N_11 
REMARK    2  A    between atoms: C_7  and  C_6 
REMARK    3  A    between atoms: N_11  and  C_18 
ROOT
ATOM      1  C   UNL d   1      61.325  46.655  50.399  0.00  0.00     0.019 A 
ATOM      2  C   UNL d   1      61.722  46.597  49.677  0.00  0.00     0.003 A 
ATOM      3  C   UNL d   1      61.170  45.982  50.835  0.00  0.00     0.003 A 
ATOM      4  C   UNL d   1      61.807  45.187  49.832  0.00  0.00     0.085 A 
ATOM      5  C   UNL d   1      61.411  45.247  50.551  0.00  0.00     0.019 A 
ATOM      6  C   UNL d   1      61.960  45.869  49.397  0.00  0.00     0.019 A 
ENDROOT
BRANCH   1   7
ATOM      7  C   UNL d   1      61.081  47.394  50.686  0.00  0.00     0.101 A 
ATOM      8  N   UNL d   1      61.307  48.099  50.354  0.00  0.00    -0.221 NA
ATOM      9  C   UNL d   1      60.962  48.711  50.782  0.00  0.00     0.179 A 
ATOM     10  N   UNL d   1      60.517  48.386  51.386  0.00  0.00    -0.282 N 
ATOM     11  S   UNL d   1      60.896  49.534  50.831  0.00  0.00    -0.048 SA
ATOM     12  C   UNL d   1      60.591  47.562  51.328  0.00  0.00     0.101 A 
ATOM     13  C   UNL d   1      60.171  48.998  51.815  0.00  0.00     0.089 A 
ATOM     14  C   UNL d   1      60.409  49.708  51.467  0.00  0.00     0.057 A 
ENDBRANCH   1   7
BRANCH   4  15
ATOM     15  N   UNL d   1      62.051  44.448  49.545  0.00  0.00    -0.208 NA
ATOM     16  C   UNL d   1      61.522  43.977  49.115  0.00  0.00     0.279 C 
ATOM     17  O   UNL d   1      61.760  43.246  48.830  0.00  0.00    -0.265 OA
BRANCH  16  18
ATOM     18  C   UNL d   1      60.758  44.248  48.978  0.00  0.00     0.058 A 
ATOM     19  C   UNL d   1      60.151  43.704  48.829  0.00  0.00     0.005 A 
ATOM     20  C   UNL d   1      59.985  44.517  48.838  0.00  0.00     0.005 A 
ENDBRANCH  16  18
ENDBRANCH   4  15
TORSDOF 3
ENDMDL
