MODEL 1
REMARK VINA RESULT:      29.5      0.000      0.000
REMARK  7 active torsions:
REMARK  status: ('A' for Active; 'I' for Inactive)
REMARK    1  A    between atoms: C_6  and  N_1 
REMARK    2  A    between atoms: C_7  and  C_6 
REMARK    3  A    between atoms: O_10  and  C_7 
REMARK    4  A    between atoms: C_13  and  O_10 
REMARK    5  A    between atoms: C_14  and  C_13 
REMARK    6  A    between atoms: C_16  and  C_14 
REMARK    7  A    between atoms: C_15  and  C_16 
ROOT
ATOM      1  N   UNL d   1     -51.192  25.716  33.306  0.00  0.00    -0.246 N 
ATOM      2  C   UNL d   1     -51.989  25.955  33.306  0.00  0.00     0.378 A 
ATOM      3  O   UNL d   1     -52.463  25.274  33.306  0.00  0.00    -0.258 OA
ATOM      4  C   UNL d   1     -51.178  24.889  33.306  0.00  0.00     0.092 A 
ATOM      5  C   UNL d   1     -51.963  24.617  33.307  0.00  0.00     0.121 A 
ATOM      6  O   UNL d   1     -52.250  26.736  33.306  0.00  0.00    -0.237 OA
ATOM      7  C   UNL d   1     -50.552  24.347  33.307  0.00  0.00     0.020 A 
ATOM      8  C   UNL d   1     -52.112  23.799  33.307  0.00  0.00     0.026 A 
ATOM      9  C   UNL d   1     -50.713  23.538  33.307  0.00  0.00     0.002 A 
ATOM     10  C   UNL d   1     -51.488  23.265  33.307  0.00  0.00     0.002 A 
ENDROOT
BRANCH   1  11
ATOM     11  C   UNL d   1     -50.509  26.181  33.306  0.00  0.00     0.154 C 
BRANCH  11  12
ATOM     12  C   UNL d   1     -50.310  26.612  33.970  0.00  0.00     0.318 C 
ATOM     13  O   UNL d   1     -50.617  26.404  34.708  0.00  0.00    -0.257 OA
BRANCH  12  14
ATOM     14  O   UNL d   1     -49.800  27.257  33.905  0.00  0.00    -0.270 OA
BRANCH  14  15
ATOM     15  C   UNL d   1     -49.236  27.608  34.392  0.00  0.00     0.126 C 
BRANCH  15  16
ATOM     16  C   UNL d   1     -48.950  28.360  34.220  0.00  0.00     0.027 C 
BRANCH  16  17
ATOM     17  C   UNL d   1     -48.324  28.679  34.652  0.00  0.00     0.002 C 
BRANCH  17  18
ATOM     18  C   UNL d   1     -48.290  28.583  35.468  0.00  0.00     0.000 C 
ATOM     19  C   UNL d   1     -47.911  29.145  35.930  0.00  0.00     0.000 C 
ENDBRANCH  17  18
ENDBRANCH  16  17
ENDBRANCH  15  16
ENDBRANCH  14  15
ENDBRANCH  12  14
ENDBRANCH  11  12
ENDBRANCH   1  11
TORSDOF 7
ENDMDL
