MODEL 1
REMARK VINA RESULT:      -9.0      0.000      0.000
REMARK  5 active torsions:
REMARK  status: ('A' for Active; 'I' for Inactive)
REMARK    1  A    between atoms: C_7  and  C_1 
REMARK       I    between atoms: C_3  and  N_8 
REMARK       I    between atoms: N_10  and  C_3 
REMARK    2  A    between atoms: N_8  and  C_6 
REMARK    3  A    between atoms: O_14  and  C_7 
REMARK    4  A    between atoms: C_13  and  N_10 
REMARK    5  A    between atoms: C_23  and  O_14 
ROOT
ATOM      1  C   UNL d   1      53.113  34.447  54.143  0.00  0.00     0.083 A 
ATOM      2  N   UNL d   1      52.069  34.938  53.310  0.00  0.00    -0.244 NA
ATOM      3  C   UNL d   1      52.594  35.044  53.930  0.00  0.00     0.087 A 
ATOM      4  C   UNL d   1      53.111  33.738  53.738  0.00  0.00     0.028 A 
ATOM      5  C   UNL d   1      52.585  33.620  53.110  0.00  0.00     0.104 A 
ATOM      6  C   UNL d   1      52.066  34.217  52.896  0.00  0.00     0.099 A 
ATOM      7  C   UNL d   1      52.597  35.765  54.343  0.00  0.00     0.021 C 
ATOM      8  C   UNL d   1      51.536  34.103  52.267  0.00  0.00     0.022 C 
ENDROOT
BRANCH   5   9
ATOM      9  N   UNL d   1      52.582  32.899  52.696  0.00  0.00    -0.189 NA
ATOM     10  C   UNL d   1      52.727  32.196  53.089  0.00  0.00     0.369 C 
ATOM     11  N   UNL d   1      52.726  31.475  52.688  0.00  0.00    -0.191 NA
ATOM     12  O   UNL d   1      52.878  32.200  53.908  0.00  0.00    -0.242 OA
BRANCH  11  13
ATOM     13  C   UNL d   1      52.870  30.778  53.081  0.00  0.00     0.086 A 
ATOM     14  C   UNL d   1      52.244  30.273  53.264  0.00  0.00     0.020 A 
ATOM     15  C   UNL d   1      52.395  29.561  53.666  0.00  0.00     0.008 A 
ATOM     16  C   UNL d   1      53.167  29.363  53.880  0.00  0.00     0.035 A 
ATOM     17  C   UNL d   1      53.792  29.868  53.697  0.00  0.00     0.008 A 
ATOM     18 BR   UNL d   1      53.311  28.666  54.273  0.00  0.00    -0.049 Br
ATOM     19  C   UNL d   1      53.648  30.578  53.297  0.00  0.00     0.020 A 
ENDBRANCH  11  13
ENDBRANCH   5   9
BRANCH   1  20
ATOM     20  C   UNL d   1      53.636  34.561  54.766  0.00  0.00     0.302 C 
ATOM     21  O   UNL d   1      53.361  34.823  55.484  0.00  0.00    -0.259 OA
BRANCH  20  22
ATOM     22  O   UNL d   1      54.427  34.411  54.660  0.00  0.00    -0.271 OA
BRANCH  22  23
ATOM     23  C   UNL d   1      54.885  34.198  55.301  0.00  0.00     0.126 C 
ATOM     24  C   UNL d   1      55.642  33.898  55.183  0.00  0.00     0.029 C 
ENDBRANCH  22  23
ENDBRANCH  20  22
ENDBRANCH   1  20
TORSDOF 5
ENDMDL
MODEL 2
REMARK VINA RESULT:      -8.7      1.288      2.329
REMARK  5 active torsions:
REMARK  status: ('A' for Active; 'I' for Inactive)
REMARK    1  A    between atoms: C_7  and  C_1 
REMARK       I    between atoms: C_3  and  N_8 
REMARK       I    between atoms: N_10  and  C_3 
REMARK    2  A    between atoms: N_8  and  C_6 
REMARK    3  A    between atoms: O_14  and  C_7 
REMARK    4  A    between atoms: C_13  and  N_10 
REMARK    5  A    between atoms: C_23  and  O_14 
ROOT
ATOM      1  C   UNL d   1      53.004  34.483  53.797  0.00  0.00     0.083 A 
ATOM      2  N   UNL d   1      53.825  34.635  54.950  0.00  0.00    -0.244 NA
ATOM      3  C   UNL d   1      53.242  34.920  54.449  0.00  0.00     0.087 A 
ATOM      4  C   UNL d   1      53.346  33.759  53.641  0.00  0.00     0.028 A 
ATOM      5  C   UNL d   1      53.936  33.461  54.140  0.00  0.00     0.104 A 
ATOM      6  C   UNL d   1      54.174  33.898  54.792  0.00  0.00     0.099 A 
ATOM      7  C   UNL d   1      52.893  35.657  54.607  0.00  0.00     0.021 C 
ATOM      8  C   UNL d   1      54.765  33.603  55.296  0.00  0.00     0.022 C 
ENDROOT
BRANCH   5   9
ATOM      9  N   UNL d   1      54.285  32.724  53.983  0.00  0.00    -0.189 NA
ATOM     10  C   UNL d   1      53.819  32.057  53.889  0.00  0.00     0.369 C 
ATOM     11  N   UNL d   1      54.156  31.321  53.733  0.00  0.00    -0.191 NA
ATOM     12  O   UNL d   1      52.992  32.115  53.952  0.00  0.00    -0.242 OA
BRANCH  11  13
ATOM     13  C   UNL d   1      53.692  30.660  53.640  0.00  0.00     0.086 A 
ATOM     14  C   UNL d   1      53.271  30.548  52.939  0.00  0.00     0.020 A 
ATOM     15  C   UNL d   1      52.797  29.871  52.849  0.00  0.00     0.008 A 
ATOM     16  C   UNL d   1      52.749  29.316  53.457  0.00  0.00     0.035 A 
ATOM     17  C   UNL d   1      53.170  29.428  54.157  0.00  0.00     0.008 A 
ATOM     18 BR   UNL d   1      52.284  28.655  53.364  0.00  0.00    -0.049 Br
ATOM     19  C   UNL d   1      53.643  30.100  54.253  0.00  0.00     0.020 A 
ENDBRANCH  11  13
ENDBRANCH   5   9
BRANCH   1  20
ATOM     20  C   UNL d   1      52.419  34.776  53.300  0.00  0.00     0.302 C 
ATOM     21  O   UNL d   1      52.615  35.292  52.703  0.00  0.00    -0.259 OA
BRANCH  20  22
ATOM     22  O   UNL d   1      51.648  34.546  53.407  0.00  0.00    -0.271 OA
BRANCH  22  23
ATOM     23  C   UNL d   1      51.137  34.545  52.771  0.00  0.00     0.126 C 
ATOM     24  C   UNL d   1      50.365  34.276  52.864  0.00  0.00     0.029 C 
ENDBRANCH  22  23
ENDBRANCH  20  22
ENDBRANCH   1  20
TORSDOF 5
ENDMDL
MODEL 3
REMARK VINA RESULT:      -7.8      2.152      4.165
REMARK  5 active torsions:
REMARK  status: ('A' for Active; 'I' for Inactive)
REMARK    1  A    between atoms: C_7  and  C_1 
REMARK       I    between atoms: C_3  and  N_8 
REMARK       I    between atoms: N_10  and  C_3 
REMARK    2  A    between atoms: N_8  and  C_6 
REMARK    3  A    between atoms: O_14  and  C_7 
REMARK    4  A    between atoms: C_13  and  N_10 
REMARK    5  A    between atoms: C_23  and  O_14 
ROOT
ATOM      1  C   UNL d   1      53.642  32.472  54.013  0.00  0.00     0.083 A 
ATOM      2  N   UNL d   1      53.702  33.454  55.042  0.00  0.00    -0.244 NA
ATOM      3  C   UNL d   1      53.851  32.693  54.775  0.00  0.00     0.087 A 
ATOM      4  C   UNL d   1      53.284  33.009  53.514  0.00  0.00     0.028 A 
ATOM      5  C   UNL d   1      53.130  33.780  53.774  0.00  0.00     0.104 A 
ATOM      6  C   UNL d   1      53.338  34.001  54.535  0.00  0.00     0.099 A 
ATOM      7  C   UNL d   1      54.215  32.146  55.282  0.00  0.00     0.021 C 
ATOM      8  C   UNL d   1      53.185  34.773  54.801  0.00  0.00     0.022 C 
ENDROOT
BRANCH   5   9
ATOM      9  N   UNL d   1      52.765  34.328  53.266  0.00  0.00    -0.189 NA
ATOM     10  C   UNL d   1      51.989  34.220  53.030  0.00  0.00     0.369 C 
ATOM     11  N   UNL d   1      51.618  34.758  52.527  0.00  0.00    -0.191 NA
ATOM     12  O   UNL d   1      51.560  33.559  53.298  0.00  0.00    -0.242 OA
BRANCH  11  13
ATOM     13  C   UNL d   1      50.847  34.649  52.294  0.00  0.00     0.086 A 
ATOM     14  C   UNL d   1      50.231  34.854  52.803  0.00  0.00     0.020 A 
ATOM     15  C   UNL d   1      49.444  34.741  52.560  0.00  0.00     0.008 A 
ATOM     16  C   UNL d   1      49.282  34.425  51.816  0.00  0.00     0.035 A 
ATOM     17  C   UNL d   1      49.898  34.220  51.307  0.00  0.00     0.008 A 
ATOM     18 BR   UNL d   1      48.510  34.316  51.583  0.00  0.00    -0.049 Br
ATOM     19  C   UNL d   1      50.683  34.331  51.543  0.00  0.00     0.020 A 
ENDBRANCH  11  13
ENDBRANCH   5   9
BRANCH   1  20
ATOM     20  C   UNL d   1      53.794  31.708  53.752  0.00  0.00     0.302 C 
ATOM     21  O   UNL d   1      54.539  31.508  53.495  0.00  0.00    -0.259 OA
BRANCH  20  22
ATOM     22  O   UNL d   1      53.199  31.157  53.753  0.00  0.00    -0.271 OA
BRANCH  22  23
ATOM     23  C   UNL d   1      53.302  30.453  53.353  0.00  0.00     0.126 C 
ATOM     24  C   UNL d   1      52.691  29.902  53.327  0.00  0.00     0.029 C 
ENDBRANCH  22  23
ENDBRANCH  20  22
ENDBRANCH   1  20
TORSDOF 5
ENDMDL
MODEL 4
REMARK VINA RESULT:      -7.1      1.395      2.588
REMARK  5 active torsions:
REMARK  status: ('A' for Active; 'I' for Inactive)
REMARK    1  A    between atoms: C_7  and  C_1 
REMARK       I    between atoms: C_3  and  N_8 
REMARK       I    between atoms: N_10  and  C_3 
REMARK    2  A    between atoms: N_8  and  C_6 
REMARK    3  A    between atoms: O_14  and  C_7 
REMARK    4  A    between atoms: C_13  and  N_10 
REMARK    5  A    between atoms: C_23  and  O_14 
ROOT
ATOM      1  C   UNL d   1      51.570  34.027  53.048  0.00  0.00     0.083 A 
ATOM      2  N   UNL d   1      52.856  34.468  53.468  0.00  0.00    -0.244 NA
ATOM      3  C   UNL d   1      52.051  34.597  53.387  0.00  0.00     0.087 A 
ATOM      4  C   UNL d   1      51.890  33.323  52.786  0.00  0.00     0.028 A 
ATOM      5  C   UNL d   1      52.701  33.181  52.862  0.00  0.00     0.104 A 
ATOM      6  C   UNL d   1      53.183  33.752  53.202  0.00  0.00     0.099 A 
ATOM      7  C   UNL d   1      51.725  35.313  53.653  0.00  0.00     0.021 C 
ATOM      8  C   UNL d   1      53.999  33.614  53.281  0.00  0.00     0.022 C 
ENDROOT
BRANCH   5   9
ATOM      9  N   UNL d   1      53.028  32.465  52.597  0.00  0.00    -0.189 NA
ATOM     10  C   UNL d   1      52.989  31.794  53.064  0.00  0.00     0.369 C 
ATOM     11  N   UNL d   1      53.311  31.079  52.809  0.00  0.00    -0.191 NA
ATOM     12  O   UNL d   1      52.621  31.827  53.809  0.00  0.00    -0.242 OA
BRANCH  11  13
ATOM     13  C   UNL d   1      53.270  30.413  53.275  0.00  0.00     0.086 A 
ATOM     14  C   UNL d   1      52.613  29.916  53.226  0.00  0.00     0.020 A 
ATOM     15  C   UNL d   1      52.577  29.237  53.704  0.00  0.00     0.008 A 
ATOM     16  C   UNL d   1      53.193  29.063  54.223  0.00  0.00     0.035 A 
ATOM     17  C   UNL d   1      53.850  29.560  54.272  0.00  0.00     0.008 A 
ATOM     18 BR   UNL d   1      53.153  28.398  54.689  0.00  0.00    -0.049 Br
ATOM     19  C   UNL d   1      53.892  30.237  53.799  0.00  0.00     0.020 A 
ENDBRANCH  11  13
ENDBRANCH   5   9
BRANCH   1  20
ATOM     20  C   UNL d   1      50.763  34.165  52.970  0.00  0.00     0.302 C 
ATOM     21  O   UNL d   1      50.278  34.107  53.620  0.00  0.00    -0.259 OA
BRANCH  20  22
ATOM     22  O   UNL d   1      50.456  34.358  52.245  0.00  0.00    -0.271 OA
BRANCH  22  23
ATOM     23  C   UNL d   1      49.646  34.391  52.147  0.00  0.00     0.126 C 
ATOM     24  C   UNL d   1      49.327  34.502  51.397  0.00  0.00     0.029 C 
ENDBRANCH  22  23
ENDBRANCH  20  22
ENDBRANCH   1  20
TORSDOF 5
ENDMDL
MODEL 5
REMARK VINA RESULT:      -7.0      3.661      5.074
REMARK  5 active torsions:
REMARK  status: ('A' for Active; 'I' for Inactive)
REMARK    1  A    between atoms: C_7  and  C_1 
REMARK       I    between atoms: C_3  and  N_8 
REMARK       I    between atoms: N_10  and  C_3 
REMARK    2  A    between atoms: N_8  and  C_6 
REMARK    3  A    between atoms: O_14  and  C_7 
REMARK    4  A    between atoms: C_13  and  N_10 
REMARK    5  A    between atoms: C_23  and  O_14 
ROOT
ATOM      1  C   UNL d   1      48.239  35.655  52.761  0.00  0.00     0.083 A 
ATOM      2  N   UNL d   1      48.014  35.414  51.376  0.00  0.00    -0.244 NA
ATOM      3  C   UNL d   1      47.820  35.802  52.071  0.00  0.00     0.087 A 
ATOM      4  C   UNL d   1      48.856  35.120  52.760  0.00  0.00     0.028 A 
ATOM      5  C   UNL d   1      49.061  34.723  52.063  0.00  0.00     0.104 A 
ATOM      6  C   UNL d   1      48.642  34.870  51.374  0.00  0.00     0.099 A 
ATOM      7  C   UNL d   1      47.192  36.346  52.073  0.00  0.00     0.021 C 
ATOM      8  C   UNL d   1      48.844  34.474  50.672  0.00  0.00     0.022 C 
ENDROOT
BRANCH   5   9
ATOM      9  N   UNL d   1      49.688  34.179  52.061  0.00  0.00    -0.189 NA
ATOM     10  C   UNL d   1      50.353  34.311  52.521  0.00  0.00     0.369 C 
ATOM     11  N   UNL d   1      50.981  33.777  52.525  0.00  0.00    -0.191 NA
ATOM     12  O   UNL d   1      50.402  34.994  52.993  0.00  0.00    -0.242 OA
BRANCH  11  13
ATOM     13  C   UNL d   1      51.640  33.911  52.983  0.00  0.00     0.086 A 
ATOM     14  C   UNL d   1      52.160  34.521  52.786  0.00  0.00     0.020 A 
ATOM     15  C   UNL d   1      52.832  34.654  53.257  0.00  0.00     0.008 A 
ATOM     16  C   UNL d   1      52.977  34.179  53.915  0.00  0.00     0.035 A 
ATOM     17  C   UNL d   1      52.457  33.570  54.111  0.00  0.00     0.008 A 
ATOM     18 BR   UNL d   1      53.636  34.313  54.373  0.00  0.00    -0.049 Br
ATOM     19  C   UNL d   1      51.786  33.432  53.647  0.00  0.00     0.020 A 
ENDBRANCH  11  13
ENDBRANCH   5   9
BRANCH   1  20
ATOM     20  C   UNL d   1      48.037  36.048  53.454  0.00  0.00     0.302 C 
ATOM     21  O   UNL d   1      48.452  36.709  53.681  0.00  0.00    -0.259 OA
BRANCH  20  22
ATOM     22  O   UNL d   1      47.425  35.772  53.909  0.00  0.00    -0.271 OA
BRANCH  22  23
ATOM     23  C   UNL d   1      47.261  36.131  54.623  0.00  0.00     0.126 C 
ATOM     24  C   UNL d   1      46.583  35.925  55.040  0.00  0.00     0.029 C 
ENDBRANCH  22  23
ENDBRANCH  20  22
ENDBRANCH   1  20
TORSDOF 5
ENDMDL
MODEL 6
REMARK VINA RESULT:      -6.9      2.227      3.901
REMARK  5 active torsions:
REMARK  status: ('A' for Active; 'I' for Inactive)
REMARK    1  A    between atoms: C_7  and  C_1 
REMARK       I    between atoms: C_3  and  N_8 
REMARK       I    between atoms: N_10  and  C_3 
REMARK    2  A    between atoms: N_8  and  C_6 
REMARK    3  A    between atoms: O_14  and  C_7 
REMARK    4  A    between atoms: C_13  and  N_10 
REMARK    5  A    between atoms: C_23  and  O_14 
ROOT
ATOM      1  C   UNL d   1      53.662  32.273  54.207  0.00  0.00     0.083 A 
ATOM      2  N   UNL d   1      53.212  31.097  53.543  0.00  0.00    -0.244 NA
ATOM      3  C   UNL d   1      53.631  31.456  54.149  0.00  0.00     0.087 A 
ATOM      4  C   UNL d   1      53.274  32.738  53.659  0.00  0.00     0.028 A 
ATOM      5  C   UNL d   1      52.848  32.386  53.042  0.00  0.00     0.104 A 
ATOM      6  C   UNL d   1      52.817  31.569  52.985  0.00  0.00     0.099 A 
ATOM      7  C   UNL d   1      54.026  30.984  54.707  0.00  0.00     0.021 C 
ATOM      8  C   UNL d   1      52.391  31.211  52.368  0.00  0.00     0.022 C 
ENDROOT
BRANCH   5   9
ATOM      9  N   UNL d   1      52.452  32.858  52.484  0.00  0.00    -0.189 NA
ATOM     10  C   UNL d   1      51.783  33.278  52.697  0.00  0.00     0.369 C 
ATOM     11  N   UNL d   1      51.384  33.749  52.150  0.00  0.00    -0.191 NA
ATOM     12  O   UNL d   1      51.494  33.233  53.476  0.00  0.00    -0.242 OA
BRANCH  11  13
ATOM     13  C   UNL d   1      50.718  34.165  52.365  0.00  0.00     0.086 A 
ATOM     14  C   UNL d   1      50.708  34.586  53.074  0.00  0.00     0.020 A 
ATOM     15  C   UNL d   1      50.026  35.010  53.289  0.00  0.00     0.008 A 
ATOM     16  C   UNL d   1      49.365  35.008  52.795  0.00  0.00     0.035 A 
ATOM     17  C   UNL d   1      49.376  34.588  52.086  0.00  0.00     0.008 A 
ATOM     18 BR   UNL d   1      48.700  35.425  53.009  0.00  0.00    -0.049 Br
ATOM     19  C   UNL d   1      50.052  34.164  51.866  0.00  0.00     0.020 A 
ENDBRANCH  11  13
ENDBRANCH   5   9
BRANCH   1  20
ATOM     20  C   UNL d   1      54.083  32.626  54.817  0.00  0.00     0.302 C 
ATOM     21  O   UNL d   1      53.866  32.493  55.589  0.00  0.00    -0.259 OA
BRANCH  20  22
ATOM     22  O   UNL d   1      54.715  33.104  54.645  0.00  0.00    -0.271 OA
BRANCH  22  23
ATOM     23  C   UNL d   1      54.946  33.674  55.183  0.00  0.00     0.126 C 
ATOM     24  C   UNL d   1      55.635  34.105  55.054  0.00  0.00     0.029 C 
ENDBRANCH  22  23
ENDBRANCH  20  22
ENDBRANCH   1  20
TORSDOF 5
ENDMDL
