MODEL 1
REMARK VINA RESULT:      -5.6      0.000      0.000
REMARK  6 active torsions:
REMARK  status: ('A' for Active; 'I' for Inactive)
REMARK    1  A    between atoms: C_6  and  C_1 
REMARK    2  A    between atoms: C_9  and  C_2 
REMARK    3  A    between atoms: N_8  and  C_3 
REMARK       I    between atoms: N_7  and  C_6 
REMARK    4  A    between atoms: C_13  and  N_7 
REMARK    5  A    between atoms: C_12  and  N_8 
REMARK    6  A    between atoms: O_19  and  C_14 
ROOT
ATOM      1  C   UNL d   1     -39.070  15.389  20.192  0.00  0.00     0.108 A 
ATOM      2  C   UNL d   1     -39.790  15.423  19.785  0.00  0.00     0.094 A 
ATOM      3  C   UNL d   1     -38.808  15.668  18.931  0.00  0.00     0.194 A 
ATOM      4  N   UNL d   1     -39.624  15.598  18.997  0.00  0.00    -0.221 NA
ATOM      5  S   UNL d   1     -38.475  15.544  19.644  0.00  0.00    -0.042 SA
ENDROOT
BRANCH   1   6
ATOM      6  C   UNL d   1     -38.957  15.232  20.990  0.00  0.00     0.287 C 
ATOM      7  N   UNL d   1     -38.515  14.577  21.231  0.00  0.00    -0.206 NA
ATOM      8  O   UNL d   1     -39.286  15.729  21.573  0.00  0.00    -0.265 OA
BRANCH   7   9
ATOM      9  C   UNL d   1     -38.401  14.417  22.026  0.00  0.00     0.104 A 
ATOM     10  C   UNL d   1     -38.054  14.983  22.487  0.00  0.00     0.118 A 
ATOM     11  N   UNL d   1     -37.941  14.819  23.284  0.00  0.00    -0.241 NA
ATOM     12  C   UNL d   1     -38.168  14.122  23.586  0.00  0.00     0.099 A 
ATOM     13  C   UNL d   1     -38.515  13.556  23.125  0.00  0.00     0.022 A 
ATOM     14  C   UNL d   1     -38.640  13.698  22.319  0.00  0.00     0.022 A 
ENDBRANCH   7   9
ENDBRANCH   1   6
BRANCH   2  15
ATOM     15  C   UNL d   1     -40.486  15.294  20.177  0.00  0.00     0.018 A 
ATOM     16  C   UNL d   1     -40.877  15.920  20.551  0.00  0.00     0.002 A 
ATOM     17  C   UNL d   1     -41.589  15.776  20.949  0.00  0.00     0.000 A 
ATOM     18  C   UNL d   1     -41.903  15.004  20.969  0.00  0.00     0.000 A 
ATOM     19  C   UNL d   1     -41.531  14.410  20.615  0.00  0.00     0.000 A 
ATOM     20  C   UNL d   1     -40.812  14.533  20.207  0.00  0.00     0.002 A 
ENDBRANCH   2  15
BRANCH   3  21
ATOM     21  N   UNL d   1     -38.413  15.838  18.245  0.00  0.00    -0.221 NA
BRANCH  21  22
ATOM     22  C   UNL d   1     -38.406  15.281  17.632  0.00  0.00     0.084 A 
ATOM     23  C   UNL d   1     -38.881  15.405  16.964  0.00  0.00     0.021 A 
ATOM     24  C   UNL d   1     -38.882  14.868  16.360  0.00  0.00     0.026 A 
ATOM     25  C   UNL d   1     -38.396  14.192  16.423  0.00  0.00     0.094 A 
ATOM     26  C   UNL d   1     -37.945  14.075  17.057  0.00  0.00     0.026 A 
ATOM     27  C   UNL d   1     -37.940  14.624  17.683  0.00  0.00     0.021 A 
BRANCH  25  28
ATOM     28  O   UNL d   1     -38.381  13.616  15.800  0.00  0.00    -0.328 OA
ATOM     29  C   UNL d   1     -37.979  13.756  15.089  0.00  0.00     0.181 C 
ENDBRANCH  25  28
ENDBRANCH  21  22
ENDBRANCH   3  21
TORSDOF 6
ENDMDL
MODEL 2
REMARK VINA RESULT:      -4.3      1.906      5.258
REMARK  6 active torsions:
REMARK  status: ('A' for Active; 'I' for Inactive)
REMARK    1  A    between atoms: C_6  and  C_1 
REMARK    2  A    between atoms: C_9  and  C_2 
REMARK    3  A    between atoms: N_8  and  C_3 
REMARK       I    between atoms: N_7  and  C_6 
REMARK    4  A    between atoms: C_13  and  N_7 
REMARK    5  A    between atoms: C_12  and  N_8 
REMARK    6  A    between atoms: O_19  and  C_14 
ROOT
ATOM      1  C   UNL d   1     -40.299  15.168  18.788  0.00  0.00     0.108 A 
ATOM      2  C   UNL d   1     -39.567  14.809  18.934  0.00  0.00     0.094 A 
ATOM      3  C   UNL d   1     -39.986  15.390  20.048  0.00  0.00     0.194 A 
ATOM      4  N   UNL d   1     -39.374  14.950  19.723  0.00  0.00    -0.221 NA
ATOM      5  S   UNL d   1     -40.541  15.521  19.491  0.00  0.00    -0.042 SA
ENDROOT
BRANCH   1   6
ATOM      6  C   UNL d   1     -40.715  15.175  18.080  0.00  0.00     0.287 C 
ATOM      7  N   UNL d   1     -40.819  15.879  17.661  0.00  0.00    -0.206 NA
ATOM      8  O   UNL d   1     -41.041  14.473  17.770  0.00  0.00    -0.265 OA
BRANCH   7   9
ATOM      9  C   UNL d   1     -41.233  15.891  16.955  0.00  0.00     0.104 A 
ATOM     10  C   UNL d   1     -42.041  15.882  16.981  0.00  0.00     0.118 A 
ATOM     11  N   UNL d   1     -42.453  15.894  16.271  0.00  0.00    -0.241 NA
ATOM     12  C   UNL d   1     -42.063  15.913  15.581  0.00  0.00     0.099 A 
ATOM     13  C   UNL d   1     -41.255  15.922  15.555  0.00  0.00     0.022 A 
ATOM     14  C   UNL d   1     -40.817  15.911  16.257  0.00  0.00     0.022 A 
ENDBRANCH   7   9
ENDBRANCH   1   6
BRANCH   2  15
ATOM     15  C   UNL d   1     -39.183  14.412  18.345  0.00  0.00     0.018 A 
ATOM     16  C   UNL d   1     -38.620  14.800  17.877  0.00  0.00     0.002 A 
ATOM     17  C   UNL d   1     -38.233  14.382  17.276  0.00  0.00     0.000 A 
ATOM     18  C   UNL d   1     -38.412  13.579  17.148  0.00  0.00     0.000 A 
ATOM     19  C   UNL d   1     -38.946  13.211  17.591  0.00  0.00     0.000 A 
ATOM     20  C   UNL d   1     -39.349  13.612  18.204  0.00  0.00     0.002 A 
ENDBRANCH   2  15
BRANCH   3  21
ATOM     21  N   UNL d   1     -40.014  15.646  20.816  0.00  0.00    -0.221 NA
BRANCH  21  22
ATOM     22  C   UNL d   1     -39.626  15.212  21.404  0.00  0.00     0.084 A 
ATOM     23  C   UNL d   1     -39.837  14.421  21.533  0.00  0.00     0.021 A 
ATOM     24  C   UNL d   1     -39.465  13.988  22.105  0.00  0.00     0.026 A 
ATOM     25  C   UNL d   1     -38.866  14.352  22.559  0.00  0.00     0.094 A 
ATOM     26  C   UNL d   1     -38.665  15.103  22.437  0.00  0.00     0.026 A 
ATOM     27  C   UNL d   1     -39.045  15.555  21.849  0.00  0.00     0.021 A 
BRANCH  25  28
ATOM     28  O   UNL d   1     -38.462  13.916  23.164  0.00  0.00    -0.328 OA
ATOM     29  C   UNL d   1     -37.978  13.268  22.982  0.00  0.00     0.181 C 
ENDBRANCH  25  28
ENDBRANCH  21  22
ENDBRANCH   3  21
TORSDOF 6
ENDMDL
MODEL 3
REMARK VINA RESULT:      -4.1      7.473      9.544
REMARK  6 active torsions:
REMARK  status: ('A' for Active; 'I' for Inactive)
REMARK    1  A    between atoms: C_6  and  C_1 
REMARK    2  A    between atoms: C_9  and  C_2 
REMARK    3  A    between atoms: N_8  and  C_3 
REMARK       I    between atoms: N_7  and  C_6 
REMARK    4  A    between atoms: C_13  and  N_7 
REMARK    5  A    between atoms: C_12  and  N_8 
REMARK    6  A    between atoms: O_19  and  C_14 
ROOT
ATOM      1  C   UNL d   1     -47.799  13.117  22.940  0.00  0.00     0.108 A 
ATOM      2  C   UNL d   1     -47.656  13.883  22.658  0.00  0.00     0.094 A 
ATOM      3  C   UNL d   1     -46.519  13.375  23.111  0.00  0.00     0.194 A 
ATOM      4  N   UNL d   1     -46.854  14.042  22.766  0.00  0.00    -0.221 NA
ATOM      5  S   UNL d   1     -47.083  12.822  23.215  0.00  0.00    -0.042 SA
ENDROOT
BRANCH   1   6
ATOM      6  C   UNL d   1     -48.517  12.718  22.947  0.00  0.00     0.287 C 
ATOM      7  N   UNL d   1     -48.945  12.637  23.649  0.00  0.00    -0.206 NA
ATOM      8  O   UNL d   1     -48.828  12.387  22.248  0.00  0.00    -0.265 OA
BRANCH   7   9
ATOM      9  C   UNL d   1     -49.661  12.240  23.660  0.00  0.00     0.104 A 
ATOM     10  C   UNL d   1     -49.654  11.432  23.646  0.00  0.00     0.118 A 
ATOM     11  N   UNL d   1     -50.375  11.037  23.657  0.00  0.00    -0.241 NA
ATOM     12  C   UNL d   1     -51.055  11.443  23.683  0.00  0.00     0.099 A 
ATOM     13  C   UNL d   1     -51.061  12.252  23.697  0.00  0.00     0.022 A 
ATOM     14  C   UNL d   1     -50.349  12.672  23.686  0.00  0.00     0.022 A 
ENDBRANCH   7   9
ENDBRANCH   1   6
BRANCH   2  15
ATOM     15  C   UNL d   1     -48.259  14.323  22.348  0.00  0.00     0.018 A 
ATOM     16  C   UNL d   1     -48.644  14.890  22.813  0.00  0.00     0.002 A 
ATOM     17  C   UNL d   1     -49.260  15.335  22.484  0.00  0.00     0.000 A 
ATOM     18  C   UNL d   1     -49.486  15.208  21.692  0.00  0.00     0.000 A 
ATOM     19  C   UNL d   1     -49.120  14.670  21.251  0.00  0.00     0.000 A 
ATOM     20  C   UNL d   1     -48.495  14.210  21.562  0.00  0.00     0.002 A 
ENDBRANCH   2  15
BRANCH   3  21
ATOM     21  N   UNL d   1     -45.738  13.302  23.310  0.00  0.00    -0.221 NA
BRANCH  21  22
ATOM     22  C   UNL d   1     -45.180  13.145  22.718  0.00  0.00     0.084 A 
ATOM     23  C   UNL d   1     -44.768  12.426  22.726  0.00  0.00     0.021 A 
ATOM     24  C   UNL d   1     -44.222  12.263  22.153  0.00  0.00     0.026 A 
ATOM     25  C   UNL d   1     -44.083  12.832  21.558  0.00  0.00     0.094 A 
ATOM     26  C   UNL d   1     -44.473  13.515  21.550  0.00  0.00     0.026 A 
ATOM     27  C   UNL d   1     -45.038  13.689  22.138  0.00  0.00     0.021 A 
BRANCH  25  28
ATOM     28  O   UNL d   1     -43.514  12.681  20.947  0.00  0.00    -0.328 OA
ATOM     29  C   UNL d   1     -42.726  12.491  21.124  0.00  0.00     0.181 C 
ENDBRANCH  25  28
ENDBRANCH  21  22
ENDBRANCH   3  21
TORSDOF 6
ENDMDL
MODEL 4
REMARK VINA RESULT:      -3.0      1.466      2.731
REMARK  6 active torsions:
REMARK  status: ('A' for Active; 'I' for Inactive)
REMARK    1  A    between atoms: C_6  and  C_1 
REMARK    2  A    between atoms: C_9  and  C_2 
REMARK    3  A    between atoms: N_8  and  C_3 
REMARK       I    between atoms: N_7  and  C_6 
REMARK    4  A    between atoms: C_13  and  N_7 
REMARK    5  A    between atoms: C_12  and  N_8 
REMARK    6  A    between atoms: O_19  and  C_14 
ROOT
ATOM      1  C   UNL d   1     -40.270  14.854  20.198  0.00  0.00     0.108 A 
ATOM      2  C   UNL d   1     -39.476  14.888  20.433  0.00  0.00     0.094 A 
ATOM      3  C   UNL d   1     -39.576  15.360  19.199  0.00  0.00     0.194 A 
ATOM      4  N   UNL d   1     -39.044  15.204  19.806  0.00  0.00    -0.221 NA
ATOM      5  S   UNL d   1     -40.309  15.151  19.432  0.00  0.00    -0.042 SA
ENDROOT
BRANCH   1   6
ATOM      6  C   UNL d   1     -40.906  14.578  20.638  0.00  0.00     0.287 C 
ATOM      7  N   UNL d   1     -41.351  13.934  20.376  0.00  0.00    -0.206 NA
ATOM      8  O   UNL d   1     -41.116  14.943  21.359  0.00  0.00    -0.265 OA
BRANCH   7   9
ATOM      9  C   UNL d   1     -41.986  13.657  20.812  0.00  0.00     0.104 A 
ATOM     10  C   UNL d   1     -42.585  14.170  20.991  0.00  0.00     0.118 A 
ATOM     11  N   UNL d   1     -43.220  13.887  21.428  0.00  0.00    -0.241 NA
ATOM     12  C   UNL d   1     -43.240  13.132  21.666  0.00  0.00     0.099 A 
ATOM     13  C   UNL d   1     -42.640  12.619  21.487  0.00  0.00     0.022 A 
ATOM     14  C   UNL d   1     -41.990  12.879  21.048  0.00  0.00     0.022 A 
ENDBRANCH   7   9
ENDBRANCH   1   6
BRANCH   2  15
ATOM     15  C   UNL d   1     -39.257  14.632  21.168  0.00  0.00     0.018 A 
ATOM     16  C   UNL d   1     -39.303  15.141  21.819  0.00  0.00     0.002 A 
ATOM     17  C   UNL d   1     -39.076  14.868  22.566  0.00  0.00     0.000 A 
ATOM     18  C   UNL d   1     -38.805  14.086  22.656  0.00  0.00     0.000 A 
ATOM     19  C   UNL d   1     -38.761  13.602  22.039  0.00  0.00     0.000 A 
ATOM     20  C   UNL d   1     -38.985  13.856  21.275  0.00  0.00     0.002 A 
ENDBRANCH   2  15
BRANCH   3  21
ATOM     21  N   UNL d   1     -39.376  15.676  18.481  0.00  0.00    -0.221 NA
BRANCH  21  22
ATOM     22  C   UNL d   1     -39.116  15.176  17.874  0.00  0.00     0.084 A 
ATOM     23  C   UNL d   1     -38.303  15.045  17.775  0.00  0.00     0.021 A 
ATOM     24  C   UNL d   1     -38.039  14.559  17.186  0.00  0.00     0.026 A 
ATOM     25  C   UNL d   1     -38.597  14.194  16.684  0.00  0.00     0.094 A 
ATOM     26  C   UNL d   1     -39.369  14.319  16.779  0.00  0.00     0.026 A 
ATOM     27  C   UNL d   1     -39.649  14.818  17.384  0.00  0.00     0.021 A 
BRANCH  25  28
ATOM     28  O   UNL d   1     -38.341  13.681  16.060  0.00  0.00    -0.328 OA
ATOM     29  C   UNL d   1     -37.960  13.974  15.385  0.00  0.00     0.181 C 
ENDBRANCH  25  28
ENDBRANCH  21  22
ENDBRANCH   3  21
TORSDOF 6
ENDMDL
