MODEL 1
REMARK VINA RESULT:      73.3      0.000      0.000
REMARK  4 active torsions:
REMARK  status: ('A' for Active; 'I' for Inactive)
REMARK    1  A    between atoms: C_2  and  C_1 
REMARK       I    between atoms: N_7  and  C_1 
REMARK    2  A    between atoms: N_6  and  C_5 
REMARK    3  A    between atoms: C_12  and  N_7 
REMARK    4  A    between atoms: C_8  and  C_9 
ROOT
ATOM      1  C   UNL d   1      14.887  16.286  -4.872  0.00  0.00     0.021 A 
ATOM      2  C   UNL d   1      14.782  17.636  -5.329  0.00  0.00     0.085 A 
ATOM      3  C   UNL d   1      14.433  16.904  -5.176  0.00  0.00     0.021 A 
ATOM      4  C   UNL d   1      15.690  16.400  -4.721  0.00  0.00     0.002 A 
ATOM      5  C   UNL d   1      16.032  17.127  -4.873  0.00  0.00     0.002 A 
ATOM      6  C   UNL d   1      15.578  17.745  -5.177  0.00  0.00     0.019 A 
ENDROOT
BRANCH   1   7
ATOM      7  C   UNL d   1      14.531  15.548  -4.720  0.00  0.00     0.103 A 
ATOM      8  N   UNL d   1      14.440  15.290  -3.949  0.00  0.00    -0.147 NA
ATOM      9  N   UNL d   1      14.086  14.559  -3.802  0.00  0.00    -0.130 NA
ATOM     10  C   UNL d   1      13.827  14.092  -4.431  0.00  0.00     0.170 A 
ATOM     11  C   UNL d   1      13.922  14.360  -5.209  0.00  0.00     0.041 A 
ATOM     12  C   UNL d   1      14.271  15.082  -5.349  0.00  0.00     0.024 A 
BRANCH  10  13
ATOM     13  N   UNL d   1      13.476  13.367  -4.289  0.00  0.00    -0.284 N 
ATOM     14  C   UNL d   1      13.346  13.120  -3.513  0.00  0.00     0.108 A 
ATOM     15  C   UNL d   1      12.992  12.389  -3.365  0.00  0.00     0.142 A 
ATOM     16  O   UNL d   1      12.769  11.905  -3.995  0.00  0.00    -0.300 OA
ATOM     17  C   UNL d   1      12.899  12.151  -4.772  0.00  0.00     0.142 A 
ATOM     18  C   UNL d   1      13.253  12.883  -4.919  0.00  0.00     0.108 A 
ENDBRANCH  10  13
ENDBRANCH   1   7
BRANCH   2  19
ATOM     19  N   UNL d   1      14.328  18.254  -5.633  0.00  0.00    -0.208 NA
ATOM     20  C   UNL d   1      14.486  19.027  -5.417  0.00  0.00     0.280 C 
ATOM     21  O   UNL d   1      15.103  19.187  -4.892  0.00  0.00    -0.265 OA
BRANCH  20  22
ATOM     22  C   UNL d   1      14.035  19.642  -5.719  0.00  0.00     0.069 A 
ATOM     23  C   UNL d   1      14.383  20.359  -5.902  0.00  0.00     0.062 A 
ATOM     24 CL   UNL d   1      15.201  20.468  -5.781  0.00  0.00    -0.082 Cl
ATOM     25  C   UNL d   1      13.929  20.977  -6.206  0.00  0.00     0.012 A 
ATOM     26  C   UNL d   1      13.127  20.878  -6.327  0.00  0.00     0.001 A 
ATOM     27  C   UNL d   1      12.771  20.156  -6.145  0.00  0.00     0.000 A 
ATOM     28  C   UNL d   1      13.225  19.538  -5.841  0.00  0.00     0.006 A 
ENDBRANCH  20  22
ENDBRANCH   2  19
TORSDOF 4
ENDMDL
