MODEL 1
REMARK VINA RESULT:      39.4      0.000      0.000
REMARK  5 active torsions:
REMARK  status: ('A' for Active; 'I' for Inactive)
REMARK       I    between atoms: N_2  and  C_5 
REMARK    1  A    between atoms: C_3  and  N_2 
REMARK    2  A    between atoms: C_14  and  C_4 
REMARK    3  A    between atoms: C_5  and  C_13 
REMARK    4  A    between atoms: C_17  and  C_6 
REMARK    5  A    between atoms: C_13  and  C_14 
ROOT
ATOM      1  N   UNL d   1      57.839  49.391  51.801  0.00  0.00    -0.208 NA
ATOM      2  C   UNL d   1      58.654  49.396  51.756  0.00  0.00     0.279 C 
ATOM      3  O   UNL d   1      59.109  49.316  52.446  0.00  0.00    -0.265 OA
ENDROOT
BRANCH   2   4
ATOM      4  C   UNL d   1      59.028  49.480  51.026  0.00  0.00     0.065 C 
BRANCH   4   5
ATOM      5  C   UNL d   1      59.821  49.706  50.989  0.00  0.00     0.030 C 
BRANCH   5   6
ATOM      6  C   UNL d   1      60.396  49.159  50.777  0.00  0.00     0.100 A 
ATOM      7  O   UNL d   1      60.323  48.331  50.804  0.00  0.00    -0.307 OA
ATOM      8  C   UNL d   1      61.026  48.004  50.544  0.00  0.00     0.100 A 
ATOM      9  C   UNL d   1      61.542  48.619  50.354  0.00  0.00     0.027 A 
ATOM     10  C   UNL d   1      61.149  49.329  50.498  0.00  0.00     0.027 A 
BRANCH   8  11
ATOM     11  C   UNL d   1      61.185  47.201  50.486  0.00  0.00     0.025 C 
ATOM     12  C   UNL d   1      60.724  46.658  50.908  0.00  0.00     0.002 C 
ENDBRANCH   8  11
ENDBRANCH   5   6
ENDBRANCH   4   5
ENDBRANCH   2   4
BRANCH   1  13
ATOM     13  C   UNL d   1      57.387  49.470  51.113  0.00  0.00     0.085 A 
ATOM     14  C   UNL d   1      56.573  49.574  51.171  0.00  0.00     0.018 A 
ATOM     15  C   UNL d   1      56.124  49.653  50.487  0.00  0.00     0.002 A 
ATOM     16  C   UNL d   1      56.212  49.598  51.915  0.00  0.00     0.002 C 
ATOM     17  C   UNL d   1      56.491  49.628  49.749  0.00  0.00     0.000 A 
ATOM     18  C   UNL d   1      57.305  49.525  49.691  0.00  0.00     0.002 A 
ATOM     19  C   UNL d   1      56.036  49.708  49.059  0.00  0.00     0.000 C 
ATOM     20  C   UNL d   1      57.754  49.445  50.387  0.00  0.00     0.019 A 
ENDBRANCH   1  13
TORSDOF 5
ENDMDL
