MODEL 1
REMARK VINA RESULT:      -2.6      0.000      0.000
REMARK  4 active torsions:
REMARK  status: ('A' for Active; 'I' for Inactive)
REMARK    1  A    between atoms: N_2  and  C_1 
REMARK    2  A    between atoms: C_4  and  C_1 
REMARK    3  A    between atoms: C_8  and  N_2 
REMARK    4  A    between atoms: N_7  and  C_6 
ROOT
ATOM      1  C   UNL d   1      29.498  16.127 -24.289  0.00  0.00     0.064 A 
ATOM      2  C   UNL d   1      30.876  17.017 -24.418  0.00  0.00     0.083 A 
ATOM      3  C   UNL d   1      30.235  15.754 -24.271  0.00  0.00     0.019 A 
ATOM      4  C   UNL d   1      29.455  16.947 -24.371  0.00  0.00     0.019 A 
ATOM      5  C   UNL d   1      30.929  16.197 -24.336  0.00  0.00     0.021 A 
ATOM      6  C   UNL d   1      30.142  17.398 -24.437  0.00  0.00     0.021 A 
ENDROOT
BRANCH   2   7
ATOM      7  N   UNL d   1      31.567  17.466 -24.484  0.00  0.00    -0.233 NA
BRANCH   7   8
ATOM      8  C   UNL d   1      32.098  17.495 -23.850  0.00  0.00     0.153 C 
ATOM      9  S   UNL d   1      32.249  16.817 -23.401  0.00  0.00    -0.056 SA
BRANCH   8  10
ATOM     10  C   UNL d   1      32.480  18.210 -23.664  0.00  0.00     0.109 A 
ATOM     11  N   UNL d   1      32.747  18.706 -24.275  0.00  0.00    -0.242 NA
ATOM     12  C   UNL d   1      33.127  19.417 -24.095  0.00  0.00     0.099 A 
ATOM     13  C   UNL d   1      33.241  19.632 -23.306  0.00  0.00     0.021 A 
ATOM     14  C   UNL d   1      32.974  19.136 -22.696  0.00  0.00     0.003 A 
ATOM     15  C   UNL d   1      32.595  18.426 -22.876  0.00  0.00     0.021 A 
ENDBRANCH   8  10
ENDBRANCH   7   8
ENDBRANCH   2   7
BRANCH   1  16
ATOM     16  N   UNL d   1      28.805  15.684 -24.224  0.00  0.00    -0.301 N 
ATOM     17  C   UNL d   1      28.517  15.472 -23.479  0.00  0.00     0.100 C 
ATOM     18  C   UNL d   1      28.400  15.455 -24.905  0.00  0.00     0.100 C 
ENDBRANCH   1  16
TORSDOF 4
ENDMDL
MODEL 2
REMARK VINA RESULT:      -2.5      2.706      5.381
REMARK  4 active torsions:
REMARK  status: ('A' for Active; 'I' for Inactive)
REMARK    1  A    between atoms: N_2  and  C_1 
REMARK    2  A    between atoms: C_4  and  C_1 
REMARK    3  A    between atoms: C_8  and  N_2 
REMARK    4  A    between atoms: N_7  and  C_6 
ROOT
ATOM      1  C   UNL d   1      32.546  21.930 -21.108  0.00  0.00     0.064 A 
ATOM      2  C   UNL d   1      33.008  20.487 -21.752  0.00  0.00     0.083 A 
ATOM      3  C   UNL d   1      32.325  21.223 -20.742  0.00  0.00     0.019 A 
ATOM      4  C   UNL d   1      32.999  21.911 -21.798  0.00  0.00     0.019 A 
ATOM      5  C   UNL d   1      32.554  20.498 -21.062  0.00  0.00     0.021 A 
ATOM      6  C   UNL d   1      33.233  21.191 -22.124  0.00  0.00     0.021 A 
ENDROOT
BRANCH   2   7
ATOM      7  N   UNL d   1      33.241  19.764 -22.077  0.00  0.00    -0.233 NA
BRANCH   7   8
ATOM      8  C   UNL d   1      33.128  19.622 -22.884  0.00  0.00     0.153 C 
ATOM      9  S   UNL d   1      33.232  20.232 -23.433  0.00  0.00    -0.056 SA
BRANCH   8  10
ATOM     10  C   UNL d   1      32.908  18.863 -23.143  0.00  0.00     0.109 A 
ATOM     11  N   UNL d   1      33.219  18.192 -22.764  0.00  0.00    -0.242 NA
ATOM     12  C   UNL d   1      33.005  17.437 -23.018  0.00  0.00     0.099 A 
ATOM     13  C   UNL d   1      32.480  17.350 -23.649  0.00  0.00     0.021 A 
ATOM     14  C   UNL d   1      32.168  18.021 -24.027  0.00  0.00     0.003 A 
ATOM     15  C   UNL d   1      32.384  18.775 -23.773  0.00  0.00     0.021 A 
ENDBRANCH   8  10
ENDBRANCH   7   8
ENDBRANCH   2   7
BRANCH   1  16
ATOM     16  N   UNL d   1      32.316  22.655 -20.789  0.00  0.00    -0.301 N 
ATOM     17  C   UNL d   1      32.280  22.754 -19.969  0.00  0.00     0.100 C 
ATOM     18  C   UNL d   1      32.123  23.281 -21.290  0.00  0.00     0.100 C 
ENDBRANCH   1  16
TORSDOF 4
ENDMDL
MODEL 3
REMARK VINA RESULT:      -2.1      1.849      4.865
REMARK  4 active torsions:
REMARK  status: ('A' for Active; 'I' for Inactive)
REMARK    1  A    between atoms: N_2  and  C_1 
REMARK    2  A    between atoms: C_4  and  C_1 
REMARK    3  A    between atoms: C_8  and  N_2 
REMARK    4  A    between atoms: N_7  and  C_6 
ROOT
ATOM      1  C   UNL d   1      33.018  20.973 -21.934  0.00  0.00     0.064 A 
ATOM      2  C   UNL d   1      33.071  19.450 -22.556  0.00  0.00     0.083 A 
ATOM      3  C   UNL d   1      33.213  20.857 -22.728  0.00  0.00     0.019 A 
ATOM      4  C   UNL d   1      32.849  20.323 -21.453  0.00  0.00     0.019 A 
ATOM      5  C   UNL d   1      33.241  20.095 -23.044  0.00  0.00     0.021 A 
ATOM      6  C   UNL d   1      32.874  19.559 -21.760  0.00  0.00     0.021 A 
ENDROOT
BRANCH   2   7
ATOM      7  N   UNL d   1      33.097  18.685 -22.867  0.00  0.00    -0.233 NA
BRANCH   7   8
ATOM      8  C   UNL d   1      32.687  18.512 -23.564  0.00  0.00     0.153 C 
ATOM      9  S   UNL d   1      32.681  19.053 -24.189  0.00  0.00    -0.056 SA
BRANCH   8  10
ATOM     10  C   UNL d   1      32.279  17.791 -23.635  0.00  0.00     0.109 A 
ATOM     11  N   UNL d   1      32.590  17.104 -23.285  0.00  0.00    -0.242 NA
ATOM     12  C   UNL d   1      32.189  16.386 -23.354  0.00  0.00     0.099 A 
ATOM     13  C   UNL d   1      31.477  16.353 -23.770  0.00  0.00     0.021 A 
ATOM     14  C   UNL d   1      31.166  17.039 -24.120  0.00  0.00     0.003 A 
ATOM     15  C   UNL d   1      31.568  17.756 -24.052  0.00  0.00     0.021 A 
ENDBRANCH   8  10
ENDBRANCH   7   8
ENDBRANCH   2   7
BRANCH   1  16
ATOM     16  N   UNL d   1      32.990  21.735 -21.618  0.00  0.00    -0.301 N 
ATOM     17  C   UNL d   1      33.235  21.870 -20.840  0.00  0.00     0.100 C 
ATOM     18  C   UNL d   1      32.717  22.361 -22.081  0.00  0.00     0.100 C 
ENDBRANCH   1  16
TORSDOF 4
ENDMDL
MODEL 4
REMARK VINA RESULT:      -1.7      1.762      3.080
REMARK  4 active torsions:
REMARK  status: ('A' for Active; 'I' for Inactive)
REMARK    1  A    between atoms: N_2  and  C_1 
REMARK    2  A    between atoms: C_4  and  C_1 
REMARK    3  A    between atoms: C_8  and  N_2 
REMARK    4  A    between atoms: N_7  and  C_6 
ROOT
ATOM      1  C   UNL d   1      32.096  17.554 -24.328  0.00  0.00     0.064 A 
ATOM      2  C   UNL d   1      32.639  18.958 -23.663  0.00  0.00     0.083 A 
ATOM      3  C   UNL d   1      31.630  17.960 -23.779  0.00  0.00     0.019 A 
ATOM      4  C   UNL d   1      32.834  17.855 -24.542  0.00  0.00     0.019 A 
ATOM      5  C   UNL d   1      31.899  18.665 -23.444  0.00  0.00     0.021 A 
ATOM      6  C   UNL d   1      33.111  18.558 -24.212  0.00  0.00     0.021 A 
ENDROOT
BRANCH   2   7
ATOM      7  N   UNL d   1      32.914  19.663 -23.331  0.00  0.00    -0.233 NA
BRANCH   7   8
ATOM      8  C   UNL d   1      33.036  19.710 -22.514  0.00  0.00     0.153 C 
ATOM      9  S   UNL d   1      33.238  19.034 -22.083  0.00  0.00    -0.056 SA
BRANCH   8  10
ATOM     10  C   UNL d   1      32.955  20.441 -22.126  0.00  0.00     0.109 A 
ATOM     11  N   UNL d   1      32.588  20.474 -21.381  0.00  0.00    -0.242 NA
ATOM     12  C   UNL d   1      32.506  21.198 -20.992  0.00  0.00     0.099 A 
ATOM     13  C   UNL d   1      32.790  21.888 -21.345  0.00  0.00     0.021 A 
ATOM     14  C   UNL d   1      33.157  21.854 -22.089  0.00  0.00     0.003 A 
ATOM     15  C   UNL d   1      33.239  21.131 -22.478  0.00  0.00     0.021 A 
ENDBRANCH   8  10
ENDBRANCH   7   8
ENDBRANCH   2   7
BRANCH   1  16
ATOM     16  N   UNL d   1      31.827  16.850 -24.664  0.00  0.00    -0.301 N 
ATOM     17  C   UNL d   1      31.036  16.775 -24.891  0.00  0.00     0.100 C 
ATOM     18  C   UNL d   1      32.350  16.221 -24.772  0.00  0.00     0.100 C 
ENDBRANCH   1  16
TORSDOF 4
ENDMDL
MODEL 5
REMARK VINA RESULT:      -1.6      2.916      4.674
REMARK  4 active torsions:
REMARK  status: ('A' for Active; 'I' for Inactive)
REMARK    1  A    between atoms: N_2  and  C_1 
REMARK    2  A    between atoms: C_4  and  C_1 
REMARK    3  A    between atoms: C_8  and  N_2 
REMARK    4  A    between atoms: N_7  and  C_6 
ROOT
ATOM      1  C   UNL d   1      32.929  19.023 -23.481  0.00  0.00     0.064 A 
ATOM      2  C   UNL d   1      33.136  20.425 -22.644  0.00  0.00     0.083 A 
ATOM      3  C   UNL d   1      33.032  19.005 -22.662  0.00  0.00     0.019 A 
ATOM      4  C   UNL d   1      32.931  19.747 -23.879  0.00  0.00     0.019 A 
ATOM      5  C   UNL d   1      33.136  19.705 -22.238  0.00  0.00     0.021 A 
ATOM      6  C   UNL d   1      33.034  20.452 -23.464  0.00  0.00     0.021 A 
ENDROOT
BRANCH   2   7
ATOM      7  N   UNL d   1      33.240  21.130 -22.225  0.00  0.00    -0.233 NA
BRANCH   7   8
ATOM      8  C   UNL d   1      32.764  21.288 -21.567  0.00  0.00     0.153 C 
ATOM      9  S   UNL d   1      32.374  20.673 -21.176  0.00  0.00    -0.056 SA
BRANCH   8  10
ATOM     10  C   UNL d   1      32.679  22.071 -21.298  0.00  0.00     0.109 A 
ATOM     11  N   UNL d   1      33.186  22.361 -20.707  0.00  0.00    -0.242 NA
ATOM     12  C   UNL d   1      33.105  23.137 -20.437  0.00  0.00     0.099 A 
ATOM     13  C   UNL d   1      32.520  23.624 -20.756  0.00  0.00     0.021 A 
ATOM     14  C   UNL d   1      32.013  23.333 -21.347  0.00  0.00     0.003 A 
ATOM     15  C   UNL d   1      32.094  22.558 -21.616  0.00  0.00     0.021 A 
ENDBRANCH   8  10
ENDBRANCH   7   8
ENDBRANCH   2   7
BRANCH   1  16
ATOM     16  N   UNL d   1      32.826  18.323 -23.905  0.00  0.00    -0.301 N 
ATOM     17  C   UNL d   1      33.168  17.621 -23.636  0.00  0.00     0.100 C 
ATOM     18  C   UNL d   1      32.378  18.326 -24.598  0.00  0.00     0.100 C 
ENDBRANCH   1  16
TORSDOF 4
ENDMDL
MODEL 6
REMARK VINA RESULT:      -1.5      4.998      7.460
REMARK  4 active torsions:
REMARK  status: ('A' for Active; 'I' for Inactive)
REMARK    1  A    between atoms: N_2  and  C_1 
REMARK    2  A    between atoms: C_4  and  C_1 
REMARK    3  A    between atoms: C_8  and  N_2 
REMARK    4  A    between atoms: N_7  and  C_6 
ROOT
ATOM      1  C   UNL d   1      32.662  23.171 -18.331  0.00  0.00     0.064 A 
ATOM      2  C   UNL d   1      33.012  22.815 -19.899  0.00  0.00     0.083 A 
ATOM      3  C   UNL d   1      33.038  22.460 -18.520  0.00  0.00     0.019 A 
ATOM      4  C   UNL d   1      32.463  23.702 -18.930  0.00  0.00     0.019 A 
ATOM      5  C   UNL d   1      33.215  22.278 -19.305  0.00  0.00     0.021 A 
ATOM      6  C   UNL d   1      32.636  23.529 -19.717  0.00  0.00     0.021 A 
ENDROOT
BRANCH   2   7
ATOM      7  N   UNL d   1      33.187  22.638 -20.687  0.00  0.00    -0.233 NA
BRANCH   7   8
ATOM      8  C   UNL d   1      32.687  22.137 -21.115  0.00  0.00     0.153 C 
ATOM      9  S   UNL d   1      32.004  21.831 -20.764  0.00  0.00    -0.056 SA
BRANCH   8  10
ATOM     10  C   UNL d   1      32.873  21.942 -21.902  0.00  0.00     0.109 A 
ATOM     11  N   UNL d   1      32.898  21.145 -22.134  0.00  0.00    -0.242 NA
ATOM     12  C   UNL d   1      33.082  20.946 -22.914  0.00  0.00     0.099 A 
ATOM     13  C   UNL d   1      33.241  21.542 -23.462  0.00  0.00     0.021 A 
ATOM     14  C   UNL d   1      33.216  22.340 -23.230  0.00  0.00     0.003 A 
ATOM     15  C   UNL d   1      33.032  22.537 -22.450  0.00  0.00     0.021 A 
ENDBRANCH   8  10
ENDBRANCH   7   8
ENDBRANCH   2   7
BRANCH   1  16
ATOM     16  N   UNL d   1      32.485  23.354 -17.546  0.00  0.00    -0.301 N 
ATOM     17  C   UNL d   1      33.086  23.582 -17.028  0.00  0.00     0.100 C 
ATOM     18  C   UNL d   1      31.705  23.306 -17.280  0.00  0.00     0.100 C 
ENDBRANCH   1  16
TORSDOF 4
ENDMDL
MODEL 7
REMARK VINA RESULT:      -1.3      0.902      4.138
REMARK  4 active torsions:
REMARK  status: ('A' for Active; 'I' for Inactive)
REMARK    1  A    between atoms: N_2  and  C_1 
REMARK    2  A    between atoms: C_4  and  C_1 
REMARK    3  A    between atoms: C_8  and  N_2 
REMARK    4  A    between atoms: N_7  and  C_6 
ROOT
ATOM      1  C   UNL d   1      32.417  18.164 -24.464  0.00  0.00     0.064 A 
ATOM      2  C   UNL d   1      31.445  16.843 -24.594  0.00  0.00     0.083 A 
ATOM      3  C   UNL d   1      32.602  17.566 -25.003  0.00  0.00     0.019 A 
ATOM      4  C   UNL d   1      31.744  18.098 -23.991  0.00  0.00     0.019 A 
ATOM      5  C   UNL d   1      32.117  16.902 -25.071  0.00  0.00     0.021 A 
ATOM      6  C   UNL d   1      31.254  17.438 -24.053  0.00  0.00     0.021 A 
ENDROOT
BRANCH   2   7
ATOM      7  N   UNL d   1      30.956  16.180 -24.659  0.00  0.00    -0.233 NA
BRANCH   7   8
ATOM      8  C   UNL d   1      30.640  15.837 -23.976  0.00  0.00     0.153 C 
ATOM      9  S   UNL d   1      31.136  15.620 -23.350  0.00  0.00    -0.056 SA
BRANCH   8  10
ATOM     10  C   UNL d   1      29.820  15.709 -23.919  0.00  0.00     0.109 A 
ATOM     11  N   UNL d   1      29.367  15.625 -24.610  0.00  0.00    -0.242 NA
ATOM     12  C   UNL d   1      28.553  15.499 -24.558  0.00  0.00     0.099 A 
ATOM     13  C   UNL d   1      28.191  15.456 -23.818  0.00  0.00     0.021 A 
ATOM     14  C   UNL d   1      28.644  15.540 -23.127  0.00  0.00     0.003 A 
ATOM     15  C   UNL d   1      29.458  15.667 -23.179  0.00  0.00     0.021 A 
ENDBRANCH   8  10
ENDBRANCH   7   8
ENDBRANCH   2   7
BRANCH   1  16
ATOM     16  N   UNL d   1      32.902  18.829 -24.395  0.00  0.00    -0.301 N 
ATOM     17  C   UNL d   1      33.049  19.305 -25.054  0.00  0.00     0.100 C 
ATOM     18  C   UNL d   1      33.241  19.016 -23.666  0.00  0.00     0.100 C 
ENDBRANCH   1  16
TORSDOF 4
ENDMDL
