MODEL 1
REMARK VINA RESULT:      -2.4      0.000      0.000
REMARK  3 active torsions:
REMARK  status: ('A' for Active; 'I' for Inactive)
REMARK    1  A    between atoms: C_3  and  C_9 
REMARK    2  A    between atoms: C_6  and  C_4 
REMARK    3  A    between atoms: C_9  and  C_6 
ROOT
ATOM      1  C   UNL d   1      29.499  16.830 -24.280  0.00  0.00     0.199 A 
ATOM      2  C   UNL d   1      28.735  16.578 -24.155  0.00  0.00     0.084 A 
ATOM      3  C   UNL d   1      30.129  16.459 -23.897  0.00  0.00     0.039 A 
ATOM      4  C   UNL d   1      29.985  15.841 -23.395  0.00  0.00     0.006 A 
ATOM      5  C   UNL d   1      28.595  15.950 -23.646  0.00  0.00     0.199 A 
ATOM      6  O   UNL d   1      29.638  17.464 -24.795  0.00  0.00    -0.286 OA
ATOM      7  C   UNL d   1      29.225  15.579 -23.263  0.00  0.00     0.042 A 
ATOM      8  O   UNL d   1      27.831  15.698 -23.521  0.00  0.00    -0.286 OA
ENDROOT
BRANCH   3   9
ATOM      9  C   UNL d   1      30.902  16.719 -24.027  0.00  0.00     0.009 C 
BRANCH   9  10
ATOM     10  C   UNL d   1      31.517  16.432 -23.557  0.00  0.00     0.070 C 
BRANCH  10  11
ATOM     11  C   UNL d   1      32.284  16.718 -23.663  0.00  0.00     0.211 C 
ATOM     12  O   UNL d   1      32.560  17.330 -23.191  0.00  0.00    -0.644 OA
ATOM     13  O   UNL d   1      32.760  16.396 -24.230  0.00  0.00    -0.644 OA
ENDBRANCH  10  11
ENDBRANCH   9  10
ENDBRANCH   3   9
TORSDOF 3
ENDMDL
MODEL 2
REMARK VINA RESULT:      -2.4      0.665      3.131
REMARK  3 active torsions:
REMARK  status: ('A' for Active; 'I' for Inactive)
REMARK    1  A    between atoms: C_3  and  C_9 
REMARK    2  A    between atoms: C_6  and  C_4 
REMARK    3  A    between atoms: C_9  and  C_6 
ROOT
ATOM      1  C   UNL d   1      30.876  17.237 -24.563  0.00  0.00     0.199 A 
ATOM      2  C   UNL d   1      31.684  17.327 -24.501  0.00  0.00     0.084 A 
ATOM      3  C   UNL d   1      30.484  16.670 -24.110  0.00  0.00     0.039 A 
ATOM      4  C   UNL d   1      30.904  16.201 -23.603  0.00  0.00     0.006 A 
ATOM      5  C   UNL d   1      32.104  16.848 -23.985  0.00  0.00     0.199 A 
ATOM      6  O   UNL d   1      30.453  17.722 -25.085  0.00  0.00    -0.286 OA
ATOM      7  C   UNL d   1      31.712  16.281 -23.533  0.00  0.00     0.042 A 
ATOM      8  O   UNL d   1      32.912  16.938 -23.924  0.00  0.00    -0.286 OA
ENDROOT
BRANCH   3   9
ATOM      9  C   UNL d   1      29.665  16.583 -24.176  0.00  0.00     0.009 C 
BRANCH   9  10
ATOM     10  C   UNL d   1      29.253  16.132 -23.622  0.00  0.00     0.070 C 
BRANCH  10  11
ATOM     11  C   UNL d   1      28.432  16.060 -23.678  0.00  0.00     0.211 C 
ATOM     12  O   UNL d   1      27.949  16.607 -23.304  0.00  0.00    -0.644 OA
ATOM     13  O   UNL d   1      28.108  15.453 -24.099  0.00  0.00    -0.644 OA
ENDBRANCH  10  11
ENDBRANCH   9  10
ENDBRANCH   3   9
TORSDOF 3
ENDMDL
MODEL 3
REMARK VINA RESULT:      -2.3      0.970      3.347
REMARK  3 active torsions:
REMARK  status: ('A' for Active; 'I' for Inactive)
REMARK    1  A    between atoms: C_3  and  C_9 
REMARK    2  A    between atoms: C_6  and  C_4 
REMARK    3  A    between atoms: C_9  and  C_6 
ROOT
ATOM      1  C   UNL d   1      31.332  16.299 -23.613  0.00  0.00     0.199 A 
ATOM      2  C   UNL d   1      32.038  16.684 -23.743  0.00  0.00     0.084 A 
ATOM      3  C   UNL d   1      30.632  16.588 -23.942  0.00  0.00     0.039 A 
ATOM      4  C   UNL d   1      30.649  17.257 -24.397  0.00  0.00     0.006 A 
ATOM      5  C   UNL d   1      32.048  17.362 -24.205  0.00  0.00     0.199 A 
ATOM      6  O   UNL d   1      31.323  15.615 -23.147  0.00  0.00    -0.286 OA
ATOM      7  C   UNL d   1      31.349  17.651 -24.534  0.00  0.00     0.042 A 
ATOM      8  O   UNL d   1      32.755  17.747 -24.335  0.00  0.00    -0.286 OA
ENDROOT
BRANCH   3   9
ATOM      9  C   UNL d   1      29.919  16.194 -23.807  0.00  0.00     0.009 C 
BRANCH   9  10
ATOM     10  C   UNL d   1      29.210  16.527 -24.065  0.00  0.00     0.070 C 
BRANCH  10  11
ATOM     11  C   UNL d   1      28.492  16.169 -23.870  0.00  0.00     0.211 C 
ATOM     12  O   UNL d   1      28.001  16.517 -23.312  0.00  0.00    -0.644 OA
ATOM     13  O   UNL d   1      28.275  15.479 -24.228  0.00  0.00    -0.644 OA
ENDBRANCH  10  11
ENDBRANCH   9  10
ENDBRANCH   3   9
TORSDOF 3
ENDMDL
MODEL 4
REMARK VINA RESULT:      -2.3      6.063      7.169
REMARK  3 active torsions:
REMARK  status: ('A' for Active; 'I' for Inactive)
REMARK    1  A    between atoms: C_3  and  C_9 
REMARK    2  A    between atoms: C_6  and  C_4 
REMARK    3  A    between atoms: C_9  and  C_6 
ROOT
ATOM      1  C   UNL d   1      32.246  22.756 -20.662  0.00  0.00     0.199 A 
ATOM      2  C   UNL d   1      32.260  23.293 -20.050  0.00  0.00     0.084 A 
ATOM      3  C   UNL d   1      32.729  22.087 -20.641  0.00  0.00     0.039 A 
ATOM      4  C   UNL d   1      33.218  21.966 -20.008  0.00  0.00     0.006 A 
ATOM      5  C   UNL d   1      32.758  23.165 -19.412  0.00  0.00     0.199 A 
ATOM      6  O   UNL d   1      31.742  22.887 -21.306  0.00  0.00    -0.286 OA
ATOM      7  C   UNL d   1      33.241  22.496 -19.391  0.00  0.00     0.042 A 
ATOM      8  O   UNL d   1      32.772  23.702 -18.799  0.00  0.00    -0.286 OA
ENDROOT
BRANCH   3   9
ATOM      9  C   UNL d   1      32.711  21.545 -21.264  0.00  0.00     0.009 C 
BRANCH   9  10
ATOM     10  C   UNL d   1      33.034  20.793 -21.164  0.00  0.00     0.070 C 
BRANCH  10  11
ATOM     11  C   UNL d   1      33.155  20.306 -21.820  0.00  0.00     0.211 C 
ATOM     12  O   UNL d   1      33.209  19.493 -21.720  0.00  0.00    -0.644 OA
ATOM     13  O   UNL d   1      33.219  20.630 -22.557  0.00  0.00    -0.644 OA
ENDBRANCH  10  11
ENDBRANCH   9  10
ENDBRANCH   3   9
TORSDOF 3
ENDMDL
MODEL 5
REMARK VINA RESULT:      -2.1      5.369      6.603
REMARK  3 active torsions:
REMARK  status: ('A' for Active; 'I' for Inactive)
REMARK    1  A    between atoms: C_3  and  C_9 
REMARK    2  A    between atoms: C_6  and  C_4 
REMARK    3  A    between atoms: C_9  and  C_6 
ROOT
ATOM      1  C   UNL d   1      33.193  21.182 -22.242  0.00  0.00     0.199 A 
ATOM      2  C   UNL d   1      33.237  20.401 -22.470  0.00  0.00     0.084 A 
ATOM      3  C   UNL d   1      33.108  21.381 -21.446  0.00  0.00     0.039 A 
ATOM      4  C   UNL d   1      33.068  20.795 -20.889  0.00  0.00     0.006 A 
ATOM      5  C   UNL d   1      33.196  19.812 -21.900  0.00  0.00     0.199 A 
ATOM      6  O   UNL d   1      33.235  21.776 -22.819  0.00  0.00    -0.286 OA
ATOM      7  C   UNL d   1      33.111  20.011 -21.104  0.00  0.00     0.042 A 
ATOM      8  O   UNL d   1      33.240  19.031 -22.128  0.00  0.00    -0.286 OA
ENDROOT
BRANCH   3   9
ATOM      9  C   UNL d   1      33.063  22.174 -21.221  0.00  0.00     0.009 C 
BRANCH   9  10
ATOM     10  C   UNL d   1      32.566  22.399 -20.603  0.00  0.00     0.070 C 
BRANCH  10  11
ATOM     11  C   UNL d   1      32.546  23.187 -20.355  0.00  0.00     0.211 C 
ATOM     12  O   UNL d   1      33.149  23.480 -19.882  0.00  0.00    -0.644 OA
ATOM     13  O   UNL d   1      31.936  23.665 -20.579  0.00  0.00    -0.644 OA
ENDBRANCH  10  11
ENDBRANCH   9  10
ENDBRANCH   3   9
TORSDOF 3
ENDMDL
MODEL 6
REMARK VINA RESULT:      -2.0      4.740      6.132
REMARK  3 active torsions:
REMARK  status: ('A' for Active; 'I' for Inactive)
REMARK    1  A    between atoms: C_3  and  C_9 
REMARK    2  A    between atoms: C_6  and  C_4 
REMARK    3  A    between atoms: C_9  and  C_6 
ROOT
ATOM      1  C   UNL d   1      32.651  21.480 -21.207  0.00  0.00     0.199 A 
ATOM      2  C   UNL d   1      32.631  22.293 -21.145  0.00  0.00     0.084 A 
ATOM      3  C   UNL d   1      32.938  21.121 -21.892  0.00  0.00     0.039 A 
ATOM      4  C   UNL d   1      33.201  21.580 -22.505  0.00  0.00     0.006 A 
ATOM      5  C   UNL d   1      32.898  22.752 -21.769  0.00  0.00     0.199 A 
ATOM      6  O   UNL d   1      32.380  21.019 -20.575  0.00  0.00    -0.286 OA
ATOM      7  C   UNL d   1      33.185  22.393 -22.454  0.00  0.00     0.042 A 
ATOM      8  O   UNL d   1      32.878  23.564 -21.707  0.00  0.00    -0.286 OA
ENDROOT
BRANCH   3   9
ATOM      9  C   UNL d   1      32.957  20.298 -21.950  0.00  0.00     0.009 C 
BRANCH   9  10
ATOM     10  C   UNL d   1      33.023  19.939 -22.690  0.00  0.00     0.070 C 
BRANCH  10  11
ATOM     11  C   UNL d   1      32.909  19.124 -22.764  0.00  0.00     0.211 C 
ATOM     12  O   UNL d   1      33.240  18.615 -22.212  0.00  0.00    -0.644 OA
ATOM     13  O   UNL d   1      32.474  18.832 -23.377  0.00  0.00    -0.644 OA
ENDBRANCH  10  11
ENDBRANCH   9  10
ENDBRANCH   3   9
TORSDOF 3
ENDMDL
MODEL 7
REMARK VINA RESULT:      -1.8      6.586      7.612
REMARK  3 active torsions:
REMARK  status: ('A' for Active; 'I' for Inactive)
REMARK    1  A    between atoms: C_3  and  C_9 
REMARK    2  A    between atoms: C_6  and  C_4 
REMARK    3  A    between atoms: C_9  and  C_6 
ROOT
ATOM      1  C   UNL d   1      32.326  22.204 -20.888  0.00  0.00     0.199 A 
ATOM      2  C   UNL d   1      32.375  21.575 -21.404  0.00  0.00     0.084 A 
ATOM      3  C   UNL d   1      32.734  22.188 -20.171  0.00  0.00     0.039 A 
ATOM      4  C   UNL d   1      33.184  21.544 -19.980  0.00  0.00     0.006 A 
ATOM      5  C   UNL d   1      32.833  20.925 -21.204  0.00  0.00     0.199 A 
ATOM      6  O   UNL d   1      31.863  22.860 -21.091  0.00  0.00    -0.286 OA
ATOM      7  C   UNL d   1      33.241  20.909 -20.487  0.00  0.00     0.042 A 
ATOM      8  O   UNL d   1      32.882  20.296 -21.720  0.00  0.00    -0.286 OA
ENDROOT
BRANCH   3   9
ATOM      9  C   UNL d   1      32.681  22.828 -19.652  0.00  0.00     0.009 C 
BRANCH   9  10
ATOM     10  C   UNL d   1      32.958  22.755 -18.878  0.00  0.00     0.070 C 
BRANCH  10  11
ATOM     11  C   UNL d   1      32.741  23.311 -18.308  0.00  0.00     0.211 C 
ATOM     12  O   UNL d   1      33.241  23.463 -17.676  0.00  0.00    -0.644 OA
ATOM     13  O   UNL d   1      32.038  23.702 -18.373  0.00  0.00    -0.644 OA
ENDBRANCH  10  11
ENDBRANCH   9  10
ENDBRANCH   3   9
TORSDOF 3
ENDMDL
MODEL 8
REMARK VINA RESULT:      -1.7      3.759      5.078
REMARK  3 active torsions:
REMARK  status: ('A' for Active; 'I' for Inactive)
REMARK    1  A    between atoms: C_3  and  C_9 
REMARK    2  A    between atoms: C_6  and  C_4 
REMARK    3  A    between atoms: C_9  and  C_6 
ROOT
ATOM      1  C   UNL d   1      33.218  19.683 -23.441  0.00  0.00     0.199 A 
ATOM      2  C   UNL d   1      33.197  18.948 -23.791  0.00  0.00     0.084 A 
ATOM      3  C   UNL d   1      33.218  19.754 -22.619  0.00  0.00     0.039 A 
ATOM      4  C   UNL d   1      33.197  19.088 -22.159  0.00  0.00     0.006 A 
ATOM      5  C   UNL d   1      33.176  18.277 -23.320  0.00  0.00     0.199 A 
ATOM      6  O   UNL d   1      33.239  20.359 -23.918  0.00  0.00    -0.286 OA
ATOM      7  C   UNL d   1      33.176  18.347 -22.498  0.00  0.00     0.042 A 
ATOM      8  O   UNL d   1      33.155  17.541 -23.670  0.00  0.00    -0.286 OA
ENDROOT
BRANCH   3   9
ATOM      9  C   UNL d   1      33.239  20.501 -22.268  0.00  0.00     0.009 C 
BRANCH   9  10
ATOM     10  C   UNL d   1      32.719  20.683 -21.655  0.00  0.00     0.070 C 
BRANCH  10  11
ATOM     11  C   UNL d   1      32.765  21.417 -21.280  0.00  0.00     0.211 C 
ATOM     12  O   UNL d   1      32.324  22.048 -21.565  0.00  0.00    -0.644 OA
ATOM     13  O   UNL d   1      33.241  21.513 -20.636  0.00  0.00    -0.644 OA
ENDBRANCH  10  11
ENDBRANCH   9  10
ENDBRANCH   3   9
TORSDOF 3
ENDMDL
MODEL 9
REMARK VINA RESULT:      -1.6      1.997      3.954
REMARK  3 active torsions:
REMARK  status: ('A' for Active; 'I' for Inactive)
REMARK    1  A    between atoms: C_3  and  C_9 
REMARK    2  A    between atoms: C_6  and  C_4 
REMARK    3  A    between atoms: C_9  and  C_6 
ROOT
ATOM      1  C   UNL d   1      32.870  18.544 -23.303  0.00  0.00     0.199 A 
ATOM      2  C   UNL d   1      33.056  19.304 -23.531  0.00  0.00     0.084 A 
ATOM      3  C   UNL d   1      32.681  17.973 -23.868  0.00  0.00     0.039 A 
ATOM      4  C   UNL d   1      32.681  18.171 -24.653  0.00  0.00     0.006 A 
ATOM      5  C   UNL d   1      33.055  19.498 -24.328  0.00  0.00     0.199 A 
ATOM      6  O   UNL d   1      32.872  18.350 -22.498  0.00  0.00    -0.286 OA
ATOM      7  C   UNL d   1      32.866  18.927 -24.893  0.00  0.00     0.042 A 
ATOM      8  O   UNL d   1      33.241  20.258 -24.556  0.00  0.00    -0.286 OA
ENDROOT
BRANCH   3   9
ATOM      9  C   UNL d   1      32.493  17.205 -23.632  0.00  0.00     0.009 C 
BRANCH   9  10
ATOM     10  C   UNL d   1      31.845  16.819 -23.965  0.00  0.00     0.070 C 
BRANCH  10  11
ATOM     11  C   UNL d   1      31.541  16.139 -23.608  0.00  0.00     0.211 C 
ATOM     12  O   UNL d   1      30.789  16.153 -23.279  0.00  0.00    -0.644 OA
ATOM     13  O   UNL d   1      31.983  15.465 -23.582  0.00  0.00    -0.644 OA
ENDBRANCH  10  11
ENDBRANCH   9  10
ENDBRANCH   3   9
TORSDOF 3
ENDMDL
