MODEL 1
REMARK VINA RESULT:      55.4      0.000      0.000
REMARK  8 active torsions:
REMARK  status: ('A' for Active; 'I' for Inactive)
REMARK    1  A    between atoms: C_5  and  C_1 
REMARK    2  A    between atoms: N_6  and  C_2 
REMARK    3  A    between atoms: C_7  and  C_5 
REMARK    4  A    between atoms: C_8  and  C_5 
REMARK    5  A    between atoms: O_13  and  C_7 
REMARK    6  A    between atoms: C_21  and  N_12 
REMARK    7  A    between atoms: C_19  and  O_13 
REMARK    8  A    between atoms: C_20  and  C_19 
ROOT
ATOM      1  C   UNL d   1      13.727  13.485  -3.407  0.00  0.00     0.122 A 
ATOM      2  C   UNL d   1      13.798  12.687  -3.220  0.00  0.00     0.166 A 
ATOM      3  N   UNL d   1      13.591  12.127  -3.783  0.00  0.00    -0.225 NA
ATOM      4  N   UNL d   1      13.452  13.719  -4.149  0.00  0.00    -0.241 NA
ATOM      5  C   UNL d   1      13.318  12.349  -4.518  0.00  0.00     0.101 A 
ATOM      6  C   UNL d   1      13.248  13.153  -4.702  0.00  0.00     0.099 A 
ATOM      7  C   UNL d   1      12.975  13.380  -5.438  0.00  0.00     0.021 A 
ATOM      8  C   UNL d   1      13.112  11.781  -5.079  0.00  0.00     0.021 A 
ATOM      9  C   UNL d   1      12.837  12.016  -5.820  0.00  0.00     0.002 A 
ATOM     10  C   UNL d   1      12.769  12.812  -5.999  0.00  0.00     0.002 A 
ENDROOT
BRANCH   1  11
ATOM     11  C   UNL d   1      13.932  14.066  -2.849  0.00  0.00     0.105 C 
BRANCH  11  12
ATOM     12  C   UNL d   1      14.347  14.744  -3.077  0.00  0.00     0.303 C 
ATOM     13  O   UNL d   1      14.545  14.847  -3.865  0.00  0.00    -0.259 OA
BRANCH  12  14
ATOM     14  O   UNL d   1      14.552  15.296  -2.514  0.00  0.00    -0.271 OA
BRANCH  14  15
ATOM     15  C   UNL d   1      14.532  16.072  -2.255  0.00  0.00     0.126 C 
BRANCH  15  16
ATOM     16  C   UNL d   1      15.011  16.313  -1.636  0.00  0.00     0.025 A 
ATOM     17  C   UNL d   1      15.303  15.751  -1.112  0.00  0.00     0.002 A 
ATOM     18  C   UNL d   1      15.787  15.990  -0.486  0.00  0.00     0.000 A 
ATOM     19  C   UNL d   1      15.972  16.786  -0.393  0.00  0.00     0.000 A 
ATOM     20  C   UNL d   1      15.672  17.344  -0.926  0.00  0.00     0.000 A 
ATOM     21  C   UNL d   1      15.196  17.104  -1.542  0.00  0.00     0.002 A 
ENDBRANCH  15  16
ENDBRANCH  14  15
ENDBRANCH  12  14
ENDBRANCH  11  12
BRANCH  11  22
ATOM     22  C   UNL d   1      13.716  13.962  -2.053  0.00  0.00     0.129 C 
ATOM     23  N   UNL d   1      13.300  14.648  -1.541  0.00  0.00    -0.146 N 
ENDBRANCH  11  22
ENDBRANCH   1  11
BRANCH   2  24
ATOM     24  N   UNL d   1      14.072  12.460  -2.481  0.00  0.00    -0.285 N 
ATOM     25  C   UNL d   1      14.852  12.234  -2.384  0.00  0.00     0.101 A 
ATOM     26  C   UNL d   1      15.122  12.007  -1.638  0.00  0.00     0.100 A 
ATOM     27  N   UNL d   1      14.605  12.009  -0.993  0.00  0.00    -0.300 N 
ATOM     28  C   UNL d   1      13.819  12.239  -1.094  0.00  0.00     0.100 A 
ATOM     29  C   UNL d   1      13.555  12.463  -1.835  0.00  0.00     0.101 A 
BRANCH  27  30
ATOM     30  C   UNL d   1      14.880  11.780  -0.242  0.00  0.00     0.080 C 
ATOM     31  C   UNL d   1      15.649  11.984  -0.015  0.00  0.00     0.021 C 
ENDBRANCH  27  30
ENDBRANCH   2  24
TORSDOF 8
ENDMDL
MODEL 2
REMARK VINA RESULT:      57.7      2.614      4.512
REMARK  8 active torsions:
REMARK  status: ('A' for Active; 'I' for Inactive)
REMARK    1  A    between atoms: C_5  and  C_1 
REMARK    2  A    between atoms: N_6  and  C_2 
REMARK    3  A    between atoms: C_7  and  C_5 
REMARK    4  A    between atoms: C_8  and  C_5 
REMARK    5  A    between atoms: O_13  and  C_7 
REMARK    6  A    between atoms: C_21  and  N_12 
REMARK    7  A    between atoms: C_19  and  O_13 
REMARK    8  A    between atoms: C_20  and  C_19 
ROOT
ATOM      1  C   UNL d   1      14.366  15.690  -3.827  0.00  0.00     0.122 A 
ATOM      2  C   UNL d   1      14.142  15.076  -3.327  0.00  0.00     0.166 A 
ATOM      3  N   UNL d   1      14.267  15.154  -2.520  0.00  0.00    -0.225 NA
ATOM      4  N   UNL d   1      14.712  16.374  -3.522  0.00  0.00    -0.241 NA
ATOM      5  C   UNL d   1      14.609  15.827  -2.211  0.00  0.00     0.101 A 
ATOM      6  C   UNL d   1      14.833  16.441  -2.716  0.00  0.00     0.099 A 
ATOM      7  C   UNL d   1      15.176  17.117  -2.410  0.00  0.00     0.021 A 
ATOM      8  C   UNL d   1      14.732  15.899  -1.398  0.00  0.00     0.021 A 
ATOM      9  C   UNL d   1      15.079  16.583  -1.094  0.00  0.00     0.002 A 
ATOM     10  C   UNL d   1      15.299  17.189  -1.598  0.00  0.00     0.002 A 
ENDROOT
BRANCH   1  11
ATOM     11  C   UNL d   1      14.246  15.627  -4.647  0.00  0.00     0.105 C 
BRANCH  11  12
ATOM     12  C   UNL d   1      13.736  16.145  -5.041  0.00  0.00     0.303 C 
ATOM     13  O   UNL d   1      12.945  15.948  -5.119  0.00  0.00    -0.259 OA
BRANCH  12  14
ATOM     14  O   UNL d   1      14.029  16.842  -5.345  0.00  0.00    -0.271 OA
BRANCH  14  15
ATOM     15  C   UNL d   1      14.230  17.291  -5.999  0.00  0.00     0.126 C 
BRANCH  15  16
ATOM     16  C   UNL d   1      13.983  18.070  -6.057  0.00  0.00     0.025 A 
ATOM     17  C   UNL d   1      13.222  18.231  -6.323  0.00  0.00     0.002 A 
ATOM     18  C   UNL d   1      12.969  19.016  -6.382  0.00  0.00     0.000 A 
ATOM     19  C   UNL d   1      13.479  19.627  -6.176  0.00  0.00     0.000 A 
ATOM     20  C   UNL d   1      14.244  19.453  -5.909  0.00  0.00     0.000 A 
ATOM     21  C   UNL d   1      14.490  18.678  -5.852  0.00  0.00     0.002 A 
ENDBRANCH  15  16
ENDBRANCH  14  15
ENDBRANCH  12  14
ENDBRANCH  11  12
BRANCH  11  22
ATOM     22  C   UNL d   1      14.645  15.036  -5.074  0.00  0.00     0.129 C 
ATOM     23  N   UNL d   1      15.195  15.230  -5.827  0.00  0.00    -0.146 N 
ENDBRANCH  11  22
ENDBRANCH   1  11
BRANCH   2  24
ATOM     24  N   UNL d   1      13.798  14.398  -3.636  0.00  0.00    -0.285 N 
ATOM     25  C   UNL d   1      13.146  14.456  -4.128  0.00  0.00     0.101 A 
ATOM     26  C   UNL d   1      12.805  13.771  -4.435  0.00  0.00     0.100 A 
ATOM     27  N   UNL d   1      13.122  13.030  -4.247  0.00  0.00    -0.300 N 
ATOM     28  C   UNL d   1      13.779  12.976  -3.751  0.00  0.00     0.100 A 
ATOM     29  C   UNL d   1      14.114  13.658  -3.448  0.00  0.00     0.101 A 
BRANCH  27  30
ATOM     30  C   UNL d   1      12.775  12.342  -4.559  0.00  0.00     0.080 C 
ATOM     31  C   UNL d   1      12.849  12.183  -5.367  0.00  0.00     0.021 C 
ENDBRANCH  27  30
ENDBRANCH   2  24
TORSDOF 8
ENDMDL
