MODEL 1
REMARK VINA RESULT:      20.5      0.000      0.000
REMARK  2 active torsions:
REMARK  status: ('A' for Active; 'I' for Inactive)
REMARK    1  A    between atoms: C_6  and  N_1 
REMARK    2  A    between atoms: C_7  and  C_6 
ROOT
ATOM      1  N   UNL d   1     -57.850 -98.777 -44.414  0.00  0.00    -0.236 N 
ATOM      2  C   UNL d   1     -57.354 -98.773 -45.057  0.00  0.00     0.267 A 
ATOM      3  C   UNL d   1     -57.405 -98.780 -43.739  0.00  0.00     0.267 A 
ATOM      4  C   UNL d   1     -56.585 -98.773 -44.780  0.00  0.00     0.061 A 
ATOM      5  C   UNL d   1     -56.617 -98.777 -43.956  0.00  0.00     0.061 A 
ATOM      6  O   UNL d   1     -57.579 -98.769 -45.866  0.00  0.00    -0.267 OA
ATOM      7  O   UNL d   1     -57.692 -98.785 -42.946  0.00  0.00    -0.267 OA
ATOM      8  C   UNL d   1     -55.915 -98.778 -43.523  0.00  0.00     0.005 A 
ATOM      9  C   UNL d   1     -55.852 -98.769 -45.158  0.00  0.00     0.005 A 
ATOM     10  C   UNL d   1     -55.146 -98.770 -44.724  0.00  0.00     0.000 A 
ATOM     11  C   UNL d   1     -55.178 -98.774 -43.901  0.00  0.00     0.000 A 
ENDROOT
BRANCH   1  12
ATOM     12  C   UNL d   1     -58.681 -98.779 -44.471  0.00  0.00     0.134 C 
ATOM     13  C   UNL d   1     -59.068 -98.776 -45.184  0.00  0.00     0.026 C 
BRANCH  12  14
ATOM     14  C   UNL d   1     -59.123 -98.784 -43.761  0.00  0.00     0.228 C 
ATOM     15  O   UNL d   1     -59.958 -98.806 -43.793  0.00  0.00    -0.643 OA
ATOM     16  O   UNL d   1     -58.737 -98.767 -43.027  0.00  0.00    -0.643 OA
ENDBRANCH  12  14
ENDBRANCH   1  12
TORSDOF 2
ENDMDL
