MODEL 1
REMARK VINA RESULT:      54.5      0.000      0.000
REMARK  3 active torsions:
REMARK  status: ('A' for Active; 'I' for Inactive)
REMARK    1  A    between atoms: C_8  and  C_1 
REMARK    2  A    between atoms: O_13  and  C_6 
REMARK    3  A    between atoms: C_17  and  O_13 
ROOT
ATOM      1  C   UNL d   1     -58.455 -98.792 -44.108  0.00  0.00     0.009 A 
ATOM      2  C   UNL d   1     -57.662 -98.784 -43.867  0.00  0.00     0.046 A 
ATOM      3  C   UNL d   1     -57.480 -98.787 -43.059  0.00  0.00     0.105 A 
ATOM      4  O   UNL d   1     -58.084 -98.798 -42.500  0.00  0.00    -0.273 OA
ATOM      5  C   UNL d   1     -59.060 -98.804 -43.552  0.00  0.00     0.069 A 
ATOM      6  C   UNL d   1     -57.057 -98.772 -44.423  0.00  0.00     0.102 A 
ATOM      7  C   UNL d   1     -58.878 -98.807 -42.747  0.00  0.00     0.300 A 
ATOM      8  C   UNL d   1     -56.694 -98.778 -42.814  0.00  0.00     0.025 A 
ATOM      9  C   UNL d   1     -56.269 -98.763 -44.182  0.00  0.00     0.025 A 
ATOM     10  O   UNL d   1     -59.486 -98.819 -42.183  0.00  0.00    -0.259 OA
ATOM     11  C   UNL d   1     -56.087 -98.766 -43.377  0.00  0.00     0.004 A 
ATOM     12  C   UNL d   1     -55.304 -98.757 -43.128  0.00  0.00     0.000 C 
ENDROOT
BRANCH   1  13
ATOM     13  C   UNL d   1     -58.637 -98.790 -44.916  0.00  0.00     0.000 A 
ATOM     14  C   UNL d   1     -59.430 -98.758 -45.160  0.00  0.00     0.000 A 
ATOM     15  C   UNL d   1     -59.614 -98.755 -45.977  0.00  0.00     0.000 A 
ATOM     16  C   UNL d   1     -59.011 -98.783 -46.536  0.00  0.00     0.000 A 
ATOM     17  C   UNL d   1     -58.215 -98.815 -46.280  0.00  0.00     0.000 A 
ATOM     18  C   UNL d   1     -58.033 -98.818 -45.475  0.00  0.00     0.000 A 
ENDBRANCH   1  13
BRANCH   6  19
ATOM     19  O   UNL d   1     -57.240 -98.769 -45.232  0.00  0.00    -0.305 OA
BRANCH  19  20
ATOM     20  C   UNL d   1     -56.855 -99.275 -45.743  0.00  0.00     0.123 C 
ATOM     21  C   UNL d   1     -56.078 -99.119 -45.962  0.00  0.00     0.029 C 
ENDBRANCH  19  20
ENDBRANCH   6  19
TORSDOF 3
ENDMDL
MODEL 2
REMARK VINA RESULT:      57.1      0.999      2.970
REMARK  3 active torsions:
REMARK  status: ('A' for Active; 'I' for Inactive)
REMARK    1  A    between atoms: C_8  and  C_1 
REMARK    2  A    between atoms: O_13  and  C_6 
REMARK    3  A    between atoms: C_17  and  O_13 
ROOT
ATOM      1  C   UNL d   1     -57.728 -99.118 -43.724  0.00  0.00     0.009 A 
ATOM      2  C   UNL d   1     -57.757 -99.028 -44.546  0.00  0.00     0.046 A 
ATOM      3  C   UNL d   1     -57.064 -99.117 -44.993  0.00  0.00     0.105 A 
ATOM      4  O   UNL d   1     -56.354 -99.295 -44.619  0.00  0.00    -0.273 OA
ATOM      5  C   UNL d   1     -57.020 -99.296 -43.348  0.00  0.00     0.069 A 
ATOM      6  C   UNL d   1     -58.466 -98.850 -44.923  0.00  0.00     0.102 A 
ATOM      7  C   UNL d   1     -56.330 -99.386 -43.792  0.00  0.00     0.300 A 
ATOM      8  C   UNL d   1     -57.087 -99.028 -45.811  0.00  0.00     0.025 A 
ATOM      9  C   UNL d   1     -58.493 -98.760 -45.742  0.00  0.00     0.025 A 
ATOM     10  O   UNL d   1     -55.613 -99.565 -43.416  0.00  0.00    -0.259 OA
ATOM     11  C   UNL d   1     -57.803 -98.849 -46.186  0.00  0.00     0.004 A 
ATOM     12  C   UNL d   1     -57.821 -98.761 -47.003  0.00  0.00     0.000 C 
ENDROOT
BRANCH   1  13
ATOM     13  C   UNL d   1     -58.421 -99.029 -43.277  0.00  0.00     0.000 A 
ATOM     14  C   UNL d   1     -58.370 -98.885 -42.462  0.00  0.00     0.000 A 
ATOM     15  C   UNL d   1     -59.070 -98.794 -42.011  0.00  0.00     0.000 A 
ATOM     16  C   UNL d   1     -59.806 -98.848 -42.376  0.00  0.00     0.000 A 
ATOM     17  C   UNL d   1     -59.846 -98.993 -43.199  0.00  0.00     0.000 A 
ATOM     18  C   UNL d   1     -59.157 -99.082 -43.643  0.00  0.00     0.000 A 
ENDBRANCH   1  13
BRANCH   6  19
ATOM     19  O   UNL d   1     -59.159 -98.760 -44.476  0.00  0.00    -0.305 OA
BRANCH  19  20
ATOM     20  C   UNL d   1     -59.889 -98.862 -44.824  0.00  0.00     0.123 C 
ATOM     21  C   UNL d   1     -59.955 -98.844 -45.644  0.00  0.00     0.029 C 
ENDBRANCH  19  20
ENDBRANCH   6  19
TORSDOF 3
ENDMDL
