MODEL 1
REMARK VINA RESULT:      20.9      0.000      0.000
REMARK  4 active torsions:
REMARK  status: ('A' for Active; 'I' for Inactive)
REMARK    1  A    between atoms: C_12  and  C_2 
REMARK       I    between atoms: C_3  and  N_8 
REMARK    2  A    between atoms: C_5  and  C_3 
REMARK    3  A    between atoms: C_9  and  C_4 
REMARK    4  A    between atoms: N_8  and  C_13 
ROOT
ATOM      1  C   UNL d   1      45.587 -16.747  44.690  0.00  0.00     0.018 A 
ATOM      2  C   UNL d   1      46.061 -18.326  44.699  0.00  0.00     0.085 A 
ATOM      3  C   UNL d   1      45.053 -17.338  44.901  0.00  0.00     0.003 A 
ATOM      4  C   UNL d   1      46.368 -16.941  44.480  0.00  0.00     0.003 A 
ATOM      5  C   UNL d   1      46.602 -17.740  44.487  0.00  0.00     0.019 A 
ATOM      6  C   UNL d   1      45.286 -18.123  44.906  0.00  0.00     0.019 A 
ENDROOT
BRANCH   1   7
ATOM      7  C   UNL d   1      45.348 -15.949  44.684  0.00  0.00     0.088 A 
ATOM      8  N   UNL d   1      45.790 -15.311  44.423  0.00  0.00    -0.239 NA
ATOM      9  C   UNL d   1      45.344 -14.630  44.517  0.00  0.00     0.111 A 
ATOM     10  S   UNL d   1      44.615 -14.846  44.841  0.00  0.00    -0.066 SA
ATOM     11  C   UNL d   1      44.621 -15.659  44.943  0.00  0.00     0.056 A 
BRANCH   9  12
ATOM     12  C   UNL d   1      45.578 -13.859  44.323  0.00  0.00     0.024 A 
ATOM     13  C   UNL d   1      46.098 -13.449  44.816  0.00  0.00     0.002 A 
ATOM     14  C   UNL d   1      46.330 -12.673  44.615  0.00  0.00     0.000 A 
ATOM     15  C   UNL d   1      46.041 -12.319  43.928  0.00  0.00     0.000 A 
ATOM     16  C   UNL d   1      45.516 -12.735  43.430  0.00  0.00     0.000 A 
ATOM     17  C   UNL d   1      45.287 -13.500  43.628  0.00  0.00     0.002 A 
ENDBRANCH   9  12
ENDBRANCH   1   7
BRANCH   2  18
ATOM     18  N   UNL d   1      46.297 -19.122  44.705  0.00  0.00    -0.208 NA
ATOM     19  C   UNL d   1      46.398 -19.528  43.995  0.00  0.00     0.280 C 
ATOM     20  O   UNL d   1      46.634 -20.324  43.999  0.00  0.00    -0.265 OA
BRANCH  19  21
ATOM     21  C   UNL d   1      46.264 -19.143  43.266  0.00  0.00     0.069 A 
ATOM     22  C   UNL d   1      45.762 -19.487  42.719  0.00  0.00     0.062 A 
ATOM     23 CL   UNL d   1      45.390 -20.205  42.881  0.00  0.00    -0.082 Cl
ATOM     24  C   UNL d   1      45.630 -19.108  42.001  0.00  0.00     0.012 A 
ATOM     25  C   UNL d   1      45.998 -18.395  41.835  0.00  0.00     0.001 A 
ATOM     26  C   UNL d   1      46.500 -18.057  42.388  0.00  0.00     0.000 A 
ATOM     27  C   UNL d   1      46.636 -18.431  43.110  0.00  0.00     0.006 A 
ENDBRANCH  19  21
ENDBRANCH   2  18
TORSDOF 4
ENDMDL
