MODEL 1
REMARK VINA RESULT:      67.6      0.000      0.000
REMARK  3 active torsions:
REMARK  status: ('A' for Active; 'I' for Inactive)
REMARK    1  A    between atoms: C_10  and  C_4 
REMARK    2  A    between atoms: C_11  and  C_6 
REMARK    3  A    between atoms: C_12  and  C_9 
ROOT
ATOM      1  N   UNL d   1      57.757  49.463  51.811  0.00  0.00    -0.212 N 
ATOM      2  C   UNL d   1      58.400  49.435  52.341  0.00  0.00     0.166 A 
ATOM      3  N   UNL d   1      57.059  49.412  52.247  0.00  0.00    -0.158 NA
ATOM      4  C   UNL d   1      57.272  49.352  53.052  0.00  0.00     0.169 A 
ATOM      5  C   UNL d   1      58.088  49.367  53.095  0.00  0.00     0.066 A 
ATOM      6  C   UNL d   1      57.900  49.531  50.999  0.00  0.00     0.086 A 
ATOM      7  N   UNL d   1      59.180  49.476  52.055  0.00  0.00    -0.227 NA
ATOM      8  C   UNL d   1      58.676  49.573  50.703  0.00  0.00     0.038 A 
ATOM      9  C   UNL d   1      59.318  49.545  51.233  0.00  0.00     0.085 A 
ENDROOT
BRANCH   6  10
ATOM     10  C   UNL d   1      57.388  49.572  50.346  0.00  0.00     0.018 A 
ATOM     11  C   UNL d   1      57.705  49.637  49.590  0.00  0.00     0.002 A 
ATOM     12  C   UNL d   1      57.238  49.675  48.978  0.00  0.00     0.000 A 
ATOM     13  C   UNL d   1      56.388  49.652  49.068  0.00  0.00     0.000 A 
ATOM     14  C   UNL d   1      56.056  49.589  49.795  0.00  0.00     0.000 A 
ATOM     15  C   UNL d   1      56.566  49.549  50.443  0.00  0.00     0.002 A 
ENDBRANCH   6  10
BRANCH   9  16
ATOM     16  C   UNL d   1      60.085  49.584  50.965  0.00  0.00     0.018 A 
ATOM     17  C   UNL d   1      60.717  49.545  51.485  0.00  0.00     0.002 A 
ATOM     18  C   UNL d   1      61.472  49.586  51.201  0.00  0.00     0.000 A 
ATOM     19  C   UNL d   1      61.638  49.667  50.375  0.00  0.00     0.000 A 
ATOM     20  C   UNL d   1      61.005  49.706  49.855  0.00  0.00     0.000 A 
ATOM     21  C   UNL d   1      60.222  49.665  50.143  0.00  0.00     0.002 A 
ENDBRANCH   9  16
BRANCH   4  22
ATOM     22  C   UNL d   1      56.751  49.290  53.681  0.00  0.00     0.231 C 
ATOM     23  O   UNL d   1      56.951  48.814  54.322  0.00  0.00    -0.643 OA
ATOM     24  O   UNL d   1      56.037  49.707  53.652  0.00  0.00    -0.643 OA
ENDBRANCH   4  22
TORSDOF 3
ENDMDL
