MODEL 1
REMARK VINA RESULT:      30.6      0.000      0.000
REMARK  7 active torsions:
REMARK  status: ('A' for Active; 'I' for Inactive)
REMARK    1  A    between atoms: O_9  and  N_1 
REMARK    2  A    between atoms: C_8  and  O_11 
REMARK    3  A    between atoms: C_15  and  O_9 
REMARK    4  A    between atoms: O_11  and  C_16 
REMARK    5  A    between atoms: C_18  and  C_15 
REMARK    6  A    between atoms: C_16  and  C_17 
REMARK    7  A    between atoms: C_17  and  C_18 
ROOT
ATOM      1  N   UNL d   1      58.769  49.680  50.370  0.00  0.00    -0.139 N 
ATOM      2  C   UNL d   1      58.175  49.695  50.954  0.00  0.00     0.287 A 
ATOM      3  C   UNL d   1      58.399  49.671  49.627  0.00  0.00     0.287 A 
ATOM      4  C   UNL d   1      57.442  49.695  50.568  0.00  0.00     0.063 A 
ATOM      5  C   UNL d   1      57.580  49.680  49.751  0.00  0.00     0.063 A 
ATOM      6  O   UNL d   1      58.742  49.656  48.875  0.00  0.00    -0.265 OA
ATOM      7  O   UNL d   1      58.254  49.708  51.769  0.00  0.00    -0.265 OA
ATOM      8  C   UNL d   1      56.942  49.676  49.225  0.00  0.00     0.005 A 
ATOM      9  C   UNL d   1      56.668  49.706  50.856  0.00  0.00     0.005 A 
ATOM     10  C   UNL d   1      56.172  49.688  49.514  0.00  0.00     0.000 A 
ATOM     11  C   UNL d   1      56.034  49.702  50.330  0.00  0.00     0.000 A 
ENDROOT
BRANCH   1  12
ATOM     12  O   UNL d   1      59.581  49.676  50.507  0.00  0.00    -0.221 OA
BRANCH  12  13
ATOM     13  C   UNL d   1      60.229  49.399  50.941  0.00  0.00     0.148 C 
BRANCH  13  14
ATOM     14  C   UNL d   1      60.733  48.842  50.603  0.00  0.00     0.031 C 
BRANCH  14  15
ATOM     15  C   UNL d   1      61.117  48.294  51.083  0.00  0.00     0.029 C 
BRANCH  15  16
ATOM     16  C   UNL d   1      61.169  47.508  50.845  0.00  0.00     0.126 C 
BRANCH  16  17
ATOM     17  O   UNL d   1      61.690  47.300  50.239  0.00  0.00    -0.271 OA
BRANCH  17  18
ATOM     18  C   UNL d   1      61.738  46.515  49.997  0.00  0.00     0.300 C 
ATOM     19  O   UNL d   1      61.412  45.918  50.464  0.00  0.00    -0.259 OA
ATOM     20  C   UNL d   1      62.113  46.327  49.289  0.00  0.00     0.074 C 
ENDBRANCH  17  18
ENDBRANCH  16  17
ENDBRANCH  15  16
ENDBRANCH  14  15
ENDBRANCH  13  14
ENDBRANCH  12  13
ENDBRANCH   1  12
TORSDOF 7
ENDMDL
