MODEL 1
REMARK VINA RESULT:      -8.1      0.000      0.000
REMARK  3 active torsions:
REMARK  status: ('A' for Active; 'I' for Inactive)
REMARK    1  A    between atoms: C_2  and  S_1 
REMARK    2  A    between atoms: N_3  and  S_1 
REMARK    3  A    between atoms: O_17  and  C_7 
ROOT
ATOM      1  S   UNL d   1      52.369  33.389  53.339  0.00  0.00     0.273 S 
ATOM      2  O   UNL d   1      52.787  33.534  52.626  0.00  0.00    -0.200 OA
ATOM      3  O   UNL d   1      51.960  33.243  54.049  0.00  0.00    -0.200 OA
ENDROOT
BRANCH   1   4
ATOM      4  C   UNL d   1      53.073  33.066  53.686  0.00  0.00     0.127 A 
ATOM      5  C   UNL d   1      53.543  33.552  54.145  0.00  0.00     0.026 A 
ATOM      6  C   UNL d   1      54.233  33.258  54.492  0.00  0.00     0.059 A 
ATOM      7 CL   UNL d   1      54.708  33.757  54.959  0.00  0.00    -0.082 Cl
ATOM      8  C   UNL d   1      54.456  32.460  54.376  0.00  0.00     0.013 A 
ATOM      9  C   UNL d   1      53.961  31.972  53.900  0.00  0.00     0.026 A 
ATOM     10  C   UNL d   1      53.276  32.280  53.560  0.00  0.00     0.106 A 
BRANCH  10  11
ATOM     11  O   UNL d   1      52.801  31.780  53.094  0.00  0.00    -0.327 OA
ATOM     12  C   UNL d   1      52.995  30.980  53.019  0.00  0.00     0.181 C 
ENDBRANCH  10  11
ENDBRANCH   1   4
BRANCH   1  13
ATOM     13  N   UNL d   1      51.679  33.701  53.012  0.00  0.00    -0.226 N 
ATOM     14  C   UNL d   1      50.963  33.666  53.410  0.00  0.00     0.111 A 
ATOM     15  C   UNL d   1      50.273  33.978  53.082  0.00  0.00     0.100 A 
ATOM     16  N   UNL d   1      50.295  34.335  52.340  0.00  0.00    -0.299 N 
ATOM     17  C   UNL d   1      51.012  34.372  51.938  0.00  0.00     0.100 A 
ATOM     18  C   UNL d   1      49.766  34.560  52.117  0.00  0.00     0.100 C 
ATOM     19  C   UNL d   1      51.699  34.059  52.268  0.00  0.00     0.111 A 
ENDBRANCH   1  13
TORSDOF 3
ENDMDL
MODEL 2
REMARK VINA RESULT:      -7.7      1.798      3.115
REMARK  3 active torsions:
REMARK  status: ('A' for Active; 'I' for Inactive)
REMARK    1  A    between atoms: C_2  and  S_1 
REMARK    2  A    between atoms: N_3  and  S_1 
REMARK    3  A    between atoms: O_17  and  C_7 
ROOT
ATOM      1  S   UNL d   1      53.592  32.235  53.998  0.00  0.00     0.273 S 
ATOM      2  O   UNL d   1      53.855  32.484  53.240  0.00  0.00    -0.200 OA
ATOM      3  O   UNL d   1      53.332  31.994  54.751  0.00  0.00    -0.200 OA
ENDROOT
BRANCH   1   4
ATOM      4  C   UNL d   1      53.809  32.990  54.321  0.00  0.00     0.127 A 
ATOM      5  C   UNL d   1      54.555  33.079  54.640  0.00  0.00     0.026 A 
ATOM      6  C   UNL d   1      54.787  33.805  54.960  0.00  0.00     0.059 A 
ATOM      7 CL   UNL d   1      55.549  33.891  55.285  0.00  0.00    -0.082 Cl
ATOM      8  C   UNL d   1      54.259  34.454  54.959  0.00  0.00     0.013 A 
ATOM      9  C   UNL d   1      53.494  34.345  54.626  0.00  0.00     0.026 A 
ATOM     10  C   UNL d   1      53.276  33.615  54.310  0.00  0.00     0.106 A 
BRANCH  10  11
ATOM     11  O   UNL d   1      52.515  33.529  53.986  0.00  0.00    -0.327 OA
ATOM     12  C   UNL d   1      52.017  34.186  53.926  0.00  0.00     0.181 C 
ENDBRANCH  10  11
ENDBRANCH   1   4
BRANCH   1  13
ATOM     13  N   UNL d   1      53.377  31.499  53.694  0.00  0.00    -0.226 N 
ATOM     14  C   UNL d   1      52.978  31.429  52.981  0.00  0.00     0.111 A 
ATOM     15  C   UNL d   1      52.764  30.693  52.678  0.00  0.00     0.100 A 
ATOM     16  N   UNL d   1      52.951  30.006  53.094  0.00  0.00    -0.299 N 
ATOM     17  C   UNL d   1      53.352  30.072  53.809  0.00  0.00     0.100 A 
ATOM     18  C   UNL d   1      52.780  29.469  52.846  0.00  0.00     0.100 C 
ATOM     19  C   UNL d   1      53.565  30.809  54.110  0.00  0.00     0.111 A 
ENDBRANCH   1  13
TORSDOF 3
ENDMDL
MODEL 3
REMARK VINA RESULT:      -7.4      1.851      3.505
REMARK  3 active torsions:
REMARK  status: ('A' for Active; 'I' for Inactive)
REMARK    1  A    between atoms: C_2  and  S_1 
REMARK    2  A    between atoms: N_3  and  S_1 
REMARK    3  A    between atoms: O_17  and  C_7 
ROOT
ATOM      1  S   UNL d   1      52.666  32.408  53.232  0.00  0.00     0.273 S 
ATOM      2  O   UNL d   1      53.390  32.570  52.839  0.00  0.00    -0.200 OA
ATOM      3  O   UNL d   1      51.946  32.254  53.620  0.00  0.00    -0.200 OA
ENDROOT
BRANCH   1   4
ATOM      4  C   UNL d   1      52.435  33.220  53.139  0.00  0.00     0.127 A 
ATOM      5  C   UNL d   1      51.966  33.423  52.502  0.00  0.00     0.026 A 
ATOM      6  C   UNL d   1      51.729  34.208  52.393  0.00  0.00     0.059 A 
ATOM      7 CL   UNL d   1      51.251  34.410  51.742  0.00  0.00    -0.082 Cl
ATOM      8  C   UNL d   1      51.968  34.799  52.934  0.00  0.00     0.013 A 
ATOM      9  C   UNL d   1      52.451  34.572  53.585  0.00  0.00     0.026 A 
ATOM     10  C   UNL d   1      52.679  33.786  53.681  0.00  0.00     0.106 A 
BRANCH  10  11
ATOM     11  O   UNL d   1      53.157  33.584  54.332  0.00  0.00    -0.327 OA
ATOM     12  C   UNL d   1      53.393  34.169  54.867  0.00  0.00     0.181 C 
ENDBRANCH  10  11
ENDBRANCH   1   4
BRANCH   1  13
ATOM     13  N   UNL d   1      52.881  31.617  53.327  0.00  0.00    -0.226 N 
ATOM     14  C   UNL d   1      53.620  31.406  53.612  0.00  0.00     0.111 A 
ATOM     15  C   UNL d   1      53.835  30.615  53.707  0.00  0.00     0.100 A 
ATOM     16  N   UNL d   1      53.301  30.018  53.514  0.00  0.00    -0.299 N 
ATOM     17  C   UNL d   1      52.558  30.226  53.229  0.00  0.00     0.100 A 
ATOM     18  C   UNL d   1      53.486  29.436  53.595  0.00  0.00     0.100 C 
ATOM     19  C   UNL d   1      52.347  31.017  53.135  0.00  0.00     0.111 A 
ENDBRANCH   1  13
TORSDOF 3
ENDMDL
MODEL 4
REMARK VINA RESULT:      -7.4      2.254      3.658
REMARK  3 active torsions:
REMARK  status: ('A' for Active; 'I' for Inactive)
REMARK    1  A    between atoms: C_2  and  S_1 
REMARK    2  A    between atoms: N_3  and  S_1 
REMARK    3  A    between atoms: O_17  and  C_7 
ROOT
ATOM      1  S   UNL d   1      53.892  32.052  54.032  0.00  0.00     0.273 S 
ATOM      2  O   UNL d   1      54.388  32.087  53.355  0.00  0.00    -0.200 OA
ATOM      3  O   UNL d   1      53.396  32.013  54.699  0.00  0.00    -0.200 OA
ENDROOT
BRANCH   1   4
ATOM      4  C   UNL d   1      53.439  31.434  53.667  0.00  0.00     0.127 A 
ATOM      5  C   UNL d   1      53.634  30.657  53.829  0.00  0.00     0.026 A 
ATOM      6  C   UNL d   1      53.205  30.040  53.485  0.00  0.00     0.059 A 
ATOM      7 CL   UNL d   1      53.408  29.251  53.653  0.00  0.00    -0.082 Cl
ATOM      8  C   UNL d   1      52.570  30.206  52.968  0.00  0.00     0.013 A 
ATOM      9  C   UNL d   1      52.381  31.011  52.811  0.00  0.00     0.026 A 
ATOM     10  C   UNL d   1      52.817  31.617  53.162  0.00  0.00     0.106 A 
BRANCH  10  11
ATOM     11  O   UNL d   1      52.615  32.406  52.993  0.00  0.00    -0.327 OA
ATOM     12  C   UNL d   1      51.913  32.573  52.588  0.00  0.00     0.181 C 
ENDBRANCH  10  11
ENDBRANCH   1   4
BRANCH   1  13
ATOM     13  N   UNL d   1      54.325  32.653  54.395  0.00  0.00    -0.226 N 
ATOM     14  C   UNL d   1      54.915  33.057  53.995  0.00  0.00     0.111 A 
ATOM     15  C   UNL d   1      55.349  33.658  54.358  0.00  0.00     0.100 A 
ATOM     16  N   UNL d   1      55.192  33.861  55.141  0.00  0.00    -0.299 N 
ATOM     17  C   UNL d   1      54.601  33.458  55.547  0.00  0.00     0.100 A 
ATOM     18  C   UNL d   1      55.530  34.313  55.390  0.00  0.00     0.100 C 
ATOM     19  C   UNL d   1      54.170  32.858  55.180  0.00  0.00     0.111 A 
ENDBRANCH   1  13
TORSDOF 3
ENDMDL
MODEL 5
REMARK VINA RESULT:      -6.1      1.771      3.453
REMARK  3 active torsions:
REMARK  status: ('A' for Active; 'I' for Inactive)
REMARK    1  A    between atoms: C_2  and  S_1 
REMARK    2  A    between atoms: N_3  and  S_1 
REMARK    3  A    between atoms: O_17  and  C_7 
ROOT
ATOM      1  S   UNL d   1      52.991  33.494  53.811  0.00  0.00     0.273 S 
ATOM      2  O   UNL d   1      53.369  33.653  53.079  0.00  0.00    -0.200 OA
ATOM      3  O   UNL d   1      52.610  33.335  54.535  0.00  0.00    -0.200 OA
ENDROOT
BRANCH   1   4
ATOM      4  C   UNL d   1      52.249  33.405  53.409  0.00  0.00     0.127 A 
ATOM      5  C   UNL d   1      51.774  34.063  53.313  0.00  0.00     0.026 A 
ATOM      6  C   UNL d   1      51.047  34.000  52.924  0.00  0.00     0.059 A 
ATOM      7 CL   UNL d   1      50.568  34.673  52.829  0.00  0.00    -0.082 Cl
ATOM      8  C   UNL d   1      50.793  33.261  52.625  0.00  0.00     0.013 A 
ATOM      9  C   UNL d   1      51.294  32.593  52.733  0.00  0.00     0.026 A 
ATOM     10  C   UNL d   1      52.016  32.672  53.123  0.00  0.00     0.106 A 
BRANCH  10  11
ATOM     11  O   UNL d   1      52.495  31.998  53.218  0.00  0.00    -0.327 OA
ATOM     12  C   UNL d   1      52.246  31.270  52.916  0.00  0.00     0.181 C 
ENDBRANCH  10  11
ENDBRANCH   1   4
BRANCH   1  13
ATOM     13  N   UNL d   1      53.707  33.577  54.213  0.00  0.00    -0.226 N 
ATOM     14  C   UNL d   1      54.420  33.379  53.861  0.00  0.00     0.111 A 
ATOM     15  C   UNL d   1      55.136  33.463  54.262  0.00  0.00     0.100 A 
ATOM     16  N   UNL d   1      55.143  33.752  55.034  0.00  0.00    -0.299 N 
ATOM     17  C   UNL d   1      54.430  33.951  55.391  0.00  0.00     0.100 A 
ATOM     18  C   UNL d   1      55.691  33.805  55.312  0.00  0.00     0.100 C 
ATOM     19  C   UNL d   1      53.716  33.866  54.987  0.00  0.00     0.111 A 
ENDBRANCH   1  13
TORSDOF 3
ENDMDL
MODEL 6
REMARK VINA RESULT:      -5.5      1.972      2.504
REMARK  3 active torsions:
REMARK  status: ('A' for Active; 'I' for Inactive)
REMARK    1  A    between atoms: C_2  and  S_1 
REMARK    2  A    between atoms: N_3  and  S_1 
REMARK    3  A    between atoms: O_17  and  C_7 
ROOT
ATOM      1  S   UNL d   1      53.203  33.151  53.798  0.00  0.00     0.273 S 
ATOM      2  O   UNL d   1      53.026  33.362  53.005  0.00  0.00    -0.200 OA
ATOM      3  O   UNL d   1      53.379  32.936  54.583  0.00  0.00    -0.200 OA
ENDROOT
BRANCH   1   4
ATOM      4  C   UNL d   1      53.348  32.351  53.553  0.00  0.00     0.127 A 
ATOM      5  C   UNL d   1      52.715  31.837  53.502  0.00  0.00     0.026 A 
ATOM      6  C   UNL d   1      52.834  31.053  53.266  0.00  0.00     0.059 A 
ATOM      7 CL   UNL d   1      52.186  30.533  53.215  0.00  0.00    -0.082 Cl
ATOM      8  C   UNL d   1      53.602  30.782  53.077  0.00  0.00     0.013 A 
ATOM      9  C   UNL d   1      54.243  31.325  53.135  0.00  0.00     0.026 A 
ATOM     10  C   UNL d   1      54.109  32.104  53.372  0.00  0.00     0.106 A 
BRANCH  10  11
ATOM     11  O   UNL d   1      54.757  32.624  53.423  0.00  0.00    -0.327 OA
ATOM     12  C   UNL d   1      55.485  32.408  53.096  0.00  0.00     0.181 C 
ENDBRANCH  10  11
ENDBRANCH   1   4
BRANCH   1  13
ATOM     13  N   UNL d   1      53.064  33.925  54.047  0.00  0.00    -0.226 N 
ATOM     14  C   UNL d   1      53.259  34.173  54.804  0.00  0.00     0.111 A 
ATOM     15  C   UNL d   1      53.120  34.948  55.052  0.00  0.00     0.100 A 
ATOM     16  N   UNL d   1      52.779  35.491  54.534  0.00  0.00    -0.299 N 
ATOM     17  C   UNL d   1      52.583  35.246  53.774  0.00  0.00     0.100 A 
ATOM     18  C   UNL d   1      52.686  36.063  54.744  0.00  0.00     0.100 C 
ATOM     19  C   UNL d   1      52.723  34.471  53.529  0.00  0.00     0.111 A 
ENDBRANCH   1  13
TORSDOF 3
ENDMDL
