MODEL 1
REMARK VINA RESULT:      -5.1      0.000      0.000
REMARK  9 active torsions:
REMARK  status: ('A' for Active; 'I' for Inactive)
REMARK    1  A    between atoms: N_7  and  N_1 
REMARK    2  A    between atoms: S_9  and  C_2 
REMARK       I    between atoms: C_8  and  N_7 
REMARK    3  A    between atoms: C_15  and  C_8 
REMARK    4  A    between atoms: C_14  and  S_9 
REMARK    5  A    between atoms: C_11  and  C_14 
REMARK       I    between atoms: N_16  and  C_11 
REMARK    6  A    between atoms: C_18  and  C_15 
REMARK    7  A    between atoms: C_19  and  N_16 
REMARK    8  A    between atoms: C_22  and  C_19 
REMARK    9  A    between atoms: C_21  and  C_22 
ROOT
ATOM      1  N   UNL d   1     -40.615  14.819  20.447  0.00  0.00    -0.168 N 
ATOM      2  C   UNL d   1     -41.151  14.240  20.235  0.00  0.00     0.199 A 
ATOM      3  C   UNL d   1     -40.197  15.228  19.862  0.00  0.00     0.283 A 
ATOM      4  N   UNL d   1     -41.288  14.050  19.424  0.00  0.00    -0.221 NA
ATOM      5  C   UNL d   1     -40.329  15.042  19.047  0.00  0.00     0.076 A 
ATOM      6  C   UNL d   1     -40.871  14.458  18.833  0.00  0.00     0.088 A 
ATOM      7  O   UNL d   1     -39.652  15.815  20.072  0.00  0.00    -0.265 OA
ATOM      8  C   UNL d   1     -39.902  15.461  18.468  0.00  0.00     0.006 A 
ATOM      9  C   UNL d   1     -40.992  14.285  18.036  0.00  0.00     0.019 A 
ATOM     10  C   UNL d   1     -40.035  15.276  17.668  0.00  0.00     0.000 A 
ATOM     11  C   UNL d   1     -40.576  14.691  17.454  0.00  0.00     0.002 A 
ENDROOT
BRANCH   2  12
ATOM     12  S   UNL d   1     -41.567  13.833  20.809  0.00  0.00    -0.043 SA
BRANCH  12  13
ATOM     13  C   UNL d   1     -42.231  13.383  20.603  0.00  0.00     0.101 C 
BRANCH  13  14
ATOM     14  C   UNL d   1     -42.755  13.136  21.188  0.00  0.00     0.286 C 
ATOM     15  O   UNL d   1     -42.500  12.606  21.772  0.00  0.00    -0.265 OA
ATOM     16  N   UNL d   1     -43.530  13.412  21.198  0.00  0.00    -0.206 NA
BRANCH  16  17
ATOM     17  C   UNL d   1     -44.054  13.165  21.783  0.00  0.00     0.102 C 
BRANCH  17  18
ATOM     18  C   UNL d   1     -44.856  13.086  21.618  0.00  0.00     0.021 C 
BRANCH  18  19
ATOM     19  C   UNL d   1     -45.404  13.058  22.229  0.00  0.00     0.002 A 
ATOM     20  C   UNL d   1     -45.782  13.753  22.475  0.00  0.00     0.000 A 
ATOM     21  C   UNL d   1     -46.336  13.721  23.094  0.00  0.00     0.000 A 
ATOM     22  C   UNL d   1     -46.511  13.003  23.461  0.00  0.00     0.000 A 
ATOM     23  C   UNL d   1     -46.127  12.309  23.208  0.00  0.00     0.000 A 
ATOM     24  C   UNL d   1     -45.579  12.342  22.596  0.00  0.00     0.000 A 
ENDBRANCH  18  19
ENDBRANCH  17  18
ENDBRANCH  16  17
ENDBRANCH  13  14
ENDBRANCH  12  13
ENDBRANCH   2  12
BRANCH   1  25
ATOM     25  N   UNL d   1     -40.492  14.993  21.234  0.00  0.00    -0.119 NA
ATOM     26  C   UNL d   1     -39.780  14.792  21.596  0.00  0.00     0.296 C 
ATOM     27  O   UNL d   1     -39.182  14.414  21.171  0.00  0.00    -0.264 OA
BRANCH  26  28
ATOM     28  C   UNL d   1     -39.660  14.972  22.396  0.00  0.00     0.064 C 
BRANCH  28  29
ATOM     29  C   UNL d   1     -39.100  14.558  22.827  0.00  0.00     0.005 A 
ATOM     30  C   UNL d   1     -39.128  13.739  22.856  0.00  0.00     0.000 A 
ATOM     31  C   UNL d   1     -38.564  13.320  23.289  0.00  0.00     0.000 A 
ATOM     32  C   UNL d   1     -37.970  13.732  23.695  0.00  0.00     0.000 A 
ATOM     33  C   UNL d   1     -37.942  14.550  23.665  0.00  0.00     0.000 A 
ATOM     34  C   UNL d   1     -38.504  14.969  23.234  0.00  0.00     0.000 A 
ENDBRANCH  28  29
ENDBRANCH  26  28
ENDBRANCH   1  25
TORSDOF 9
ENDMDL
MODEL 2
REMARK VINA RESULT:      -2.9      2.270      7.371
REMARK  9 active torsions:
REMARK  status: ('A' for Active; 'I' for Inactive)
REMARK    1  A    between atoms: N_7  and  N_1 
REMARK    2  A    between atoms: S_9  and  C_2 
REMARK       I    between atoms: C_8  and  N_7 
REMARK    3  A    between atoms: C_15  and  C_8 
REMARK    4  A    between atoms: C_14  and  S_9 
REMARK    5  A    between atoms: C_11  and  C_14 
REMARK       I    between atoms: N_16  and  C_11 
REMARK    6  A    between atoms: C_18  and  C_15 
REMARK    7  A    between atoms: C_19  and  N_16 
REMARK    8  A    between atoms: C_22  and  C_19 
REMARK    9  A    between atoms: C_21  and  C_22 
ROOT
ATOM      1  N   UNL d   1     -46.227  12.853  22.392  0.00  0.00    -0.168 N 
ATOM      2  C   UNL d   1     -45.415  12.764  22.392  0.00  0.00     0.199 A 
ATOM      3  C   UNL d   1     -46.706  12.261  22.715  0.00  0.00     0.283 A 
ATOM      4  N   UNL d   1     -45.052  12.076  22.717  0.00  0.00    -0.221 NA
ATOM      5  C   UNL d   1     -46.349  11.568  23.043  0.00  0.00     0.076 A 
ATOM      6  C   UNL d   1     -45.529  11.478  23.043  0.00  0.00     0.088 A 
ATOM      7  O   UNL d   1     -47.530  12.345  22.718  0.00  0.00    -0.265 OA
ATOM      8  C   UNL d   1     -46.843  10.979  23.365  0.00  0.00     0.006 A 
ATOM      9  C   UNL d   1     -45.191  10.799  23.365  0.00  0.00     0.019 A 
ATOM     10  C   UNL d   1     -46.487  10.299  23.687  0.00  0.00     0.000 A 
ATOM     11  C   UNL d   1     -45.667  10.210  23.687  0.00  0.00     0.002 A 
ENDROOT
BRANCH   2  12
ATOM     12  S   UNL d   1     -44.937  13.346  22.074  0.00  0.00    -0.043 SA
BRANCH  12  13
ATOM     13  C   UNL d   1     -44.288  13.142  21.603  0.00  0.00     0.101 C 
BRANCH  13  14
ATOM     14  C   UNL d   1     -43.667  13.675  21.508  0.00  0.00     0.286 C 
ATOM     15  O   UNL d   1     -43.793  14.481  21.650  0.00  0.00    -0.265 OA
ATOM     16  N   UNL d   1     -42.924  13.412  21.273  0.00  0.00    -0.206 NA
BRANCH  16  17
ATOM     17  C   UNL d   1     -42.303  13.946  21.178  0.00  0.00     0.102 C 
BRANCH  17  18
ATOM     18  C   UNL d   1     -41.611  13.716  20.798  0.00  0.00     0.021 C 
BRANCH  18  19
ATOM     19  C   UNL d   1     -40.950  14.203  20.811  0.00  0.00     0.002 A 
ATOM     20  C   UNL d   1     -40.791  14.700  20.168  0.00  0.00     0.000 A 
ATOM     21  C   UNL d   1     -40.121  15.191  20.185  0.00  0.00     0.000 A 
ATOM     22  C   UNL d   1     -39.616  15.185  20.837  0.00  0.00     0.000 A 
ATOM     23  C   UNL d   1     -39.782  14.683  21.480  0.00  0.00     0.000 A 
ATOM     24  C   UNL d   1     -40.444  14.198  21.462  0.00  0.00     0.000 A 
ENDBRANCH  18  19
ENDBRANCH  17  18
ENDBRANCH  16  17
ENDBRANCH  13  14
ENDBRANCH  12  13
ENDBRANCH   2  12
BRANCH   1  25
ATOM     25  N   UNL d   1     -46.566  13.524  22.074  0.00  0.00    -0.119 NA
ATOM     26  C   UNL d   1     -46.943  14.068  22.563  0.00  0.00     0.296 C 
ATOM     27  O   UNL d   1     -46.986  13.945  23.378  0.00  0.00    -0.264 OA
BRANCH  26  28
ATOM     28  C   UNL d   1     -47.285  14.748  22.234  0.00  0.00     0.064 C 
BRANCH  28  29
ATOM     29  C   UNL d   1     -48.074  14.916  22.377  0.00  0.00     0.005 A 
ATOM     30  C   UNL d   1     -48.298  15.265  23.085  0.00  0.00     0.000 A 
ATOM     31  C   UNL d   1     -49.092  15.435  23.231  0.00  0.00     0.000 A 
ATOM     32  C   UNL d   1     -49.662  15.252  22.659  0.00  0.00     0.000 A 
ATOM     33  C   UNL d   1     -49.438  14.903  21.951  0.00  0.00     0.000 A 
ATOM     34  C   UNL d   1     -48.647  14.733  21.805  0.00  0.00     0.000 A 
ENDBRANCH  28  29
ENDBRANCH  26  28
ENDBRANCH   1  25
TORSDOF 9
ENDMDL
