MODEL 1
REMARK VINA RESULT:      -2.0      0.000      0.000
REMARK  7 active torsions:
REMARK  status: ('A' for Active; 'I' for Inactive)
REMARK    1  A    between atoms: C_7  and  C_1 
REMARK    2  A    between atoms: N_5  and  C_2 
REMARK       I    between atoms: C_8  and  N_5 
REMARK    3  A    between atoms: N_9  and  C_7 
REMARK    4  A    between atoms: C_12  and  C_7 
REMARK    5  A    between atoms: C_10  and  C_8 
REMARK    6  A    between atoms: C_26  and  N_11 
REMARK    7  A    between atoms: C_30  and  C_26 
ROOT
ATOM      1  C   UNL d   1     -39.381  14.354  18.458  0.00  0.00     0.068 C 
ENDROOT
BRANCH   1   2
ATOM      2  C   UNL d   1     -39.235  14.701  19.227  0.00  0.00     0.041 A 
ATOM      3  C   UNL d   1     -39.635  14.678  19.932  0.00  0.00     0.115 A 
ATOM      4  S   UNL d   1     -39.201  15.132  20.470  0.00  0.00    -0.068 SA
ATOM      5  C   UNL d   1     -38.531  15.444  20.124  0.00  0.00     0.031 A 
ATOM      6  C   UNL d   1     -38.538  15.174  19.316  0.00  0.00     0.009 A 
ATOM      7  C   UNL d   1     -37.969  15.921  20.483  0.00  0.00     0.007 C 
ATOM      8  C   UNL d   1     -37.970  15.349  18.749  0.00  0.00     0.001 C 
BRANCH   3   9
ATOM      9  N   UNL d   1     -40.334  14.286  20.093  0.00  0.00    -0.200 NA
ATOM     10  C   UNL d   1     -40.730  14.448  20.801  0.00  0.00     0.302 C 
ATOM     11  O   UNL d   1     -40.417  15.000  21.331  0.00  0.00    -0.263 OA
BRANCH  10  12
ATOM     12  C   UNL d   1     -41.437  14.068  20.989  0.00  0.00     0.158 A 
ATOM     13  O   UNL d   1     -42.226  14.277  20.794  0.00  0.00    -0.300 OA
ATOM     14  C   UNL d   1     -42.714  13.698  21.126  0.00  0.00     0.123 A 
ATOM     15  C   UNL d   1     -42.230  13.161  21.508  0.00  0.00     0.029 A 
ATOM     16  C   UNL d   1     -41.439  13.372  21.435  0.00  0.00     0.032 A 
ENDBRANCH  10  12
ENDBRANCH   3   9
ENDBRANCH   1   2
BRANCH   1  17
ATOM     17  N   UNL d   1     -39.007  13.605  18.280  0.00  0.00    -0.301 N 
ATOM     18  C   UNL d   1     -39.384  12.918  18.531  0.00  0.00     0.100 A 
ATOM     19  C   UNL d   1     -39.025  12.197  18.360  0.00  0.00     0.100 A 
ATOM     20  N   UNL d   1     -38.294  12.164  17.941  0.00  0.00    -0.297 N 
ATOM     21  C   UNL d   1     -37.946  12.852  17.706  0.00  0.00     0.100 A 
ATOM     22  C   UNL d   1     -38.276  13.571  17.861  0.00  0.00     0.100 A 
BRANCH  20  23
ATOM     23  C   UNL d   1     -37.940  11.416  17.774  0.00  0.00     0.126 C 
BRANCH  23  24
ATOM     24  C   UNL d   1     -38.368  10.825  17.349  0.00  0.00     0.253 C 
ATOM     25  O   UNL d   1     -38.111  10.025  17.360  0.00  0.00    -0.281 OA
ENDBRANCH  23  24
ENDBRANCH  20  23
ENDBRANCH   1  17
BRANCH   1  26
ATOM     26  C   UNL d   1     -39.874  14.736  17.897  0.00  0.00     0.035 A 
ATOM     27  C   UNL d   1     -40.659  14.465  17.803  0.00  0.00     0.100 A 
ATOM     28  N   UNL d   1     -41.155  14.849  17.240  0.00  0.00    -0.242 NA
ATOM     29  C   UNL d   1     -40.837  15.481  16.804  0.00  0.00     0.099 A 
ATOM     30  C   UNL d   1     -40.078  15.739  16.899  0.00  0.00     0.021 A 
ATOM     31  C   UNL d   1     -39.582  15.355  17.462  0.00  0.00     0.005 A 
ENDBRANCH   1  26
TORSDOF 7
ENDMDL
MODEL 2
REMARK VINA RESULT:      -1.6      1.465      4.302
REMARK  7 active torsions:
REMARK  status: ('A' for Active; 'I' for Inactive)
REMARK    1  A    between atoms: C_7  and  C_1 
REMARK    2  A    between atoms: N_5  and  C_2 
REMARK       I    between atoms: C_8  and  N_5 
REMARK    3  A    between atoms: N_9  and  C_7 
REMARK    4  A    between atoms: C_12  and  C_7 
REMARK    5  A    between atoms: C_10  and  C_8 
REMARK    6  A    between atoms: C_26  and  N_11 
REMARK    7  A    between atoms: C_30  and  C_26 
ROOT
ATOM      1  C   UNL d   1     -39.903  14.475  20.200  0.00  0.00     0.068 C 
ENDROOT
BRANCH   1   2
ATOM      2  C   UNL d   1     -39.814  14.624  19.362  0.00  0.00     0.041 A 
ATOM      3  C   UNL d   1     -39.461  14.212  18.759  0.00  0.00     0.115 A 
ATOM      4  S   UNL d   1     -39.567  14.656  18.070  0.00  0.00    -0.068 SA
ATOM      5  C   UNL d   1     -39.980  15.344  18.219  0.00  0.00     0.031 A 
ATOM      6  C   UNL d   1     -40.149  15.339  19.054  0.00  0.00     0.009 A 
ATOM      7  C   UNL d   1     -40.190  15.921  17.675  0.00  0.00     0.007 C 
ATOM      8  C   UNL d   1     -40.558  15.922  19.463  0.00  0.00     0.001 C 
BRANCH   3   9
ATOM      9  N   UNL d   1     -39.071  13.495  18.809  0.00  0.00    -0.200 NA
ATOM     10  C   UNL d   1     -38.942  13.061  18.117  0.00  0.00     0.302 C 
ATOM     11  O   UNL d   1     -39.204  13.355  17.391  0.00  0.00    -0.263 OA
BRANCH  10  12
ATOM     12  C   UNL d   1     -38.552  12.335  18.138  0.00  0.00     0.158 A 
ATOM     13  O   UNL d   1     -38.347  11.856  18.797  0.00  0.00    -0.300 OA
ATOM     14  C   UNL d   1     -37.963  11.189  18.495  0.00  0.00     0.123 A 
ATOM     15  C   UNL d   1     -37.940  11.268  17.682  0.00  0.00     0.029 A 
ATOM     16  C   UNL d   1     -38.298  11.968  17.442  0.00  0.00     0.032 A 
ENDBRANCH  10  12
ENDBRANCH   3   9
ENDBRANCH   1   2
BRANCH   1  17
ATOM     17  N   UNL d   1     -40.647  14.148  20.471  0.00  0.00    -0.301 N 
ATOM     18  C   UNL d   1     -41.193  14.662  20.809  0.00  0.00     0.100 A 
ATOM     19  C   UNL d   1     -41.907  14.349  21.070  0.00  0.00     0.100 A 
ATOM     20  N   UNL d   1     -42.075  13.526  20.992  0.00  0.00    -0.297 N 
ATOM     21  C   UNL d   1     -41.523  13.044  20.657  0.00  0.00     0.100 A 
ATOM     22  C   UNL d   1     -40.815  13.325  20.394  0.00  0.00     0.100 A 
BRANCH  20  23
ATOM     23  C   UNL d   1     -42.814  13.221  21.265  0.00  0.00     0.126 C 
BRANCH  23  24
ATOM     24  C   UNL d   1     -42.871  12.430  21.553  0.00  0.00     0.253 C 
ATOM     25  O   UNL d   1     -43.549  12.183  21.983  0.00  0.00    -0.281 OA
ENDBRANCH  23  24
ENDBRANCH  20  23
ENDBRANCH   1  17
BRANCH   1  26
ATOM     26  C   UNL d   1     -39.283  14.644  20.739  0.00  0.00     0.035 A 
ATOM     27  C   UNL d   1     -39.053  14.053  21.284  0.00  0.00     0.100 A 
ATOM     28  N   UNL d   1     -38.429  14.223  21.825  0.00  0.00    -0.242 NA
ATOM     29  C   UNL d   1     -38.072  14.973  21.789  0.00  0.00     0.099 A 
ATOM     30  C   UNL d   1     -38.297  15.539  21.261  0.00  0.00     0.021 A 
ATOM     31  C   UNL d   1     -38.921  15.369  20.720  0.00  0.00     0.005 A 
ENDBRANCH   1  26
TORSDOF 7
ENDMDL
MODEL 3
REMARK VINA RESULT:      -1.3      1.572      4.146
REMARK  7 active torsions:
REMARK  status: ('A' for Active; 'I' for Inactive)
REMARK    1  A    between atoms: C_7  and  C_1 
REMARK    2  A    between atoms: N_5  and  C_2 
REMARK       I    between atoms: C_8  and  N_5 
REMARK    3  A    between atoms: N_9  and  C_7 
REMARK    4  A    between atoms: C_12  and  C_7 
REMARK    5  A    between atoms: C_10  and  C_8 
REMARK    6  A    between atoms: C_26  and  N_11 
REMARK    7  A    between atoms: C_30  and  C_26 
ROOT
ATOM      1  C   UNL d   1     -39.458  14.309  19.837  0.00  0.00     0.068 C 
ENDROOT
BRANCH   1   2
ATOM      2  C   UNL d   1     -39.225  13.924  19.109  0.00  0.00     0.041 A 
ATOM      3  C   UNL d   1     -39.428  14.036  18.332  0.00  0.00     0.115 A 
ATOM      4  S   UNL d   1     -39.007  13.478  17.890  0.00  0.00    -0.068 SA
ATOM      5  C   UNL d   1     -38.539  13.011  18.369  0.00  0.00     0.031 A 
ATOM      6  C   UNL d   1     -38.668  13.288  19.164  0.00  0.00     0.009 A 
ATOM      7  C   UNL d   1     -38.045  12.401  18.130  0.00  0.00     0.007 C 
ATOM      8  C   UNL d   1     -38.314  12.984  19.840  0.00  0.00     0.001 C 
BRANCH   3   9
ATOM      9  N   UNL d   1     -39.948  14.590  18.029  0.00  0.00    -0.200 NA
ATOM     10  C   UNL d   1     -40.168  14.540  17.234  0.00  0.00     0.302 C 
ATOM     11  O   UNL d   1     -39.864  13.936  16.759  0.00  0.00    -0.263 OA
BRANCH  10  12
ATOM     12  C   UNL d   1     -40.690  15.085  16.903  0.00  0.00     0.158 A 
ATOM     13  O   UNL d   1     -41.406  15.396  17.211  0.00  0.00    -0.300 OA
ATOM     14  C   UNL d   1     -41.701  15.921  16.644  0.00  0.00     0.123 A 
ATOM     15  C   UNL d   1     -41.177  15.922  16.017  0.00  0.00     0.029 A 
ATOM     16  C   UNL d   1     -40.547  15.413  16.157  0.00  0.00     0.032 A 
ENDBRANCH  10  12
ENDBRANCH   3   9
ENDBRANCH   1   2
BRANCH   1  17
ATOM     17  N   UNL d   1     -40.232  14.130  20.154  0.00  0.00    -0.301 N 
ATOM     18  C   UNL d   1     -40.841  14.663  20.006  0.00  0.00     0.100 A 
ATOM     19  C   UNL d   1     -41.586  14.492  20.310  0.00  0.00     0.100 A 
ATOM     20  N   UNL d   1     -41.721  13.791  20.761  0.00  0.00    -0.297 N 
ATOM     21  C   UNL d   1     -41.107  13.286  20.891  0.00  0.00     0.100 A 
ATOM     22  C   UNL d   1     -40.367  13.430  20.605  0.00  0.00     0.100 A 
BRANCH  20  23
ATOM     23  C   UNL d   1     -42.492  13.631  21.065  0.00  0.00     0.126 C 
BRANCH  23  24
ATOM     24  C   UNL d   1     -42.744  12.836  21.199  0.00  0.00     0.253 C 
ATOM     25  O   UNL d   1     -43.355  12.672  21.751  0.00  0.00    -0.281 OA
ENDBRANCH  23  24
ENDBRANCH  20  23
ENDBRANCH   1  17
BRANCH   1  26
ATOM     26  C   UNL d   1     -38.943  14.845  20.227  0.00  0.00     0.035 A 
ATOM     27  C   UNL d   1     -38.492  15.376  19.766  0.00  0.00     0.100 A 
ATOM     28  N   UNL d   1     -37.975  15.914  20.158  0.00  0.00    -0.242 NA
ATOM     29  C   UNL d   1     -37.940  15.889  20.988  0.00  0.00     0.099 A 
ATOM     30  C   UNL d   1     -38.377  15.375  21.429  0.00  0.00     0.021 A 
ATOM     31  C   UNL d   1     -38.894  14.836  21.037  0.00  0.00     0.005 A 
ENDBRANCH   1  26
TORSDOF 7
ENDMDL
MODEL 4
REMARK VINA RESULT:      -0.3      1.569      3.905
REMARK  7 active torsions:
REMARK  status: ('A' for Active; 'I' for Inactive)
REMARK    1  A    between atoms: C_7  and  C_1 
REMARK    2  A    between atoms: N_5  and  C_2 
REMARK       I    between atoms: C_8  and  N_5 
REMARK    3  A    between atoms: N_9  and  C_7 
REMARK    4  A    between atoms: C_12  and  C_7 
REMARK    5  A    between atoms: C_10  and  C_8 
REMARK    6  A    between atoms: C_26  and  N_11 
REMARK    7  A    between atoms: C_30  and  C_26 
ROOT
ATOM      1  C   UNL d   1     -40.408  14.635  19.500  0.00  0.00     0.068 C 
ENDROOT
BRANCH   1   2
ATOM      2  C   UNL d   1     -39.583  14.774  19.683  0.00  0.00     0.041 A 
ATOM      3  C   UNL d   1     -38.893  14.425  19.439  0.00  0.00     0.115 A 
ATOM      4  S   UNL d   1     -38.275  14.817  19.823  0.00  0.00    -0.068 SA
ATOM      5  C   UNL d   1     -38.556  15.411  20.308  0.00  0.00     0.031 A 
ATOM      6  C   UNL d   1     -39.404  15.396  20.229  0.00  0.00     0.009 A 
ATOM      7  C   UNL d   1     -38.109  15.916  20.776  0.00  0.00     0.007 C 
ATOM      8  C   UNL d   1     -39.928  15.896  20.616  0.00  0.00     0.001 C 
BRANCH   3   9
ATOM      9  N   UNL d   1     -38.810  13.803  18.913  0.00  0.00    -0.200 NA
ATOM     10  C   UNL d   1     -38.335  13.161  19.126  0.00  0.00     0.302 C 
ATOM     11  O   UNL d   1     -37.953  13.156  19.858  0.00  0.00    -0.263 OA
BRANCH  10  12
ATOM     12  C   UNL d   1     -38.233  12.521  18.616  0.00  0.00     0.158 A 
ATOM     13  O   UNL d   1     -38.357  12.472  17.788  0.00  0.00    -0.300 OA
ATOM     14  C   UNL d   1     -38.169  11.698  17.565  0.00  0.00     0.123 A 
ATOM     15  C   UNL d   1     -37.940  11.299  18.240  0.00  0.00     0.029 A 
ATOM     16  C   UNL d   1     -37.973  11.789  18.899  0.00  0.00     0.032 A 
ENDBRANCH  10  12
ENDBRANCH   3   9
ENDBRANCH   1   2
BRANCH   1  17
ATOM     17  N   UNL d   1     -40.716  14.964  18.772  0.00  0.00    -0.301 N 
ATOM     18  C   UNL d   1     -40.494  14.607  18.065  0.00  0.00     0.100 A 
ATOM     19  C   UNL d   1     -40.790  14.921  17.364  0.00  0.00     0.100 A 
ATOM     20  N   UNL d   1     -41.305  15.590  17.371  0.00  0.00    -0.297 N 
ATOM     21  C   UNL d   1     -41.506  15.921  18.078  0.00  0.00     0.100 A 
ATOM     22  C   UNL d   1     -41.231  15.632  18.779  0.00  0.00     0.100 A 
BRANCH  20  23
ATOM     23  C   UNL d   1     -41.599  15.900  16.643  0.00  0.00     0.126 C 
BRANCH  23  24
ATOM     24  C   UNL d   1     -42.329  15.622  16.323  0.00  0.00     0.253 C 
ATOM     25  O   UNL d   1     -42.493  15.710  15.504  0.00  0.00    -0.281 OA
ENDBRANCH  23  24
ENDBRANCH  20  23
ENDBRANCH   1  17
BRANCH   1  26
ATOM     26  C   UNL d   1     -40.898  14.192  20.017  0.00  0.00     0.035 A 
ATOM     27  C   UNL d   1     -40.697  14.155  20.827  0.00  0.00     0.100 A 
ATOM     28  N   UNL d   1     -41.189  13.710  21.346  0.00  0.00    -0.242 NA
ATOM     29  C   UNL d   1     -41.854  13.328  21.025  0.00  0.00     0.099 A 
ATOM     30  C   UNL d   1     -42.044  13.367  20.242  0.00  0.00     0.021 A 
ATOM     31  C   UNL d   1     -41.551  13.812  19.722  0.00  0.00     0.005 A 
ENDBRANCH   1  26
TORSDOF 7
ENDMDL
