MODEL 1
REMARK VINA RESULT:      -7.4      0.000      0.000
REMARK  3 active torsions:
REMARK  status: ('A' for Active; 'I' for Inactive)
REMARK    1  A    between atoms: C_9  and  N_1 
REMARK       I    between atoms: C_8  and  N_2 
REMARK    2  A    between atoms: C_3  and  C_9 
REMARK    3  A    between atoms: C_13  and  C_8 
ROOT
ATOM      1  N   UNL d   1     -48.533  12.657  22.794  0.00  0.00    -0.194 N 
ATOM      2  C   UNL d   1     -47.369  13.149  23.229  0.00  0.00     0.055 A 
ATOM      3  N   UNL d   1     -48.529  13.484  22.655  0.00  0.00    -0.163 NA
ATOM      4  C   UNL d   1     -47.820  12.465  23.145  0.00  0.00     0.089 A 
ATOM      5  C   UNL d   1     -49.150  12.146  22.607  0.00  0.00     0.286 C 
ATOM      6  C   UNL d   1     -47.804  13.778  22.928  0.00  0.00     0.104 A 
ATOM      7  O   UNL d   1     -49.068  11.336  22.781  0.00  0.00    -0.265 OA
ATOM      8  C   UNL d   1     -47.596  11.702  23.375  0.00  0.00     0.021 C 
ATOM      9  C   UNL d   1     -47.567  14.571  22.898  0.00  0.00     0.023 C 
ENDROOT
BRANCH   2  10
ATOM     10  C   UNL d   1     -46.606  13.192  23.561  0.00  0.00     0.089 C 
BRANCH  10  11
ATOM     11  N   UNL d   1     -45.940  13.047  23.094  0.00  0.00    -0.240 N 
ATOM     12  C   UNL d   1     -45.620  13.560  22.542  0.00  0.00     0.267 A 
ATOM     13  C   UNL d   1     -44.962  13.185  22.209  0.00  0.00     0.061 A 
ATOM     14  O   UNL d   1     -45.905  14.312  22.354  0.00  0.00    -0.267 OA
ATOM     15  C   UNL d   1     -44.431  13.433  21.632  0.00  0.00     0.005 A 
ATOM     16  C   UNL d   1     -44.878  12.448  22.553  0.00  0.00     0.061 A 
ATOM     17  C   UNL d   1     -43.814  12.940  21.400  0.00  0.00     0.000 A 
ATOM     18  C   UNL d   1     -43.727  12.196  21.746  0.00  0.00     0.000 A 
ATOM     19  C   UNL d   1     -44.259  11.948  22.324  0.00  0.00     0.005 A 
ATOM     20  C   UNL d   1     -45.484  12.353  23.107  0.00  0.00     0.267 A 
ATOM     21  O   UNL d   1     -45.610  11.688  23.584  0.00  0.00    -0.267 OA
ENDBRANCH  10  11
ENDBRANCH   2  10
BRANCH   5  22
ATOM     22  C   UNL d   1     -49.834  12.438  22.253  0.00  0.00     0.087 A 
ATOM     23  S   UNL d   1     -50.524  12.662  22.647  0.00  0.00    -0.082 SA
ATOM     24  C   UNL d   1     -51.064  12.919  22.080  0.00  0.00     0.036 A 
ATOM     25  C   UNL d   1     -50.716  12.856  21.345  0.00  0.00     0.008 A 
ATOM     26  C   UNL d   1     -49.949  12.557  21.449  0.00  0.00     0.012 A 
ENDBRANCH   5  22
TORSDOF 3
ENDMDL
MODEL 2
REMARK VINA RESULT:      -6.6      1.537      4.678
REMARK  3 active torsions:
REMARK  status: ('A' for Active; 'I' for Inactive)
REMARK    1  A    between atoms: C_9  and  N_1 
REMARK       I    between atoms: C_8  and  N_2 
REMARK    2  A    between atoms: C_3  and  C_9 
REMARK    3  A    between atoms: C_13  and  C_8 
ROOT
ATOM      1  N   UNL d   1     -45.893  12.980  22.742  0.00  0.00    -0.194 N 
ATOM      2  C   UNL d   1     -47.053  12.728  23.356  0.00  0.00     0.055 A 
ATOM      3  N   UNL d   1     -45.923  12.162  22.922  0.00  0.00    -0.163 NA
ATOM      4  C   UNL d   1     -46.589  13.315  23.012  0.00  0.00     0.089 A 
ATOM      5  C   UNL d   1     -45.271  13.362  22.363  0.00  0.00     0.286 C 
ATOM      6  C   UNL d   1     -46.644  12.017  23.301  0.00  0.00     0.104 A 
ATOM      7  O   UNL d   1     -45.326  14.181  22.225  0.00  0.00    -0.265 OA
ATOM      8  C   UNL d   1     -46.785  14.116  22.946  0.00  0.00     0.021 C 
ATOM      9  C   UNL d   1     -46.902  11.279  23.574  0.00  0.00     0.023 C 
ENDROOT
BRANCH   2  10
ATOM     10  C   UNL d   1     -47.805  12.839  23.698  0.00  0.00     0.089 C 
BRANCH  10  11
ATOM     11  N   UNL d   1     -48.476  12.896  23.218  0.00  0.00    -0.240 N 
ATOM     12  C   UNL d   1     -48.859  12.271  22.854  0.00  0.00     0.267 A 
ATOM     13  C   UNL d   1     -49.498  12.587  22.433  0.00  0.00     0.061 A 
ATOM     14  O   UNL d   1     -48.646  11.475  22.901  0.00  0.00    -0.267 OA
ATOM     15  C   UNL d   1     -50.071  12.224  21.967  0.00  0.00     0.005 A 
ATOM     16  C   UNL d   1     -49.507  13.397  22.537  0.00  0.00     0.061 A 
ATOM     17  C   UNL d   1     -50.655  12.678  21.605  0.00  0.00     0.000 A 
ATOM     18  C   UNL d   1     -50.665  13.497  21.708  0.00  0.00     0.000 A 
ATOM     19  C   UNL d   1     -50.091  13.859  22.175  0.00  0.00     0.005 A 
ATOM     20  C   UNL d   1     -48.872  13.600  23.026  0.00  0.00     0.267 A 
ATOM     21  O   UNL d   1     -48.673  14.364  23.275  0.00  0.00    -0.267 OA
ENDBRANCH  10  11
ENDBRANCH   2  10
BRANCH   5  22
ATOM     22  C   UNL d   1     -44.607  12.935  22.128  0.00  0.00     0.087 A 
ATOM     23  S   UNL d   1     -44.227  12.998  21.397  0.00  0.00    -0.082 SA
ATOM     24  C   UNL d   1     -43.592  12.472  21.399  0.00  0.00     0.036 A 
ATOM     25  C   UNL d   1     -43.578  12.087  22.119  0.00  0.00     0.008 A 
ATOM     26  C   UNL d   1     -44.209  12.374  22.575  0.00  0.00     0.012 A 
ENDBRANCH   5  22
TORSDOF 3
ENDMDL
MODEL 3
REMARK VINA RESULT:      -6.5      7.810      9.052
REMARK  3 active torsions:
REMARK  status: ('A' for Active; 'I' for Inactive)
REMARK    1  A    between atoms: C_9  and  N_1 
REMARK       I    between atoms: C_8  and  N_2 
REMARK    2  A    between atoms: C_3  and  C_9 
REMARK    3  A    between atoms: C_13  and  C_8 
ROOT
ATOM      1  N   UNL d   1     -39.679  14.650  18.790  0.00  0.00    -0.194 N 
ATOM      2  C   UNL d   1     -39.575  15.158  20.022  0.00  0.00     0.055 A 
ATOM      3  N   UNL d   1     -38.958  15.073  18.840  0.00  0.00    -0.163 NA
ATOM      4  C   UNL d   1     -40.047  14.709  19.518  0.00  0.00     0.089 A 
ATOM      5  C   UNL d   1     -39.953  14.254  18.124  0.00  0.00     0.286 C 
ATOM      6  C   UNL d   1     -38.903  15.383  19.606  0.00  0.00     0.104 A 
ATOM      7  O   UNL d   1     -40.685  13.857  18.164  0.00  0.00    -0.265 OA
ATOM      8  C   UNL d   1     -40.778  14.369  19.707  0.00  0.00     0.021 C 
ATOM      9  C   UNL d   1     -38.276  15.841  19.894  0.00  0.00     0.023 C 
ENDROOT
BRANCH   2  10
ATOM     10  C   UNL d   1     -39.752  15.348  20.814  0.00  0.00     0.089 C 
BRANCH  10  11
ATOM     11  N   UNL d   1     -39.387  14.936  21.432  0.00  0.00    -0.240 N 
ATOM     12  C   UNL d   1     -38.751  15.200  21.873  0.00  0.00     0.267 A 
ATOM     13  C   UNL d   1     -38.574  14.610  22.426  0.00  0.00     0.061 A 
ATOM     14  O   UNL d   1     -38.360  15.922  21.782  0.00  0.00    -0.267 OA
ATOM     15  C   UNL d   1     -37.995  14.570  23.009  0.00  0.00     0.005 A 
ATOM     16  C   UNL d   1     -39.097  13.990  22.325  0.00  0.00     0.061 A 
ATOM     17  C   UNL d   1     -37.941  13.905  23.492  0.00  0.00     0.000 A 
ATOM     18  C   UNL d   1     -38.468  13.278  23.391  0.00  0.00     0.000 A 
ATOM     19  C   UNL d   1     -39.048  13.319  22.807  0.00  0.00     0.005 A 
ATOM     20  C   UNL d   1     -39.609  14.185  21.706  0.00  0.00     0.267 A 
ATOM     21  O   UNL d   1     -40.226  13.715  21.417  0.00  0.00    -0.267 OA
ENDBRANCH  10  11
ENDBRANCH   2  10
BRANCH   5  22
ATOM     22  C   UNL d   1     -39.506  14.252  17.432  0.00  0.00     0.087 A 
ATOM     23  S   UNL d   1     -38.963  13.671  17.210  0.00  0.00    -0.082 SA
ATOM     24  C   UNL d   1     -38.645  13.891  16.481  0.00  0.00     0.036 A 
ATOM     25  C   UNL d   1     -38.985  14.597  16.255  0.00  0.00     0.008 A 
ATOM     26  C   UNL d   1     -39.522  14.825  16.845  0.00  0.00     0.012 A 
ENDBRANCH   5  22
TORSDOF 3
ENDMDL
MODEL 4
REMARK VINA RESULT:      -6.4      7.656      9.095
REMARK  3 active torsions:
REMARK  status: ('A' for Active; 'I' for Inactive)
REMARK    1  A    between atoms: C_9  and  N_1 
REMARK       I    between atoms: C_8  and  N_2 
REMARK    2  A    between atoms: C_3  and  C_9 
REMARK    3  A    between atoms: C_13  and  C_8 
ROOT
ATOM      1  N   UNL d   1     -39.388  14.613  21.159  0.00  0.00    -0.194 N 
ATOM      2  C   UNL d   1     -40.263  14.550  20.150  0.00  0.00     0.055 A 
ATOM      3  N   UNL d   1     -39.979  15.193  21.287  0.00  0.00    -0.163 NA
ATOM      4  C   UNL d   1     -39.572  14.227  20.462  0.00  0.00     0.089 A 
ATOM      5  C   UNL d   1     -38.746  14.470  21.652  0.00  0.00     0.286 C 
ATOM      6  C   UNL d   1     -40.515  15.145  20.658  0.00  0.00     0.104 A 
ATOM      7  O   UNL d   1     -38.205  13.872  21.447  0.00  0.00    -0.265 OA
ATOM      8  C   UNL d   1     -39.129  13.611  20.131  0.00  0.00     0.021 C 
ATOM      9  C   UNL d   1     -41.187  15.620  20.564  0.00  0.00     0.023 C 
ENDROOT
BRANCH   2  10
ATOM     10  C   UNL d   1     -40.637  14.312  19.445  0.00  0.00     0.089 C 
BRANCH  10  11
ATOM     11  N   UNL d   1     -40.351  14.571  18.714  0.00  0.00    -0.240 N 
ATOM     12  C   UNL d   1     -39.873  14.142  18.207  0.00  0.00     0.267 A 
ATOM     13  C   UNL d   1     -39.725  14.619  17.547  0.00  0.00     0.061 A 
ATOM     14  O   UNL d   1     -39.593  13.376  18.333  0.00  0.00    -0.267 OA
ATOM     15  C   UNL d   1     -39.284  14.480  16.866  0.00  0.00     0.005 A 
ATOM     16  C   UNL d   1     -40.108  15.334  17.647  0.00  0.00     0.061 A 
ATOM     17  C   UNL d   1     -39.228  15.061  16.285  0.00  0.00     0.000 A 
ATOM     18  C   UNL d   1     -39.614  15.783  16.386  0.00  0.00     0.000 A 
ATOM     19  C   UNL d   1     -40.056  15.922  17.067  0.00  0.00     0.005 A 
ATOM     20  C   UNL d   1     -40.502  15.314  18.374  0.00  0.00     0.267 A 
ATOM     21  O   UNL d   1     -40.960  15.922  18.698  0.00  0.00    -0.267 OA
ENDBRANCH  10  11
ENDBRANCH   2  10
BRANCH   5  22
ATOM     22  C   UNL d   1     -38.646  14.916  22.338  0.00  0.00     0.087 A 
ATOM     23  S   UNL d   1     -38.793  14.657  23.108  0.00  0.00    -0.082 SA
ATOM     24  C   UNL d   1     -38.619  15.280  23.619  0.00  0.00     0.036 A 
ATOM     25  C   UNL d   1     -38.368  15.916  23.174  0.00  0.00     0.008 A 
ATOM     26  C   UNL d   1     -38.383  15.693  22.375  0.00  0.00     0.012 A 
ENDBRANCH   5  22
TORSDOF 3
ENDMDL
MODEL 5
REMARK VINA RESULT:      -4.7      8.492      9.642
REMARK  3 active torsions:
REMARK  status: ('A' for Active; 'I' for Inactive)
REMARK    1  A    between atoms: C_9  and  N_1 
REMARK       I    between atoms: C_8  and  N_2 
REMARK    2  A    between atoms: C_3  and  C_9 
REMARK    3  A    between atoms: C_13  and  C_8 
ROOT
ATOM      1  N   UNL d   1     -38.525  14.575  20.501  0.00  0.00    -0.194 N 
ATOM      2  C   UNL d   1     -38.580  14.742  19.176  0.00  0.00     0.055 A 
ATOM      3  N   UNL d   1     -38.713  13.837  20.150  0.00  0.00    -0.163 NA
ATOM      4  C   UNL d   1     -38.446  15.119  19.896  0.00  0.00     0.089 A 
ATOM      5  C   UNL d   1     -38.438  14.710  21.307  0.00  0.00     0.286 C 
ATOM      6  C   UNL d   1     -38.745  13.952  19.331  0.00  0.00     0.104 A 
ATOM      7  O   UNL d   1     -38.250  15.478  21.569  0.00  0.00    -0.265 OA
ATOM      8  C   UNL d   1     -38.261  15.919  20.001  0.00  0.00     0.021 C 
ATOM      9  C   UNL d   1     -38.914  13.366  18.771  0.00  0.00     0.023 C 
ENDROOT
BRANCH   2  10
ATOM     10  C   UNL d   1     -38.552  15.102  18.425  0.00  0.00     0.089 C 
BRANCH  10  11
ATOM     11  N   UNL d   1     -39.250  15.237  18.002  0.00  0.00    -0.240 N 
ATOM     12  C   UNL d   1     -39.919  15.611  18.289  0.00  0.00     0.267 A 
ATOM     13  C   UNL d   1     -40.476  15.621  17.677  0.00  0.00     0.061 A 
ATOM     14  O   UNL d   1     -40.016  15.921  19.047  0.00  0.00    -0.267 OA
ATOM     15  C   UNL d   1     -41.241  15.922  17.645  0.00  0.00     0.005 A 
ATOM     16  C   UNL d   1     -40.152  15.256  17.021  0.00  0.00     0.061 A 
ATOM     17  C   UNL d   1     -41.682  15.856  16.953  0.00  0.00     0.000 A 
ATOM     18  C   UNL d   1     -41.357  15.487  16.290  0.00  0.00     0.000 A 
ATOM     19  C   UNL d   1     -40.591  15.186  16.322  0.00  0.00     0.005 A 
ATOM     20  C   UNL d   1     -39.387  15.012  17.215  0.00  0.00     0.267 A 
ATOM     21  O   UNL d   1     -38.858  14.618  16.714  0.00  0.00    -0.267 OA
ENDBRANCH  10  11
ENDBRANCH   2  10
BRANCH   5  22
ATOM     22  C   UNL d   1     -38.539  14.091  21.842  0.00  0.00     0.087 A 
ATOM     23  S   UNL d   1     -37.953  13.562  22.082  0.00  0.00    -0.082 SA
ATOM     24  C   UNL d   1     -38.294  13.037  22.619  0.00  0.00     0.036 A 
ATOM     25  C   UNL d   1     -39.080  13.238  22.711  0.00  0.00     0.008 A 
ATOM     26  C   UNL d   1     -39.235  13.894  22.228  0.00  0.00     0.012 A 
ENDBRANCH   5  22
TORSDOF 3
ENDMDL
