MODEL 1
REMARK VINA RESULT:      18.1      0.000      0.000
REMARK  3 active torsions:
REMARK  status: ('A' for Active; 'I' for Inactive)
REMARK    1  A    between atoms: S_11  and  C_2 
REMARK    2  A    between atoms: C_7  and  C_12 
REMARK    3  A    between atoms: C_12  and  S_11 
ROOT
ATOM      1  S   UNL d   1     -51.661  25.587  33.690  0.00  0.00    -0.058 SA
ENDROOT
BRANCH   1   2
ATOM      2  C   UNL d   1     -51.031  26.117  33.577  0.00  0.00     0.164 A 
ATOM      3  S   UNL d   1     -51.089  26.939  33.508  0.00  0.00    -0.039 SA
ATOM      4  C   UNL d   1     -50.328  27.241  33.403  0.00  0.00     0.134 A 
ATOM      5  N   UNL d   1     -49.794  26.606  33.408  0.00  0.00    -0.140 NA
ATOM      6  C   UNL d   1     -50.123  28.042  33.309  0.00  0.00     0.030 C 
ATOM      7  N   UNL d   1     -50.229  25.902  33.516  0.00  0.00    -0.134 NA
ENDBRANCH   1   2
BRANCH   1   8
ATOM      8  C   UNL d   1     -51.659  24.858  33.306  0.00  0.00     0.057 C 
BRANCH   8   9
ATOM      9  C   UNL d   1     -52.217  24.278  33.504  0.00  0.00     0.095 A 
ATOM     10  N   UNL d   1     -53.002  24.276  33.306  0.00  0.00    -0.238 NA
ATOM     11  C   UNL d   1     -53.343  23.604  33.613  0.00  0.00     0.111 A 
ATOM     12  C   UNL d   1     -54.130  23.367  33.553  0.00  0.00     0.028 C 
ATOM     13  S   UNL d   1     -52.764  23.189  34.003  0.00  0.00    -0.066 SA
ATOM     14  C   UNL d   1     -52.073  23.601  33.937  0.00  0.00     0.057 A 
ENDBRANCH   8   9
ENDBRANCH   1   8
TORSDOF 3
ENDMDL
