MODEL 1
REMARK VINA RESULT:      16.0      0.000      0.000
REMARK  1 active torsions:
REMARK  status: ('A' for Active; 'I' for Inactive)
REMARK    1  A    between atoms: C_6  and  C_1 
ROOT
ATOM      1  C   UNL d   1     -51.577  24.996  33.322  0.00  0.00     0.162 A 
ATOM      2  N   UNL d   1     -51.628  24.170  33.318  0.00  0.00    -0.225 NA
ATOM      3  N   UNL d   1     -52.328  25.305  33.325  0.00  0.00    -0.225 NA
ATOM      4  C   UNL d   1     -52.428  23.958  33.319  0.00  0.00     0.101 A 
ATOM      5  C   UNL d   1     -52.853  24.657  33.324  0.00  0.00     0.101 A 
ATOM      6  C   UNL d   1     -52.814  23.230  33.317  0.00  0.00     0.021 A 
ATOM      7  C   UNL d   1     -53.684  24.639  33.326  0.00  0.00     0.021 A 
ATOM      8  C   UNL d   1     -53.646  23.188  33.319  0.00  0.00     0.002 A 
ATOM      9  C   UNL d   1     -54.095  23.890  33.323  0.00  0.00     0.002 A 
ENDROOT
BRANCH   1  10
ATOM     10  C   UNL d   1     -50.879  25.378  33.322  0.00  0.00     0.036 A 
ATOM     11  C   UNL d   1     -50.172  24.947  33.316  0.00  0.00     0.005 A 
ATOM     12  C   UNL d   1     -49.444  25.334  33.316  0.00  0.00     0.030 A 
ATOM     13  C   UNL d   1     -49.416  26.157  33.322  0.00  0.00     0.140 A 
ATOM     14  C   UNL d   1     -50.119  26.592  33.328  0.00  0.00     0.030 A 
ATOM     15  F   UNL d   1     -48.670  26.540  33.321  0.00  0.00    -0.204 F 
ATOM     16  C   UNL d   1     -50.843  26.216  33.328  0.00  0.00     0.005 A 
ENDBRANCH   1  10
TORSDOF 1
ENDMDL
