MODEL 1
REMARK VINA RESULT:      -7.3      0.000      0.000
REMARK  5 active torsions:
REMARK  status: ('A' for Active; 'I' for Inactive)
REMARK    1  A    between atoms: C_14  and  N_4 
REMARK    2  A    between atoms: C_15  and  C_9 
REMARK    3  A    between atoms: O_20  and  C_12 
REMARK    4  A    between atoms: O_21  and  C_13 
REMARK    5  A    between atoms: C_18  and  C_14 
ROOT
ATOM      1  C   UNL d   1      52.476  34.127  53.847  0.00  0.00     0.056 A 
ATOM      2  C   UNL d   1      51.835  34.651  53.782  0.00  0.00     0.107 A 
ATOM      3  C   UNL d   1      51.205  34.474  53.284  0.00  0.00     0.038 A 
ATOM      4  N   UNL d   1      51.841  33.258  52.912  0.00  0.00    -0.304 N 
ATOM      5  N   UNL d   1      51.987  35.294  54.279  0.00  0.00    -0.148 NA
ATOM      6  C   UNL d   1      52.479  33.427  53.410  0.00  0.00     0.083 A 
ATOM      7  N   UNL d   1      52.715  35.170  54.649  0.00  0.00    -0.148 NA
ATOM      8  C   UNL d   1      51.208  33.773  52.846  0.00  0.00     0.068 A 
ATOM      9  C   UNL d   1      53.021  34.451  54.386  0.00  0.00     0.106 A 
ATOM     10  C   UNL d   1      50.577  33.603  52.352  0.00  0.00     0.044 A 
ATOM     11  C   UNL d   1      50.571  34.996  53.222  0.00  0.00     0.029 A 
ATOM     12  C   UNL d   1      49.943  34.118  52.286  0.00  0.00     0.118 A 
ATOM     13  C   UNL d   1      49.940  34.819  52.724  0.00  0.00     0.116 A 
ENDROOT
BRANCH   4  14
ATOM     14  C   UNL d   1      51.844  32.552  52.471  0.00  0.00     0.080 C 
BRANCH  14  15
ATOM     15  C   UNL d   1      52.221  31.883  52.767  0.00  0.00     0.018 A 
ATOM     16  C   UNL d   1      51.824  31.384  53.287  0.00  0.00     0.002 A 
ATOM     17  C   UNL d   1      52.202  30.708  53.587  0.00  0.00     0.000 A 
ATOM     18  C   UNL d   1      52.982  30.537  53.361  0.00  0.00     0.000 A 
ATOM     19  C   UNL d   1      53.379  31.044  52.836  0.00  0.00     0.000 A 
ATOM     20  C   UNL d   1      53.367  29.863  53.657  0.00  0.00     0.000 C 
ATOM     21  C   UNL d   1      53.001  31.712  52.540  0.00  0.00     0.002 A 
ENDBRANCH  14  15
ENDBRANCH   4  14
BRANCH   9  22
ATOM     22  C   UNL d   1      53.750  34.189  54.669  0.00  0.00     0.020 A 
ATOM     23  C   UNL d   1      54.438  34.376  54.257  0.00  0.00     0.004 A 
ATOM     24  C   UNL d   1      55.175  34.116  54.535  0.00  0.00     0.030 A 
ATOM     25  C   UNL d   1      55.213  33.662  55.238  0.00  0.00     0.140 A 
ATOM     26  C   UNL d   1      54.516  33.478  55.646  0.00  0.00     0.030 A 
ATOM     27  F   UNL d   1      55.939  33.393  55.532  0.00  0.00    -0.204 F 
ATOM     28  C   UNL d   1      53.789  33.740  55.363  0.00  0.00     0.004 A 
ENDBRANCH   9  22
BRANCH  12  29
ATOM     29  O   UNL d   1      49.302  33.941  51.780  0.00  0.00    -0.326 OA
ATOM     30  C   UNL d   1      49.369  34.059  50.965  0.00  0.00     0.181 C 
ENDBRANCH  12  29
BRANCH  13  31
ATOM     31  O   UNL d   1      49.296  35.343  52.657  0.00  0.00    -0.326 OA
ATOM     32  C   UNL d   1      48.858  35.548  53.327  0.00  0.00     0.181 C 
ENDBRANCH  13  31
TORSDOF 5
ENDMDL
MODEL 2
REMARK VINA RESULT:      -7.1      2.129      3.974
REMARK  5 active torsions:
REMARK  status: ('A' for Active; 'I' for Inactive)
REMARK    1  A    between atoms: C_14  and  N_4 
REMARK    2  A    between atoms: C_15  and  C_9 
REMARK    3  A    between atoms: O_20  and  C_12 
REMARK    4  A    between atoms: O_21  and  C_13 
REMARK    5  A    between atoms: C_18  and  C_14 
ROOT
ATOM      1  C   UNL d   1      53.331  32.832  54.175  0.00  0.00     0.056 A 
ATOM      2  C   UNL d   1      53.657  32.097  54.383  0.00  0.00     0.107 A 
ATOM      3  C   UNL d   1      53.379  31.408  54.030  0.00  0.00     0.038 A 
ATOM      4  N   UNL d   1      52.455  32.170  53.266  0.00  0.00    -0.304 N 
ATOM      5  N   UNL d   1      54.242  32.235  54.950  0.00  0.00    -0.148 NA
ATOM      6  C   UNL d   1      52.727  32.869  53.614  0.00  0.00     0.083 A 
ATOM      7  N   UNL d   1      54.279  33.048  55.093  0.00  0.00    -0.148 NA
ATOM      8  C   UNL d   1      52.775  31.444  53.469  0.00  0.00     0.068 A 
ATOM      9  C   UNL d   1      53.719  33.421  54.617  0.00  0.00     0.106 A 
ATOM     10  C   UNL d   1      52.503  30.753  53.122  0.00  0.00     0.044 A 
ATOM     11  C   UNL d   1      53.705  30.680  54.239  0.00  0.00     0.029 A 
ATOM     12  C   UNL d   1      52.823  30.027  53.325  0.00  0.00     0.118 A 
ATOM     13  C   UNL d   1      53.428  29.991  53.886  0.00  0.00     0.116 A 
ENDROOT
BRANCH   4  14
ATOM     14  C   UNL d   1      51.846  32.207  52.700  0.00  0.00     0.080 C 
BRANCH  14  15
ATOM     15  C   UNL d   1      51.359  32.870  52.661  0.00  0.00     0.018 A 
ATOM     16  C   UNL d   1      51.499  33.450  52.095  0.00  0.00     0.002 A 
ATOM     17  C   UNL d   1      51.010  34.120  52.053  0.00  0.00     0.000 A 
ATOM     18  C   UNL d   1      50.378  34.203  52.585  0.00  0.00     0.000 A 
ATOM     19  C   UNL d   1      50.240  33.615  53.155  0.00  0.00     0.000 A 
ATOM     20  C   UNL d   1      49.884  34.870  52.550  0.00  0.00     0.000 C 
ATOM     21  C   UNL d   1      50.727  32.953  53.193  0.00  0.00     0.002 A 
ENDBRANCH  14  15
ENDBRANCH   4  14
BRANCH   9  22
ATOM     22  C   UNL d   1      53.636  34.241  54.649  0.00  0.00     0.020 A 
ATOM     23  C   UNL d   1      54.007  34.711  54.083  0.00  0.00     0.004 A 
ATOM     24  C   UNL d   1      53.929  35.536  54.108  0.00  0.00     0.030 A 
ATOM     25  C   UNL d   1      53.470  35.887  54.714  0.00  0.00     0.140 A 
ATOM     26  C   UNL d   1      53.101  35.408  55.280  0.00  0.00     0.030 A 
ATOM     27  F   UNL d   1      53.380  36.709  54.756  0.00  0.00    -0.204 F 
ATOM     28  C   UNL d   1      53.183  34.590  55.248  0.00  0.00     0.004 A 
ENDBRANCH   9  22
BRANCH  12  29
ATOM     29  O   UNL d   1      52.543  29.325  52.968  0.00  0.00    -0.326 OA
ATOM     30  C   UNL d   1      52.539  29.248  52.145  0.00  0.00     0.181 C 
ENDBRANCH  12  29
BRANCH  13  31
ATOM     31  O   UNL d   1      53.754  29.252  54.093  0.00  0.00    -0.326 OA
ATOM     32  C   UNL d   1      53.657  28.956  54.859  0.00  0.00     0.181 C 
ENDBRANCH  13  31
TORSDOF 5
ENDMDL
