MODEL 1
REMARK VINA RESULT:     152.4      0.000      0.000
REMARK  7 active torsions:
REMARK  status: ('A' for Active; 'I' for Inactive)
REMARK    1  A    between atoms: C_25  and  N_5 
REMARK    2  A    between atoms: C_11  and  C_6 
REMARK       I    between atoms: N_19  and  C_11 
REMARK    3  A    between atoms: N_15  and  C_28 
REMARK    4  A    between atoms: C_27  and  N_19 
REMARK    5  A    between atoms: C_26  and  C_25 
REMARK    6  A    between atoms: C_28  and  C_26 
REMARK    7  A    between atoms: C_29  and  C_27 
ROOT
ATOM      1  C   UNL d   1      61.183  46.957  50.995  0.00  0.00     0.155 A 
ATOM      2  C   UNL d   1      60.893  47.011  50.224  0.00  0.00     0.091 A 
ATOM      3  N   UNL d   1      61.571  46.271  51.239  0.00  0.00    -0.210 NA
ATOM      4  N   UNL d   1      61.380  45.703  49.948  0.00  0.00    -0.258 N 
ATOM      5  N   UNL d   1      61.085  47.583  51.521  0.00  0.00    -0.274 N 
ATOM      6  C   UNL d   1      60.402  48.329  50.498  0.00  0.00     0.094 A 
ATOM      7  C   UNL d   1      60.993  46.380  49.698  0.00  0.00     0.269 A 
ATOM      8  C   UNL d   1      60.695  48.274  51.278  0.00  0.00     0.175 A 
ATOM      9  C   UNL d   1      61.667  45.653  50.719  0.00  0.00     0.152 A 
ATOM     10  C   UNL d   1      60.502  47.698  49.972  0.00  0.00     0.016 A 
ATOM     11  C   UNL d   1      61.484  45.067  49.430  0.00  0.00     0.084 A 
ATOM     12  C   UNL d   1      62.058  44.967  50.972  0.00  0.00     0.038 A 
ATOM     13  N   UNL d   1      60.597  48.901  51.803  0.00  0.00    -0.128 N 
ATOM     14  C   UNL d   1      61.871  44.389  49.680  0.00  0.00     0.018 A 
ATOM     15  C   UNL d   1      62.158  44.339  50.450  0.00  0.00     0.005 A 
ATOM     16  O   UNL d   1      60.704  46.435  48.927  0.00  0.00    -0.266 OA
ATOM     17  C   UNL d   1      61.974  43.761  49.168  0.00  0.00     0.002 C 
ENDROOT
BRANCH   6  18
ATOM     18  C   UNL d   1      60.017  49.006  50.252  0.00  0.00     0.282 C 
ATOM     19  N   UNL d   1      59.190  49.004  50.159  0.00  0.00    -0.206 NA
ATOM     20  O   UNL d   1      60.439  49.698  50.094  0.00  0.00    -0.265 OA
BRANCH  19  21
ATOM     21  C   UNL d   1      58.801  49.684  49.912  0.00  0.00     0.102 C 
BRANCH  21  22
ATOM     22  C   UNL d   1      57.983  49.666  49.765  0.00  0.00     0.019 A 
ATOM     23  C   UNL d   1      57.713  49.608  48.987  0.00  0.00     0.002 A 
ATOM     24  C   UNL d   1      56.900  49.589  48.828  0.00  0.00     0.000 A 
ATOM     25  C   UNL d   1      56.359  49.629  49.455  0.00  0.00     0.000 A 
ATOM     26  C   UNL d   1      56.641  49.687  50.239  0.00  0.00     0.000 A 
ATOM     27  C   UNL d   1      57.451  49.705  50.389  0.00  0.00     0.002 A 
ENDBRANCH  21  22
ENDBRANCH  19  21
ENDBRANCH   6  18
BRANCH   5  28
ATOM     28  C   UNL d   1      61.375  47.525  52.291  0.00  0.00     0.085 C 
BRANCH  28  29
ATOM     29  C   UNL d   1      61.393  46.793  52.669  0.00  0.00     0.038 C 
BRANCH  29  30
ATOM     30  C   UNL d   1      61.118  46.720  53.448  0.00  0.00     0.083 C 
BRANCH  30  31
ATOM     31  N   UNL d   1      61.647  46.563  54.061  0.00  0.00    -0.285 N 
ATOM     32  C   UNL d   1      61.476  46.148  54.745  0.00  0.00     0.183 A 
ATOM     33  N   UNL d   1      62.183  46.128  55.204  0.00  0.00    -0.222 NA
ATOM     34  C   UNL d   1      62.758  46.525  54.797  0.00  0.00     0.120 A 
ATOM     35  C   UNL d   1      62.433  46.797  54.088  0.00  0.00     0.102 A 
ENDBRANCH  30  31
ENDBRANCH  29  30
ENDBRANCH  28  29
ENDBRANCH   5  28
TORSDOF 7
ENDMDL
