MODEL 1
REMARK VINA RESULT:      96.5      0.000      0.000
REMARK  4 active torsions:
REMARK  status: ('A' for Active; 'I' for Inactive)
REMARK    1  A    between atoms: N_3  and  S_1 
REMARK    2  A    between atoms: C_6  and  S_1 
REMARK       I    between atoms: C_2  and  N_4 
REMARK       I    between atoms: N_5  and  C_2 
REMARK    3  A    between atoms: C_14  and  N_5 
REMARK    4  A    between atoms: C_15  and  N_5 
ROOT
ATOM      1  C   UNL d   1     -55.043-101.800 -38.751  0.00  0.00     0.339 C 
ATOM      2  N   UNL d   1     -55.006-101.634 -41.220  0.00  0.00    -0.226 N 
ATOM      3  N   UNL d   1     -55.030-101.744 -39.587  0.00  0.00    -0.254 N 
ATOM      4  N   UNL d   1     -54.981-101.134 -38.279  0.00  0.00    -0.260 N 
ATOM      5  C   UNL d   1     -55.083-102.381 -40.859  0.00  0.00     0.111 A 
ATOM      6  C   UNL d   1     -54.942-100.955 -40.760  0.00  0.00     0.111 A 
ATOM      7  O   UNL d   1     -55.120-102.547 -38.401  0.00  0.00    -0.245 OA
ATOM      8  C   UNL d   1     -54.954-101.009 -39.945  0.00  0.00     0.104 A 
ATOM      9  C   UNL d   1     -55.095-102.436 -40.043  0.00  0.00     0.104 A 
ENDROOT
BRANCH   4  10
ATOM     10  C   UNL d   1     -54.903-100.378 -38.641  0.00  0.00     0.068 A 
ATOM     11  C   UNL d   1     -54.906 -99.695 -38.159  0.00  0.00     0.018 A 
ATOM     12  C   UNL d   1     -54.829 -98.944 -38.508  0.00  0.00     0.002 A 
ATOM     13  C   UNL d   1     -54.750 -98.881 -39.340  0.00  0.00     0.000 A 
ATOM     14  C   UNL d   1     -54.747 -99.568 -39.817  0.00  0.00     0.002 A 
ATOM     15  C   UNL d   1     -54.825-100.324 -39.460  0.00  0.00     0.018 A 
ENDBRANCH   4  10
BRANCH   4  16
ATOM     16  C   UNL d   1     -54.994-101.201 -37.470  0.00  0.00     0.068 A 
ATOM     17  C   UNL d   1     -55.296-101.888 -37.119  0.00  0.00     0.018 A 
ATOM     18  C   UNL d   1     -55.312-101.959 -36.305  0.00  0.00     0.002 A 
ATOM     19  C   UNL d   1     -55.026-101.347 -35.834  0.00  0.00     0.000 A 
ATOM     20  C   UNL d   1     -54.726-100.665 -36.185  0.00  0.00     0.002 A 
ATOM     21  C   UNL d   1     -54.712-100.598 -36.999  0.00  0.00     0.018 A 
ENDBRANCH   4  16
BRANCH   2  22
ATOM     22  S   UNL d   1     -54.993-101.578 -42.043  0.00  0.00     0.271 S 
ATOM     23  O   UNL d   1     -54.715-100.893 -42.407  0.00  0.00    -0.200 OA
ATOM     24  O   UNL d   1     -55.259-102.207 -42.503  0.00  0.00    -0.200 OA
BRANCH  22  25
ATOM     25  C   UNL d   1     -54.981-101.523 -42.866  0.00  0.00     0.104 A 
ATOM     26  C   UNL d   1     -55.024-102.213 -43.327  0.00  0.00     0.013 A 
ATOM     27  C   UNL d   1     -55.012-102.157 -44.150  0.00  0.00     0.001 A 
ATOM     28  C   UNL d   1     -54.956-101.412 -44.512  0.00  0.00     0.000 A 
ATOM     29  C   UNL d   1     -54.913-100.730 -44.048  0.00  0.00     0.001 A 
ATOM     30  C   UNL d   1     -54.944-101.357 -45.335  0.00  0.00     0.000 C 
ATOM     31  C   UNL d   1     -54.926-100.785 -43.230  0.00  0.00     0.013 A 
ENDBRANCH  22  25
ENDBRANCH   2  22
TORSDOF 4
ENDMDL
