MODEL 1
REMARK VINA RESULT:       0.7      0.000      0.000
REMARK  6 active torsions:
REMARK  status: ('A' for Active; 'I' for Inactive)
REMARK    1  A    between atoms: C_3  and  C_1 
REMARK    2  A    between atoms: N_9  and  C_3 
REMARK    3  A    between atoms: C_13  and  C_3 
REMARK    4  A    between atoms: N_4  and  C_10 
REMARK    5  A    between atoms: C_19  and  C_8 
REMARK    6  A    between atoms: C_15  and  N_9 
ROOT
ATOM      1  C   UNL d   1      58.733  -0.506  29.938  0.00  0.00     0.125 C 
ENDROOT
BRANCH   1   2
ATOM      2  C   UNL d   1      59.493  -0.150  29.902  0.00  0.00     0.161 A 
ATOM      3  C   UNL d   1      59.809   0.090  29.189  0.00  0.00     0.258 A 
ATOM      4  C   UNL d   1      60.564   0.441  29.168  0.00  0.00     0.238 A 
ATOM      5  O   UNL d   1      59.384  -0.011  28.470  0.00  0.00    -0.281 OA
ATOM      6  O   UNL d   1      60.880   0.681  28.455  0.00  0.00    -0.283 OA
ATOM      7  C   UNL d   1      60.991   0.545  29.866  0.00  0.00     0.073 A 
ATOM      8  C   UNL d   1      60.675   0.305  30.579  0.00  0.00     0.146 A 
ATOM      9  O   UNL d   1      59.927  -0.043  30.605  0.00  0.00    -0.299 OA
BRANCH   8  10
ATOM     10  C   UNL d   1      61.108   0.412  31.281  0.00  0.00     0.259 C 
ATOM     11  O   UNL d   1      60.963  -0.051  31.944  0.00  0.00    -0.281 OA
ENDBRANCH   8  10
ENDBRANCH   1   2
BRANCH   1  12
ATOM     12  N   UNL d   1      58.071  -0.060  30.108  0.00  0.00    -0.242 NA
BRANCH  12  13
ATOM     13  C   UNL d   1      57.804   0.010  30.871  0.00  0.00     0.083 A 
ATOM     14  C   UNL d   1      57.250  -0.537  31.163  0.00  0.00     0.043 A 
ATOM     15  C   UNL d   1      56.972  -0.473  31.941  0.00  0.00     0.128 A 
ATOM     16  C   UNL d   1      57.242   0.128  32.422  0.00  0.00     0.024 A 
ATOM     17  C   UNL d   1      57.794   0.674  32.133  0.00  0.00     0.003 A 
ATOM     18  C   UNL d   1      58.074   0.611  31.353  0.00  0.00     0.019 A 
BRANCH  15  19
ATOM     19  N   UNL d   1      56.422  -1.011  32.239  0.00  0.00    -0.114 N 
ATOM     20  O   UNL d   1      55.594  -0.907  32.193  0.00  0.00    -0.532 OA
ATOM     21  O   UNL d   1      56.617  -1.711  32.617  0.00  0.00    -0.532 OA
ENDBRANCH  15  19
ENDBRANCH  12  13
ENDBRANCH   1  12
BRANCH   1  22
ATOM     22  C   UNL d   1      58.660  -1.319  29.798  0.00  0.00     0.101 A 
ATOM     23  N   UNL d   1      59.115  -1.861  30.235  0.00  0.00    -0.242 NA
ATOM     24  C   UNL d   1      59.041  -2.671  30.095  0.00  0.00     0.099 A 
ATOM     25  C   UNL d   1      58.521  -2.942  29.527  0.00  0.00     0.021 A 
ATOM     26  C   UNL d   1      58.080  -2.400  29.105  0.00  0.00     0.003 A 
ATOM     27  C   UNL d   1      58.144  -1.604  29.234  0.00  0.00     0.021 A 
ENDBRANCH   1  22
TORSDOF 6
ENDMDL
MODEL 2
REMARK VINA RESULT:       2.0      1.763      2.905
REMARK  6 active torsions:
REMARK  status: ('A' for Active; 'I' for Inactive)
REMARK    1  A    between atoms: C_3  and  C_1 
REMARK    2  A    between atoms: N_9  and  C_3 
REMARK    3  A    between atoms: C_13  and  C_3 
REMARK    4  A    between atoms: N_4  and  C_10 
REMARK    5  A    between atoms: C_19  and  C_8 
REMARK    6  A    between atoms: C_15  and  N_9 
ROOT
ATOM      1  C   UNL d   1      57.762   0.111  31.315  0.00  0.00     0.125 C 
ENDROOT
BRANCH   1   2
ATOM      2  C   UNL d   1      57.989  -0.264  30.598  0.00  0.00     0.161 A 
ATOM      3  C   UNL d   1      57.722   0.014  29.879  0.00  0.00     0.258 A 
ATOM      4  C   UNL d   1      57.954  -0.367  29.176  0.00  0.00     0.238 A 
ATOM      5  O   UNL d   1      57.212   0.682  29.833  0.00  0.00    -0.281 OA
ATOM      6  O   UNL d   1      57.687  -0.090  28.457  0.00  0.00    -0.283 OA
ATOM      7  C   UNL d   1      58.453  -1.023  29.207  0.00  0.00     0.073 A 
ATOM      8  C   UNL d   1      58.721  -1.301  29.927  0.00  0.00     0.146 A 
ATOM      9  O   UNL d   1      58.492  -0.926  30.625  0.00  0.00    -0.299 OA
BRANCH   8  10
ATOM     10  C   UNL d   1      59.224  -1.962  29.954  0.00  0.00     0.259 C 
ATOM     11  O   UNL d   1      59.170  -2.560  29.394  0.00  0.00    -0.281 OA
ENDBRANCH   8  10
ENDBRANCH   1   2
BRANCH   1  12
ATOM     12  N   UNL d   1      56.980   0.287  31.465  0.00  0.00    -0.242 NA
BRANCH  12  13
ATOM     13  C   UNL d   1      56.546  -0.162  31.983  0.00  0.00     0.083 A 
ATOM     14  C   UNL d   1      56.092   0.214  32.569  0.00  0.00     0.043 A 
ATOM     15  C   UNL d   1      55.646  -0.236  33.104  0.00  0.00     0.128 A 
ATOM     16  C   UNL d   1      55.653  -1.050  33.055  0.00  0.00     0.024 A 
ATOM     17  C   UNL d   1      56.105  -1.427  32.472  0.00  0.00     0.003 A 
ATOM     18  C   UNL d   1      56.553  -0.976  31.935  0.00  0.00     0.019 A 
BRANCH  15  19
ATOM     19  N   UNL d   1      55.192   0.129  33.689  0.00  0.00    -0.114 N 
ATOM     20  O   UNL d   1      54.430   0.445  33.558  0.00  0.00    -0.532 OA
ATOM     21  O   UNL d   1      55.430   0.225  34.467  0.00  0.00    -0.532 OA
ENDBRANCH  15  19
ENDBRANCH  12  13
ENDBRANCH   1  12
BRANCH   1  22
ATOM     22  C   UNL d   1      58.344   0.302  31.873  0.00  0.00     0.101 A 
ATOM     23  N   UNL d   1      59.144   0.337  31.648  0.00  0.00    -0.242 NA
ATOM     24  C   UNL d   1      59.722   0.527  32.205  0.00  0.00     0.099 A 
ATOM     25  C   UNL d   1      59.510   0.682  32.978  0.00  0.00     0.021 A 
ATOM     26  C   UNL d   1      58.722   0.645  33.187  0.00  0.00     0.003 A 
ATOM     27  C   UNL d   1      58.147   0.459  32.649  0.00  0.00     0.021 A 
ENDBRANCH   1  22
TORSDOF 6
ENDMDL
