MODEL 1
REMARK VINA RESULT:      -3.0      0.000      0.000
REMARK  4 active torsions:
REMARK  status: ('A' for Active; 'I' for Inactive)
REMARK    1  A    between atoms: C_11  and  N_2 
REMARK    2  A    between atoms: C_9  and  C_3 
REMARK    3  A    between atoms: C_12  and  C_11 
REMARK    4  A    between atoms: O_19  and  C_16 
ROOT
ATOM      1  N   UNL d   1      56.931  -0.391  31.175  0.00  0.00    -0.206 NA
ATOM      2  N   UNL d   1      57.902   0.300  31.772  0.00  0.00    -0.273 N 
ATOM      3  C   UNL d   1      57.694  -0.096  31.077  0.00  0.00     0.151 A 
ATOM      4  C   UNL d   1      57.271   0.250  32.294  0.00  0.00     0.185 A 
ATOM      5  C   UNL d   1      56.665  -0.179  31.927  0.00  0.00     0.199 A 
ATOM      6  N   UNL d   1      57.155   0.540  33.073  0.00  0.00    -0.224 NA
ATOM      7  N   UNL d   1      55.964  -0.316  32.323  0.00  0.00    -0.223 NA
ATOM      8  C   UNL d   1      56.442   0.395  33.462  0.00  0.00     0.101 A 
ATOM      9  C   UNL d   1      55.846  -0.034  33.085  0.00  0.00     0.101 A 
ATOM     10  C   UNL d   1      56.331   0.682  34.229  0.00  0.00     0.021 A 
ATOM     11  C   UNL d   1      55.140  -0.174  33.478  0.00  0.00     0.021 A 
ATOM     12  C   UNL d   1      55.021   0.106  34.238  0.00  0.00     0.002 A 
ATOM     13  C   UNL d   1      55.618   0.537  34.618  0.00  0.00     0.002 A 
ENDROOT
BRANCH   3  14
ATOM     14  C   UNL d   1      58.166  -0.178  30.415  0.00  0.00     0.035 A 
ATOM     15  C   UNL d   1      58.484  -0.896  30.223  0.00  0.00     0.005 A 
ATOM     16  C   UNL d   1      58.942  -0.959  29.573  0.00  0.00     0.024 A 
ATOM     17  C   UNL d   1      59.094  -0.297  29.098  0.00  0.00     0.094 A 
ATOM     18  C   UNL d   1      58.782   0.412  29.284  0.00  0.00     0.024 A 
ATOM     19  C   UNL d   1      58.317   0.485  29.939  0.00  0.00     0.005 A 
BRANCH  17  20
ATOM     20  O   UNL d   1      59.554  -0.391  28.457  0.00  0.00    -0.328 OA
ATOM     21  C   UNL d   1      60.556  -0.550  28.537  0.00  0.00     0.181 C 
ENDBRANCH  17  20
ENDBRANCH   3  14
BRANCH   2  22
ATOM     22  C   UNL d   1      58.623   0.682  31.916  0.00  0.00     0.083 C 
BRANCH  22  23
ATOM     23  C   UNL d   1      59.021   0.559  32.624  0.00  0.00     0.019 C 
ATOM     24  C   UNL d   1      59.836   0.682  32.672  0.00  0.00     0.002 C 
ENDBRANCH  22  23
ENDBRANCH   2  22
TORSDOF 4
ENDMDL
MODEL 2
REMARK VINA RESULT:      -2.8      1.696      4.524
REMARK  4 active torsions:
REMARK  status: ('A' for Active; 'I' for Inactive)
REMARK    1  A    between atoms: C_11  and  N_2 
REMARK    2  A    between atoms: C_9  and  C_3 
REMARK    3  A    between atoms: C_12  and  C_11 
REMARK    4  A    between atoms: O_19  and  C_16 
ROOT
ATOM      1  N   UNL d   1      57.003  -0.715  31.090  0.00  0.00    -0.206 NA
ATOM      2  N   UNL d   1      57.827   0.135  31.702  0.00  0.00    -0.273 N 
ATOM      3  C   UNL d   1      57.097  -0.246  31.761  0.00  0.00     0.151 A 
ATOM      4  C   UNL d   1      58.182  -0.098  31.000  0.00  0.00     0.185 A 
ATOM      5  C   UNL d   1      57.673  -0.626  30.615  0.00  0.00     0.199 A 
ATOM      6  N   UNL d   1      58.915   0.099  30.642  0.00  0.00    -0.224 NA
ATOM      7  N   UNL d   1      57.886  -0.949  29.897  0.00  0.00    -0.223 NA
ATOM      8  C   UNL d   1      59.118  -0.235  29.915  0.00  0.00     0.101 A 
ATOM      9  C   UNL d   1      58.602  -0.759  29.543  0.00  0.00     0.101 A 
ATOM     10  C   UNL d   1      59.841  -0.039  29.565  0.00  0.00     0.021 A 
ATOM     11  C   UNL d   1      58.812  -1.087  28.820  0.00  0.00     0.021 A 
ATOM     12  C   UNL d   1      59.525  -0.899  28.466  0.00  0.00     0.002 A 
ATOM     13  C   UNL d   1      60.045  -0.373  28.839  0.00  0.00     0.002 A 
ENDROOT
BRANCH   3  14
ATOM     14  C   UNL d   1      56.566  -0.167  32.378  0.00  0.00     0.035 A 
ATOM     15  C   UNL d   1      56.265   0.558  32.570  0.00  0.00     0.005 A 
ATOM     16  C   UNL d   1      55.748   0.618  33.175  0.00  0.00     0.024 A 
ATOM     17  C   UNL d   1      55.520  -0.054  33.603  0.00  0.00     0.094 A 
ATOM     18  C   UNL d   1      55.815  -0.769  33.416  0.00  0.00     0.024 A 
ATOM     19  C   UNL d   1      56.338  -0.839  32.806  0.00  0.00     0.005 A 
BRANCH  17  20
ATOM     20  O   UNL d   1      55.003   0.038  34.200  0.00  0.00    -0.328 OA
ATOM     21  C   UNL d   1      55.214   0.623  35.005  0.00  0.00     0.181 C 
ENDBRANCH  17  20
ENDBRANCH   3  14
BRANCH   2  22
ATOM     22  C   UNL d   1      58.147   0.660  32.257  0.00  0.00     0.083 C 
BRANCH  22  23
ATOM     23  C   UNL d   1      58.959   0.682  32.385  0.00  0.00     0.019 C 
ATOM     24  C   UNL d   1      59.262   0.628  33.151  0.00  0.00     0.002 C 
ENDBRANCH  22  23
ENDBRANCH   2  22
TORSDOF 4
ENDMDL
MODEL 3
REMARK VINA RESULT:      -0.9      2.072      4.940
REMARK  4 active torsions:
REMARK  status: ('A' for Active; 'I' for Inactive)
REMARK    1  A    between atoms: C_11  and  N_2 
REMARK    2  A    between atoms: C_9  and  C_3 
REMARK    3  A    between atoms: C_12  and  C_11 
REMARK    4  A    between atoms: O_19  and  C_16 
ROOT
ATOM      1  N   UNL d   1      56.671   0.682  32.372  0.00  0.00    -0.206 NA
ATOM      2  N   UNL d   1      56.542  -0.629  32.577  0.00  0.00    -0.273 N 
ATOM      3  C   UNL d   1      56.351   0.116  32.879  0.00  0.00     0.151 A 
ATOM      4  C   UNL d   1      56.977  -0.523  31.889  0.00  0.00     0.185 A 
ATOM      5  C   UNL d   1      57.059   0.291  31.758  0.00  0.00     0.199 A 
ATOM      6  N   UNL d   1      57.320  -1.062  31.347  0.00  0.00    -0.224 NA
ATOM      7  N   UNL d   1      57.471   0.560  31.107  0.00  0.00    -0.223 NA
ATOM      8  C   UNL d   1      57.734  -0.778  30.692  0.00  0.00     0.101 A 
ATOM      9  C   UNL d   1      57.809   0.035  30.573  0.00  0.00     0.101 A 
ATOM     10  C   UNL d   1      58.071  -1.312  30.159  0.00  0.00     0.021 A 
ATOM     11  C   UNL d   1      58.222   0.311  29.919  0.00  0.00     0.021 A 
ATOM     12  C   UNL d   1      58.559  -0.210  29.387  0.00  0.00     0.002 A 
ATOM     13  C   UNL d   1      58.485  -1.027  29.505  0.00  0.00     0.002 A 
ENDROOT
BRANCH   3  14
ATOM     14  C   UNL d   1      55.921   0.260  33.559  0.00  0.00     0.035 A 
ATOM     15  C   UNL d   1      56.292   0.312  34.276  0.00  0.00     0.005 A 
ATOM     16  C   UNL d   1      55.857   0.452  34.931  0.00  0.00     0.024 A 
ATOM     17  C   UNL d   1      55.035   0.543  34.880  0.00  0.00     0.094 A 
ATOM     18  C   UNL d   1      54.667   0.492  34.176  0.00  0.00     0.024 A 
ATOM     19  C   UNL d   1      55.098   0.350  33.509  0.00  0.00     0.005 A 
BRANCH  17  20
ATOM     20  O   UNL d   1      54.630   0.682  35.549  0.00  0.00    -0.328 OA
ATOM     21  C   UNL d   1      53.613   0.682  35.569  0.00  0.00     0.181 C 
ENDBRANCH  17  20
ENDBRANCH   3  14
BRANCH   2  22
ATOM     22  C   UNL d   1      56.331  -1.357  32.911  0.00  0.00     0.083 C 
BRANCH  22  23
ATOM     23  C   UNL d   1      55.760  -1.826  32.552  0.00  0.00     0.019 C 
ATOM     24  C   UNL d   1      55.490  -2.513  32.922  0.00  0.00     0.002 C 
ENDBRANCH  22  23
ENDBRANCH   2  22
TORSDOF 4
ENDMDL
