MODEL 1
REMARK VINA RESULT:      -7.3      0.000      0.000
REMARK  3 active torsions:
REMARK  status: ('A' for Active; 'I' for Inactive)
REMARK    1  A    between atoms: C_3  and  C_1 
REMARK       I    between atoms: N_7  and  C_3 
REMARK    2  A    between atoms: C_11  and  N_7 
REMARK    3  A    between atoms: O_17  and  C_12 
ROOT
ATOM      1  C   UNL d   1     -46.494  13.024  23.012  0.00  0.00     0.121 A 
ATOM      2  C   UNL d   1     -45.795  13.203  22.655  0.00  0.00     0.305 A 
ATOM      3  C   UNL d   1     -46.598  12.278  23.363  0.00  0.00     0.012 A 
ATOM      4  O   UNL d   1     -45.188  12.639  22.643  0.00  0.00    -0.273 OA
ATOM      5  C   UNL d   1     -45.991  11.725  23.347  0.00  0.00     0.023 A 
ATOM      6  C   UNL d   1     -45.291  11.904  22.990  0.00  0.00     0.103 A 
ATOM      7  O   UNL d   1     -45.693  13.943  22.306  0.00  0.00    -0.259 OA
ATOM      8  C   UNL d   1     -46.096  10.983  23.698  0.00  0.00     0.002 A 
ATOM      9  C   UNL d   1     -44.686  11.343  22.978  0.00  0.00     0.025 A 
ATOM     10  C   UNL d   1     -44.786  10.599  23.327  0.00  0.00     0.002 A 
ATOM     11  C   UNL d   1     -45.485  10.421  23.684  0.00  0.00     0.000 A 
ENDROOT
BRANCH   1  12
ATOM     12  C   UNL d   1     -47.103  13.583  23.026  0.00  0.00     0.284 C 
ATOM     13  N   UNL d   1     -47.871  13.385  22.801  0.00  0.00    -0.208 NA
ATOM     14  O   UNL d   1     -46.972  14.361  23.267  0.00  0.00    -0.265 OA
BRANCH  13  15
ATOM     15  C   UNL d   1     -48.445  13.941  22.823  0.00  0.00     0.085 A 
ATOM     16  C   UNL d   1     -49.061  13.907  23.379  0.00  0.00     0.021 A 
ATOM     17  C   UNL d   1     -49.648  14.466  23.409  0.00  0.00     0.026 A 
ATOM     18  C   UNL d   1     -49.626  15.108  22.849  0.00  0.00     0.094 A 
ATOM     19  C   UNL d   1     -48.998  15.142  22.282  0.00  0.00     0.026 A 
ATOM     20  C   UNL d   1     -48.432  14.559  22.289  0.00  0.00     0.021 A 
BRANCH  18  21
ATOM     21  O   UNL d   1     -50.212  15.689  22.859  0.00  0.00    -0.328 OA
ATOM     22  C   UNL d   1     -50.542  15.914  23.581  0.00  0.00     0.181 C 
ENDBRANCH  18  21
ENDBRANCH  13  15
ENDBRANCH   1  12
TORSDOF 3
ENDMDL
MODEL 2
REMARK VINA RESULT:      -7.2      0.975      4.710
REMARK  3 active torsions:
REMARK  status: ('A' for Active; 'I' for Inactive)
REMARK    1  A    between atoms: C_3  and  C_1 
REMARK       I    between atoms: N_7  and  C_3 
REMARK    2  A    between atoms: C_11  and  N_7 
REMARK    3  A    between atoms: O_17  and  C_12 
ROOT
ATOM      1  C   UNL d   1     -48.034  14.386  22.878  0.00  0.00     0.121 A 
ATOM      2  C   UNL d   1     -48.152  15.141  22.624  0.00  0.00     0.305 A 
ATOM      3  C   UNL d   1     -48.677  13.940  23.157  0.00  0.00     0.012 A 
ATOM      4  O   UNL d   1     -48.915  15.463  22.646  0.00  0.00    -0.273 OA
ATOM      5  C   UNL d   1     -49.431  14.268  23.174  0.00  0.00     0.023 A 
ATOM      6  C   UNL d   1     -49.548  15.023  22.921  0.00  0.00     0.103 A 
ATOM      7  O   UNL d   1     -47.512  15.582  22.348  0.00  0.00    -0.259 OA
ATOM      8  C   UNL d   1     -50.070  13.822  23.453  0.00  0.00     0.002 A 
ATOM      9  C   UNL d   1     -50.308  15.345  22.942  0.00  0.00     0.025 A 
ATOM     10  C   UNL d   1     -50.951  14.903  23.219  0.00  0.00     0.002 A 
ATOM     11  C   UNL d   1     -50.833  14.148  23.472  0.00  0.00     0.000 A 
ENDROOT
BRANCH   1  12
ATOM     12  C   UNL d   1     -47.274  14.059  22.859  0.00  0.00     0.284 C 
ATOM     13  N   UNL d   1     -47.111  13.381  22.420  0.00  0.00    -0.208 NA
ATOM     14  O   UNL d   1     -46.647  14.395  23.277  0.00  0.00    -0.265 OA
BRANCH  13  15
ATOM     15  C   UNL d   1     -46.370  13.082  22.416  0.00  0.00     0.085 A 
ATOM     16  C   UNL d   1     -45.783  13.383  21.912  0.00  0.00     0.021 A 
ATOM     17  C   UNL d   1     -45.027  13.086  21.900  0.00  0.00     0.026 A 
ATOM     18  C   UNL d   1     -44.837  12.443  22.426  0.00  0.00     0.094 A 
ATOM     19  C   UNL d   1     -45.436  12.136  22.940  0.00  0.00     0.026 A 
ATOM     20  C   UNL d   1     -46.178  12.465  22.917  0.00  0.00     0.021 A 
BRANCH  18  21
ATOM     21  O   UNL d   1     -44.076  12.123  22.434  0.00  0.00    -0.328 OA
ATOM     22  C   UNL d   1     -43.556  12.310  21.821  0.00  0.00     0.181 C 
ENDBRANCH  18  21
ENDBRANCH  13  15
ENDBRANCH   1  12
TORSDOF 3
ENDMDL
MODEL 3
REMARK VINA RESULT:      -6.3      1.351      2.048
REMARK  3 active torsions:
REMARK  status: ('A' for Active; 'I' for Inactive)
REMARK    1  A    between atoms: C_3  and  C_1 
REMARK       I    between atoms: N_7  and  C_3 
REMARK    2  A    between atoms: C_11  and  N_7 
REMARK    3  A    between atoms: O_17  and  C_12 
ROOT
ATOM      1  C   UNL d   1     -45.686  12.792  22.706  0.00  0.00     0.121 A 
ATOM      2  C   UNL d   1     -45.371  12.156  23.085  0.00  0.00     0.305 A 
ATOM      3  C   UNL d   1     -45.250  13.175  22.111  0.00  0.00     0.012 A 
ATOM      4  O   UNL d   1     -44.614  11.892  22.875  0.00  0.00    -0.273 OA
ATOM      5  C   UNL d   1     -44.500  12.906  21.910  0.00  0.00     0.023 A 
ATOM      6  C   UNL d   1     -44.185  12.270  22.289  0.00  0.00     0.103 A 
ATOM      7  O   UNL d   1     -45.804  11.777  23.675  0.00  0.00    -0.259 OA
ATOM      8  C   UNL d   1     -44.068  13.289  21.317  0.00  0.00     0.002 A 
ATOM      9  C   UNL d   1     -43.431  12.005  22.081  0.00  0.00     0.025 A 
ATOM     10  C   UNL d   1     -42.994  12.384  21.489  0.00  0.00     0.002 A 
ATOM     11  C   UNL d   1     -43.310  13.020  21.110  0.00  0.00     0.000 A 
ENDROOT
BRANCH   1  12
ATOM     12  C   UNL d   1     -46.441  13.061  22.911  0.00  0.00     0.284 C 
ATOM     13  N   UNL d   1     -47.048  13.097  22.355  0.00  0.00    -0.208 NA
ATOM     14  O   UNL d   1     -46.621  13.305  23.679  0.00  0.00    -0.265 OA
BRANCH  13  15
ATOM     15  C   UNL d   1     -47.770  13.360  22.575  0.00  0.00     0.085 A 
ATOM     16  C   UNL d   1     -47.945  14.170  22.608  0.00  0.00     0.021 A 
ATOM     17  C   UNL d   1     -48.675  14.448  22.830  0.00  0.00     0.026 A 
ATOM     18  C   UNL d   1     -49.278  13.881  23.034  0.00  0.00     0.094 A 
ATOM     19  C   UNL d   1     -49.100  13.055  23.000  0.00  0.00     0.026 A 
ATOM     20  C   UNL d   1     -48.354  12.824  22.773  0.00  0.00     0.021 A 
BRANCH  18  21
ATOM     21  O   UNL d   1     -50.029  14.137  23.263  0.00  0.00    -0.328 OA
ATOM     22  C   UNL d   1     -50.584  13.581  23.514  0.00  0.00     0.181 C 
ENDBRANCH  18  21
ENDBRANCH  13  15
ENDBRANCH   1  12
TORSDOF 3
ENDMDL
MODEL 4
REMARK VINA RESULT:      -6.0      8.270      8.621
REMARK  3 active torsions:
REMARK  status: ('A' for Active; 'I' for Inactive)
REMARK    1  A    between atoms: C_3  and  C_1 
REMARK       I    between atoms: N_7  and  C_3 
REMARK    2  A    between atoms: C_11  and  N_7 
REMARK    3  A    between atoms: O_17  and  C_12 
ROOT
ATOM      1  C   UNL d   1     -39.303  14.748  20.941  0.00  0.00     0.121 A 
ATOM      2  C   UNL d   1     -39.501  15.220  21.562  0.00  0.00     0.305 A 
ATOM      3  C   UNL d   1     -38.886  14.042  21.077  0.00  0.00     0.012 A 
ATOM      4  O   UNL d   1     -39.285  14.995  22.329  0.00  0.00    -0.273 OA
ATOM      5  C   UNL d   1     -38.676  13.827  21.841  0.00  0.00     0.023 A 
ATOM      6  C   UNL d   1     -38.874  14.299  22.462  0.00  0.00     0.103 A 
ATOM      7  O   UNL d   1     -39.915  15.920  21.425  0.00  0.00    -0.259 OA
ATOM      8  C   UNL d   1     -38.260  13.123  21.975  0.00  0.00     0.002 A 
ATOM      9  C   UNL d   1     -38.660  14.076  23.228  0.00  0.00     0.025 A 
ATOM     10  C   UNL d   1     -38.244  13.374  23.367  0.00  0.00     0.002 A 
ATOM     11  C   UNL d   1     -38.046  12.901  22.746  0.00  0.00     0.000 A 
ENDROOT
BRANCH   1  12
ATOM     12  C   UNL d   1     -39.515  14.967  20.172  0.00  0.00     0.284 C 
ATOM     13  N   UNL d   1     -40.040  14.514  19.727  0.00  0.00    -0.208 NA
ATOM     14  O   UNL d   1     -39.213  15.648  19.816  0.00  0.00    -0.265 OA
BRANCH  13  15
ATOM     15  C   UNL d   1     -40.232  14.744  18.986  0.00  0.00     0.085 A 
ATOM     16  C   UNL d   1     -40.674  15.433  18.846  0.00  0.00     0.021 A 
ATOM     17  C   UNL d   1     -40.874  15.676  18.098  0.00  0.00     0.026 A 
ATOM     18  C   UNL d   1     -40.617  15.202  17.437  0.00  0.00     0.094 A 
ATOM     19  C   UNL d   1     -40.167  14.500  17.580  0.00  0.00     0.026 A 
ATOM     20  C   UNL d   1     -39.990  14.297  18.347  0.00  0.00     0.021 A 
BRANCH  18  21
ATOM     21  O   UNL d   1     -40.807  15.427  16.666  0.00  0.00    -0.328 OA
ATOM     22  C   UNL d   1     -41.527  15.805  16.524  0.00  0.00     0.181 C 
ENDBRANCH  18  21
ENDBRANCH  13  15
ENDBRANCH   1  12
TORSDOF 3
ENDMDL
MODEL 5
REMARK VINA RESULT:      -5.4      8.646      9.699
REMARK  3 active torsions:
REMARK  status: ('A' for Active; 'I' for Inactive)
REMARK    1  A    between atoms: C_3  and  C_1 
REMARK       I    between atoms: N_7  and  C_3 
REMARK    2  A    between atoms: C_11  and  N_7 
REMARK    3  A    between atoms: O_17  and  C_12 
ROOT
ATOM      1  C   UNL d   1     -39.235  14.449  18.605  0.00  0.00     0.121 A 
ATOM      2  C   UNL d   1     -39.691  14.904  18.122  0.00  0.00     0.305 A 
ATOM      3  C   UNL d   1     -38.676  13.929  18.275  0.00  0.00     0.012 A 
ATOM      4  O   UNL d   1     -39.595  14.847  17.301  0.00  0.00    -0.273 OA
ATOM      5  C   UNL d   1     -38.589  13.880  17.460  0.00  0.00     0.023 A 
ATOM      6  C   UNL d   1     -39.044  14.335  16.977  0.00  0.00     0.103 A 
ATOM      7  O   UNL d   1     -40.244  15.418  18.451  0.00  0.00    -0.259 OA
ATOM      8  C   UNL d   1     -38.031  13.362  17.133  0.00  0.00     0.002 A 
ATOM      9  C   UNL d   1     -38.951  14.279  16.158  0.00  0.00     0.025 A 
ATOM     10  C   UNL d   1     -38.395  13.763  15.826  0.00  0.00     0.002 A 
ATOM     11  C   UNL d   1     -37.940  13.308  16.310  0.00  0.00     0.000 A 
ENDROOT
BRANCH   1  12
ATOM     12  C   UNL d   1     -39.325  14.501  19.426  0.00  0.00     0.284 C 
ATOM     13  N   UNL d   1     -38.694  14.709  19.913  0.00  0.00    -0.208 NA
ATOM     14  O   UNL d   1     -40.048  14.347  19.793  0.00  0.00    -0.265 OA
BRANCH  13  15
ATOM     15  C   UNL d   1     -38.803  14.753  20.704  0.00  0.00     0.085 A 
ATOM     16  C   UNL d   1     -38.806  14.074  21.180  0.00  0.00     0.021 A 
ATOM     17  C   UNL d   1     -38.916  14.108  21.984  0.00  0.00     0.026 A 
ATOM     18  C   UNL d   1     -39.032  14.872  22.344  0.00  0.00     0.094 A 
ATOM     19  C   UNL d   1     -39.029  15.564  21.858  0.00  0.00     0.026 A 
ATOM     20  C   UNL d   1     -38.915  15.481  21.058  0.00  0.00     0.021 A 
BRANCH  18  21
ATOM     21  O   UNL d   1     -39.147  14.934  23.159  0.00  0.00    -0.328 OA
ATOM     22  C   UNL d   1     -38.534  14.719  23.668  0.00  0.00     0.181 C 
ENDBRANCH  18  21
ENDBRANCH  13  15
ENDBRANCH   1  12
TORSDOF 3
ENDMDL
MODEL 6
REMARK VINA RESULT:      -5.3      8.383     10.076
REMARK  3 active torsions:
REMARK  status: ('A' for Active; 'I' for Inactive)
REMARK    1  A    between atoms: C_3  and  C_1 
REMARK       I    between atoms: N_7  and  C_3 
REMARK    2  A    between atoms: C_11  and  N_7 
REMARK    3  A    between atoms: O_17  and  C_12 
ROOT
ATOM      1  C   UNL d   1     -39.481  14.957  19.450  0.00  0.00     0.121 A 
ATOM      2  C   UNL d   1     -39.967  15.595  19.520  0.00  0.00     0.305 A 
ATOM      3  C   UNL d   1     -39.127  14.633  20.129  0.00  0.00     0.012 A 
ATOM      4  O   UNL d   1     -40.109  15.919  20.270  0.00  0.00    -0.273 OA
ATOM      5  C   UNL d   1     -39.274  14.960  20.868  0.00  0.00     0.023 A 
ATOM      6  C   UNL d   1     -39.760  15.598  20.938  0.00  0.00     0.103 A 
ATOM      7  O   UNL d   1     -40.317  15.916  18.846  0.00  0.00    -0.259 OA
ATOM      8  C   UNL d   1     -38.921  14.636  21.543  0.00  0.00     0.002 A 
ATOM      9  C   UNL d   1     -39.902  15.922  21.684  0.00  0.00     0.025 A 
ATOM     10  C   UNL d   1     -39.552  15.601  22.362  0.00  0.00     0.002 A 
ATOM     11  C   UNL d   1     -39.065  14.964  22.292  0.00  0.00     0.000 A 
ENDROOT
BRANCH   1  12
ATOM     12  C   UNL d   1     -39.336  14.629  18.705  0.00  0.00     0.284 C 
ATOM     13  N   UNL d   1     -38.584  14.649  18.368  0.00  0.00    -0.208 NA
ATOM     14  O   UNL d   1     -39.934  14.269  18.266  0.00  0.00    -0.265 OA
BRANCH  13  15
ATOM     15  C   UNL d   1     -38.466  14.326  17.647  0.00  0.00     0.085 A 
ATOM     16  C   UNL d   1     -38.458  13.504  17.535  0.00  0.00     0.021 A 
ATOM     17  C   UNL d   1     -38.339  13.166  16.807  0.00  0.00     0.026 A 
ATOM     18  C   UNL d   1     -38.218  13.679  16.137  0.00  0.00     0.094 A 
ATOM     19  C   UNL d   1     -38.226  14.518  16.251  0.00  0.00     0.026 A 
ATOM     20  C   UNL d   1     -38.349  14.811  16.999  0.00  0.00     0.021 A 
BRANCH  18  21
ATOM     21  O   UNL d   1     -38.095  13.361  15.386  0.00  0.00    -0.328 OA
ATOM     22  C   UNL d   1     -37.940  13.869  14.754  0.00  0.00     0.181 C 
ENDBRANCH  18  21
ENDBRANCH  13  15
ENDBRANCH   1  12
TORSDOF 3
ENDMDL
