MODEL 1
REMARK VINA RESULT:      -2.1      0.000      0.000
REMARK  5 active torsions:
REMARK  status: ('A' for Active; 'I' for Inactive)
REMARK       I    between atoms: N_2  and  C_1 
REMARK    1  A    between atoms: C_11  and  C_1 
REMARK    2  A    between atoms: C_4  and  N_2 
REMARK    3  A    between atoms: C_3  and  C_4 
REMARK    4  A    between atoms: C_5  and  C_3 
REMARK    5  A    between atoms: N_6  and  C_3 
ROOT
ATOM      1  C   UNL d   1      32.152  17.378 -24.249  0.00  0.00     0.088 C 
ENDROOT
BRANCH   1   2
ATOM      2  C   UNL d   1      32.613  18.061 -24.306  0.00  0.00     0.101 C 
ATOM      3  C   UNL d   1      32.996  18.238 -25.009  0.00  0.00     0.022 C 
BRANCH   2   4
ATOM      4  N   UNL d   1      32.683  18.557 -23.653  0.00  0.00    -0.206 NA
ATOM      5  C   UNL d   1      32.999  19.320 -23.746  0.00  0.00     0.279 C 
ATOM      6  O   UNL d   1      33.240  19.572 -24.492  0.00  0.00    -0.265 OA
BRANCH   5   7
ATOM      7  C   UNL d   1      33.069  19.817 -23.092  0.00  0.00     0.058 A 
ATOM      8  C   UNL d   1      33.172  20.636 -23.195  0.00  0.00     0.005 A 
ATOM      9  C   UNL d   1      33.241  21.121 -22.537  0.00  0.00     0.000 A 
ATOM     10  C   UNL d   1      33.208  20.803 -21.771  0.00  0.00     0.000 A 
ATOM     11  C   UNL d   1      33.105  19.992 -21.675  0.00  0.00     0.000 A 
ATOM     12  C   UNL d   1      33.035  19.497 -22.334  0.00  0.00     0.005 A 
ENDBRANCH   5   7
ENDBRANCH   2   4
ENDBRANCH   1   2
BRANCH   1  13
ATOM     13  C   UNL d   1      32.511  16.646 -24.121  0.00  0.00     0.047 A 
ATOM     14  S   UNL d   1      32.670  16.295 -23.387  0.00  0.00    -0.085 SA
ATOM     15  C   UNL d   1      33.032  15.567 -23.522  0.00  0.00     0.035 A 
ATOM     16  C   UNL d   1      33.104  15.454 -24.339  0.00  0.00     0.007 A 
ATOM     17  C   UNL d   1      32.780  16.124 -24.717  0.00  0.00     0.009 A 
ENDBRANCH   1  13
BRANCH   1  18
ATOM     18  N   UNL d   1      31.326  17.423 -24.321  0.00  0.00    -0.299 N 
ATOM     19  C   UNL d   1      30.990  17.751 -24.991  0.00  0.00     0.107 A 
ATOM     20  C   UNL d   1      30.171  17.800 -25.071  0.00  0.00     0.142 A 
ATOM     21  O   UNL d   1      29.672  17.515 -24.467  0.00  0.00    -0.300 OA
ATOM     22  C   UNL d   1      30.017  17.182 -23.786  0.00  0.00     0.142 A 
ATOM     23  C   UNL d   1      30.840  17.137 -23.714  0.00  0.00     0.107 A 
ENDBRANCH   1  18
TORSDOF 5
ENDMDL
MODEL 2
REMARK VINA RESULT:       0.6      1.614      4.049
REMARK  5 active torsions:
REMARK  status: ('A' for Active; 'I' for Inactive)
REMARK       I    between atoms: N_2  and  C_1 
REMARK    1  A    between atoms: C_11  and  C_1 
REMARK    2  A    between atoms: C_4  and  N_2 
REMARK    3  A    between atoms: C_3  and  C_4 
REMARK    4  A    between atoms: C_5  and  C_3 
REMARK    5  A    between atoms: N_6  and  C_3 
ROOT
ATOM      1  C   UNL d   1      32.743  19.090 -23.177  0.00  0.00     0.088 C 
ENDROOT
BRANCH   1   2
ATOM      2  C   UNL d   1      32.603  18.280 -23.239  0.00  0.00     0.101 C 
ATOM      3  C   UNL d   1      33.215  17.749 -23.114  0.00  0.00     0.022 C 
BRANCH   2   4
ATOM      4  N   UNL d   1      31.847  18.013 -23.425  0.00  0.00    -0.206 NA
ATOM      5  C   UNL d   1      31.711  17.201 -23.537  0.00  0.00     0.279 C 
ATOM      6  O   UNL d   1      32.336  16.670 -23.460  0.00  0.00    -0.265 OA
BRANCH   5   7
ATOM      7  C   UNL d   1      30.954  16.933 -23.724  0.00  0.00     0.058 A 
ATOM      8  C   UNL d   1      30.531  17.272 -24.354  0.00  0.00     0.005 A 
ATOM      9  C   UNL d   1      29.778  16.998 -24.531  0.00  0.00     0.000 A 
ATOM     10  C   UNL d   1      29.436  16.386 -24.087  0.00  0.00     0.000 A 
ATOM     11  C   UNL d   1      29.860  16.054 -23.464  0.00  0.00     0.000 A 
ATOM     12  C   UNL d   1      30.618  16.325 -23.280  0.00  0.00     0.005 A 
ENDBRANCH   5   7
ENDBRANCH   2   4
ENDBRANCH   1   2
BRANCH   1  13
ATOM     13  C   UNL d   1      32.883  19.539 -23.855  0.00  0.00     0.047 A 
ATOM     14  S   UNL d   1      33.189  19.265 -24.575  0.00  0.00    -0.085 SA
ATOM     15  C   UNL d   1      33.235  19.902 -25.097  0.00  0.00     0.035 A 
ATOM     16  C   UNL d   1      32.959  20.580 -24.711  0.00  0.00     0.007 A 
ATOM     17  C   UNL d   1      32.739  20.359 -23.936  0.00  0.00     0.009 A 
ENDBRANCH   1  13
BRANCH   1  18
ATOM     18  N   UNL d   1      32.745  19.460 -22.433  0.00  0.00    -0.299 N 
ATOM     19  C   UNL d   1      32.261  20.105 -22.295  0.00  0.00     0.107 A 
ATOM     20  C   UNL d   1      32.255  20.479 -21.560  0.00  0.00     0.142 A 
ATOM     21  O   UNL d   1      32.745  20.203 -20.945  0.00  0.00    -0.300 OA
ATOM     22  C   UNL d   1      33.237  19.546 -21.089  0.00  0.00     0.142 A 
ATOM     23  C   UNL d   1      33.236  19.177 -21.829  0.00  0.00     0.107 A 
ENDBRANCH   1  18
TORSDOF 5
ENDMDL
