MODEL 1
REMARK VINA RESULT:      -7.2      0.000      0.000
REMARK  8 active torsions:
REMARK  status: ('A' for Active; 'I' for Inactive)
REMARK    1  A    between atoms: N_5  and  C_1 
REMARK    2  A    between atoms: C_2  and  N_5 
REMARK    3  A    between atoms: N_3  and  C_2 
REMARK       I    between atoms: C_6  and  N_3 
REMARK    4  A    between atoms: C_13  and  C_6 
REMARK    5  A    between atoms: C_9  and  C_7 
REMARK    6  A    between atoms: C_11  and  C_9 
REMARK    7  A    between atoms: O_18  and  C_11 
REMARK    8  A    between atoms: C_22  and  O_18 
ROOT
ATOM      1  C   UNL d   1      52.135  33.953  53.057  0.00  0.00     0.225 C 
ATOM      2  S   UNL d   1      52.412  34.467  53.643  0.00  0.00    -0.037 SA
ENDROOT
BRANCH   1   3
ATOM      3  N   UNL d   1      51.771  34.223  52.371  0.00  0.00    -0.192 NA
BRANCH   3   4
ATOM      4  C   UNL d   1      50.970  34.351  52.377  0.00  0.00     0.196 A 
ATOM      5  N   UNL d   1      50.415  34.568  52.940  0.00  0.00    -0.220 NA
ATOM      6  C   UNL d   1      49.695  34.608  52.614  0.00  0.00     0.095 A 
ATOM      7  C   UNL d   1      49.734  34.421  51.829  0.00  0.00     0.058 A 
ATOM      8  S   UNL d   1      50.516  34.256  51.653  0.00  0.00    -0.046 SA
BRANCH   6   9
ATOM      9  C   UNL d   1      48.954  34.820  53.029  0.00  0.00     0.088 C 
BRANCH   9  10
ATOM     10  C   UNL d   1      48.719  35.594  53.079  0.00  0.00     0.302 C 
ATOM     11  O   UNL d   1      49.115  36.122  53.570  0.00  0.00    -0.259 OA
BRANCH  10  12
ATOM     12  O   UNL d   1      48.067  35.861  52.626  0.00  0.00    -0.271 OA
BRANCH  12  13
ATOM     13  C   UNL d   1      47.521  36.394  52.958  0.00  0.00     0.126 C 
ATOM     14  C   UNL d   1      46.818  36.557  52.581  0.00  0.00     0.029 C 
ENDBRANCH  12  13
ENDBRANCH  10  12
ENDBRANCH   9  10
ENDBRANCH   6   9
ENDBRANCH   3   4
ENDBRANCH   1   3
BRANCH   1  15
ATOM     15  N   UNL d   1      52.230  33.124  53.169  0.00  0.00    -0.179 NA
ATOM     16  C   UNL d   1      52.967  32.825  53.192  0.00  0.00     0.281 C 
ATOM     17  O   UNL d   1      53.635  33.314  53.109  0.00  0.00    -0.265 OA
BRANCH  16  18
ATOM     18  C   UNL d   1      53.079  31.987  53.305  0.00  0.00     0.058 A 
ATOM     19  C   UNL d   1      52.608  31.446  52.897  0.00  0.00     0.005 A 
ATOM     20  C   UNL d   1      52.694  30.644  52.986  0.00  0.00     0.000 A 
ATOM     21  C   UNL d   1      53.283  30.360  53.511  0.00  0.00     0.000 A 
ATOM     22  C   UNL d   1      53.748  30.894  53.913  0.00  0.00     0.000 A 
ATOM     23  C   UNL d   1      53.403  29.552  53.630  0.00  0.00     0.000 C 
ATOM     24  C   UNL d   1      53.667  31.713  53.828  0.00  0.00     0.005 A 
ENDBRANCH  16  18
ENDBRANCH   1  15
TORSDOF 8
ENDMDL
MODEL 2
REMARK VINA RESULT:      -7.0      1.714      5.504
REMARK  8 active torsions:
REMARK  status: ('A' for Active; 'I' for Inactive)
REMARK    1  A    between atoms: N_5  and  C_1 
REMARK    2  A    between atoms: C_2  and  N_5 
REMARK    3  A    between atoms: N_3  and  C_2 
REMARK       I    between atoms: C_6  and  N_3 
REMARK    4  A    between atoms: C_13  and  C_6 
REMARK    5  A    between atoms: C_9  and  C_7 
REMARK    6  A    between atoms: C_11  and  C_9 
REMARK    7  A    between atoms: O_18  and  C_11 
REMARK    8  A    between atoms: C_22  and  O_18 
ROOT
ATOM      1  C   UNL d   1      52.579  33.738  53.575  0.00  0.00     0.225 C 
ATOM      2  S   UNL d   1      52.527  33.937  54.375  0.00  0.00    -0.037 SA
ENDROOT
BRANCH   1   3
ATOM      3  N   UNL d   1      53.290  33.533  53.216  0.00  0.00    -0.192 NA
BRANCH   3   4
ATOM      4  C   UNL d   1      53.573  32.779  53.311  0.00  0.00     0.196 A 
ATOM      5  N   UNL d   1      53.323  32.028  53.101  0.00  0.00    -0.220 NA
ATOM      6  C   UNL d   1      53.842  31.485  53.349  0.00  0.00     0.095 A 
ATOM      7  C   UNL d   1      54.457  31.843  53.732  0.00  0.00     0.058 A 
ATOM      8  S   UNL d   1      54.317  32.650  53.724  0.00  0.00    -0.046 SA
BRANCH   6   9
ATOM      9  C   UNL d   1      53.777  30.620  53.234  0.00  0.00     0.088 C 
BRANCH   9  10
ATOM     10  C   UNL d   1      53.196  30.199  53.610  0.00  0.00     0.302 C 
ATOM     11  O   UNL d   1      52.436  30.161  53.298  0.00  0.00    -0.259 OA
BRANCH  10  12
ATOM     12  O   UNL d   1      53.370  29.797  54.325  0.00  0.00    -0.271 OA
BRANCH  12  13
ATOM     13  C   UNL d   1      53.266  28.973  54.373  0.00  0.00     0.126 C 
ATOM     14  C   UNL d   1      53.358  28.584  55.083  0.00  0.00     0.029 C 
ENDBRANCH  12  13
ENDBRANCH  10  12
ENDBRANCH   9  10
ENDBRANCH   6   9
ENDBRANCH   3   4
ENDBRANCH   1   3
BRANCH   1  15
ATOM     15  N   UNL d   1      51.877  33.746  53.110  0.00  0.00    -0.179 NA
ATOM     16  C   UNL d   1      51.490  34.436  53.015  0.00  0.00     0.281 C 
ATOM     17  O   UNL d   1      51.768  35.138  53.366  0.00  0.00    -0.265 OA
BRANCH  16  18
ATOM     18  C   UNL d   1      50.779  34.459  52.547  0.00  0.00     0.058 A 
ATOM     19  C   UNL d   1      50.059  34.665  52.894  0.00  0.00     0.005 A 
ATOM     20  C   UNL d   1      49.368  34.695  52.471  0.00  0.00     0.000 A 
ATOM     21  C   UNL d   1      49.389  34.510  51.653  0.00  0.00     0.000 A 
ATOM     22  C   UNL d   1      50.099  34.308  51.311  0.00  0.00     0.000 A 
ATOM     23  C   UNL d   1      48.708  34.529  51.187  0.00  0.00     0.000 C 
ATOM     24  C   UNL d   1      50.809  34.275  51.735  0.00  0.00     0.005 A 
ENDBRANCH  16  18
ENDBRANCH   1  15
TORSDOF 8
ENDMDL
MODEL 3
REMARK VINA RESULT:      -6.7      1.004      5.706
REMARK  8 active torsions:
REMARK  status: ('A' for Active; 'I' for Inactive)
REMARK    1  A    between atoms: N_5  and  C_1 
REMARK    2  A    between atoms: C_2  and  N_5 
REMARK    3  A    between atoms: N_3  and  C_2 
REMARK       I    between atoms: C_6  and  N_3 
REMARK    4  A    between atoms: C_13  and  C_6 
REMARK    5  A    between atoms: C_9  and  C_7 
REMARK    6  A    between atoms: C_11  and  C_9 
REMARK    7  A    between atoms: O_18  and  C_11 
REMARK    8  A    between atoms: C_22  and  O_18 
ROOT
ATOM      1  C   UNL d   1      50.759  34.192  52.778  0.00  0.00     0.225 C 
ATOM      2  S   UNL d   1      50.628  33.391  52.623  0.00  0.00    -0.037 SA
ENDROOT
BRANCH   1   3
ATOM      3  N   UNL d   1      51.507  34.531  52.744  0.00  0.00    -0.192 NA
BRANCH   3   4
ATOM      4  C   UNL d   1      52.093  34.236  53.221  0.00  0.00     0.196 A 
ATOM      5  N   UNL d   1      52.323  33.492  53.476  0.00  0.00    -0.220 NA
ATOM      6  C   UNL d   1      52.955  33.546  53.950  0.00  0.00     0.095 A 
ATOM      7  C   UNL d   1      53.174  34.319  54.033  0.00  0.00     0.058 A 
ATOM      8  S   UNL d   1      52.656  34.772  53.590  0.00  0.00    -0.046 SA
BRANCH   6   9
ATOM      9  C   UNL d   1      53.367  32.878  54.336  0.00  0.00     0.088 C 
BRANCH   9  10
ATOM     10  C   UNL d   1      53.732  32.308  53.890  0.00  0.00     0.302 C 
ATOM     11  O   UNL d   1      54.476  32.441  53.565  0.00  0.00    -0.259 OA
BRANCH  10  12
ATOM     12  O   UNL d   1      53.349  31.574  53.758  0.00  0.00    -0.271 OA
BRANCH  12  13
ATOM     13  C   UNL d   1      53.796  30.875  53.707  0.00  0.00     0.126 C 
ATOM     14  C   UNL d   1      53.434  30.160  53.566  0.00  0.00     0.029 C 
ENDBRANCH  12  13
ENDBRANCH  10  12
ENDBRANCH   9  10
ENDBRANCH   6   9
ENDBRANCH   3   4
ENDBRANCH   1   3
BRANCH   1  15
ATOM     15  N   UNL d   1      50.101  34.678  52.978  0.00  0.00    -0.179 NA
ATOM     16  C   UNL d   1      49.535  34.797  52.431  0.00  0.00     0.281 C 
ATOM     17  O   UNL d   1      49.586  34.452  51.675  0.00  0.00    -0.265 OA
BRANCH  16  18
ATOM     18  C   UNL d   1      48.864  35.286  52.619  0.00  0.00     0.058 A 
ATOM     19  C   UNL d   1      48.273  35.416  52.057  0.00  0.00     0.005 A 
ATOM     20  C   UNL d   1      47.624  35.878  52.211  0.00  0.00     0.000 A 
ATOM     21  C   UNL d   1      47.554  36.233  52.967  0.00  0.00     0.000 A 
ATOM     22  C   UNL d   1      48.136  36.105  53.521  0.00  0.00     0.000 A 
ATOM     23  C   UNL d   1      46.909  36.709  53.163  0.00  0.00     0.000 C 
ATOM     24  C   UNL d   1      48.802  35.635  53.373  0.00  0.00     0.005 A 
ENDBRANCH  16  18
ENDBRANCH   1  15
TORSDOF 8
ENDMDL
MODEL 4
REMARK VINA RESULT:      -6.3      1.382      1.916
REMARK  8 active torsions:
REMARK  status: ('A' for Active; 'I' for Inactive)
REMARK    1  A    between atoms: N_5  and  C_1 
REMARK    2  A    between atoms: C_2  and  N_5 
REMARK    3  A    between atoms: N_3  and  C_2 
REMARK       I    between atoms: C_6  and  N_3 
REMARK    4  A    between atoms: C_13  and  C_6 
REMARK    5  A    between atoms: C_9  and  C_7 
REMARK    6  A    between atoms: C_11  and  C_9 
REMARK    7  A    between atoms: O_18  and  C_11 
REMARK    8  A    between atoms: C_22  and  O_18 
ROOT
ATOM      1  C   UNL d   1      51.382  33.473  52.936  0.00  0.00     0.225 C 
ATOM      2  S   UNL d   1      51.031  32.724  52.939  0.00  0.00    -0.037 SA
ENDROOT
BRANCH   1   3
ATOM      3  N   UNL d   1      51.149  34.068  52.419  0.00  0.00    -0.192 NA
BRANCH   3   4
ATOM      4  C   UNL d   1      50.400  34.371  52.483  0.00  0.00     0.196 A 
ATOM      5  N   UNL d   1      49.929  34.646  53.095  0.00  0.00    -0.220 NA
ATOM      6  C   UNL d   1      49.226  34.882  52.817  0.00  0.00     0.095 A 
ATOM      7  C   UNL d   1      49.195  34.777  52.016  0.00  0.00     0.058 A 
ATOM      8  S   UNL d   1      49.912  34.460  51.781  0.00  0.00    -0.046 SA
BRANCH   6   9
ATOM      9  C   UNL d   1      48.569  35.209  53.292  0.00  0.00     0.088 C 
BRANCH   9  10
ATOM     10  C   UNL d   1      48.290  35.956  53.147  0.00  0.00     0.302 C 
ATOM     11  O   UNL d   1      48.735  36.618  53.348  0.00  0.00    -0.259 OA
BRANCH  10  12
ATOM     12  O   UNL d   1      47.539  36.057  52.788  0.00  0.00    -0.271 OA
BRANCH  12  13
ATOM     13  C   UNL d   1      47.016  36.637  53.075  0.00  0.00     0.126 C 
ATOM     14  C   UNL d   1      46.266  36.709  52.767  0.00  0.00     0.029 C 
ENDBRANCH  12  13
ENDBRANCH  10  12
ENDBRANCH   9  10
ENDBRANCH   6   9
ENDBRANCH   3   4
ENDBRANCH   1   3
BRANCH   1  15
ATOM     15  N   UNL d   1      52.002  33.630  53.484  0.00  0.00    -0.179 NA
ATOM     16  C   UNL d   1      52.669  33.199  53.440  0.00  0.00     0.281 C 
ATOM     17  O   UNL d   1      52.760  32.602  52.866  0.00  0.00    -0.265 OA
BRANCH  16  18
ATOM     18  C   UNL d   1      53.305  33.347  53.988  0.00  0.00     0.058 A 
ATOM     19  C   UNL d   1      53.823  32.740  54.198  0.00  0.00     0.005 A 
ATOM     20  C   UNL d   1      54.435  32.856  54.717  0.00  0.00     0.000 A 
ATOM     21  C   UNL d   1      54.542  33.618  55.049  0.00  0.00     0.000 A 
ATOM     22  C   UNL d   1      54.031  34.216  54.842  0.00  0.00     0.000 A 
ATOM     23  C   UNL d   1      55.154  33.776  55.581  0.00  0.00     0.000 C 
ATOM     24  C   UNL d   1      53.404  34.108  54.313  0.00  0.00     0.005 A 
ENDBRANCH  16  18
ENDBRANCH   1  15
TORSDOF 8
ENDMDL
MODEL 5
REMARK VINA RESULT:      -6.2      1.674      2.181
REMARK  8 active torsions:
REMARK  status: ('A' for Active; 'I' for Inactive)
REMARK    1  A    between atoms: N_5  and  C_1 
REMARK    2  A    between atoms: C_2  and  N_5 
REMARK    3  A    between atoms: N_3  and  C_2 
REMARK       I    between atoms: C_6  and  N_3 
REMARK    4  A    between atoms: C_13  and  C_6 
REMARK    5  A    between atoms: C_9  and  C_7 
REMARK    6  A    between atoms: C_11  and  C_9 
REMARK    7  A    between atoms: O_18  and  C_11 
REMARK    8  A    between atoms: C_22  and  O_18 
ROOT
ATOM      1  C   UNL d   1      53.818  33.200  54.087  0.00  0.00     0.225 C 
ATOM      2  S   UNL d   1      54.294  33.309  54.754  0.00  0.00    -0.037 SA
ENDROOT
BRANCH   1   3
ATOM      3  N   UNL d   1      53.690  33.795  53.534  0.00  0.00    -0.192 NA
BRANCH   3   4
ATOM      4  C   UNL d   1      52.996  34.214  53.563  0.00  0.00     0.196 A 
ATOM      5  N   UNL d   1      52.241  34.120  53.258  0.00  0.00    -0.220 NA
ATOM      6  C   UNL d   1      51.779  34.724  53.476  0.00  0.00     0.095 A 
ATOM      7  C   UNL d   1      52.198  35.244  53.932  0.00  0.00     0.058 A 
ATOM      8  S   UNL d   1      52.959  34.952  54.003  0.00  0.00    -0.046 SA
BRANCH   6   9
ATOM      9  C   UNL d   1      50.937  34.830  53.265  0.00  0.00     0.088 C 
BRANCH   9  10
ATOM     10  C   UNL d   1      50.537  34.249  52.865  0.00  0.00     0.302 C 
ATOM     11  O   UNL d   1      50.397  33.518  53.216  0.00  0.00    -0.259 OA
BRANCH  10  12
ATOM     12  O   UNL d   1      50.264  34.393  52.086  0.00  0.00    -0.271 OA
BRANCH  12  13
ATOM     13  C   UNL d   1      49.447  34.392  51.926  0.00  0.00     0.126 C 
ATOM     14  C   UNL d   1      49.173  34.489  51.166  0.00  0.00     0.029 C 
ENDBRANCH  12  13
ENDBRANCH  10  12
ENDBRANCH   9  10
ENDBRANCH   6   9
ENDBRANCH   3   4
ENDBRANCH   1   3
BRANCH   1  15
ATOM     15  N   UNL d   1      53.450  32.451  53.971  0.00  0.00    -0.179 NA
ATOM     16  C   UNL d   1      53.900  31.839  53.733  0.00  0.00     0.281 C 
ATOM     17  O   UNL d   1      54.717  31.929  53.601  0.00  0.00    -0.265 OA
BRANCH  16  18
ATOM     18  C   UNL d   1      53.542  31.075  53.611  0.00  0.00     0.058 A 
ATOM     19  C   UNL d   1      53.081  30.933  52.942  0.00  0.00     0.005 A 
ATOM     20  C   UNL d   1      52.730  30.216  52.803  0.00  0.00     0.000 A 
ATOM     21  C   UNL d   1      52.842  29.600  53.360  0.00  0.00     0.000 A 
ATOM     22  C   UNL d   1      53.296  29.739  54.020  0.00  0.00     0.000 A 
ATOM     23  C   UNL d   1      52.501  28.854  53.255  0.00  0.00     0.000 C 
ATOM     24  C   UNL d   1      53.658  30.468  54.171  0.00  0.00     0.005 A 
ENDBRANCH  16  18
ENDBRANCH   1  15
TORSDOF 8
ENDMDL
