MODEL 1
REMARK VINA RESULT:      -8.7      0.000      0.000
REMARK  11 active torsions:
REMARK  status: ('A' for Active; 'I' for Inactive)
REMARK    1  A    between atoms: N_5  and  S_1 
REMARK    2  A    between atoms: C_8  and  S_1 
REMARK    3  A    between atoms: C_2  and  N_10 
REMARK    4  A    between atoms: C_9  and  N_5 
REMARK    5  A    between atoms: C_18  and  N_5 
REMARK    6  A    between atoms: C_13  and  C_9 
REMARK    7  A    between atoms: N_10  and  O_14 
REMARK    8  A    between atoms: C_17  and  C_13 
REMARK    9  A    between atoms: O_14  and  C_17 
REMARK   10  A    between atoms: C_27  and  C_18 
REMARK   11  A    between atoms: C_29  and  C_27 
ROOT
ATOM      1  C   UNL d   1      50.618  33.928  53.244  0.00  0.00     0.240 C 
ATOM      2  O   UNL d   1      50.157  33.270  53.428  0.00  0.00    -0.283 OA
ENDROOT
BRANCH   1   3
ATOM      3  C   UNL d   1      51.218  33.535  53.661  0.00  0.00     0.136 C 
BRANCH   3   4
ATOM      4  N   UNL d   1      52.003  33.623  53.414  0.00  0.00    -0.226 N 
BRANCH   4   5
ATOM      5  S   UNL d   1      52.453  32.956  53.216  0.00  0.00     0.271 S 
ATOM      6  O   UNL d   1      52.511  33.412  52.527  0.00  0.00    -0.200 OA
ATOM      7  O   UNL d   1      52.521  32.367  53.787  0.00  0.00    -0.200 OA
BRANCH   5   8
ATOM      8  C   UNL d   1      52.831  32.230  53.256  0.00  0.00     0.104 A 
ATOM      9  C   UNL d   1      52.546  31.593  52.818  0.00  0.00     0.013 A 
ATOM     10  C   UNL d   1      52.930  30.861  52.860  0.00  0.00     0.001 A 
ATOM     11  C   UNL d   1      53.598  30.770  53.341  0.00  0.00     0.000 A 
ATOM     12  C   UNL d   1      53.842  31.447  53.762  0.00  0.00     0.001 A 
ATOM     13  C   UNL d   1      53.997  30.050  53.399  0.00  0.00     0.000 C 
ATOM     14  C   UNL d   1      53.491  32.186  53.747  0.00  0.00     0.013 A 
ENDBRANCH   5   8
ENDBRANCH   4   5
BRANCH   4  15
ATOM     15  C   UNL d   1      52.476  34.284  53.313  0.00  0.00     0.095 C 
BRANCH  15  16
ATOM     16  C   UNL d   1      52.589  34.808  53.944  0.00  0.00     0.065 C 
BRANCH  16  17
ATOM     17  C   UNL d   1      53.153  35.412  53.883  0.00  0.00     0.236 C 
ATOM     18  O   UNL d   1      53.184  36.003  54.449  0.00  0.00    -0.283 OA
ENDBRANCH  16  17
ENDBRANCH  15  16
ENDBRANCH   4  15
ENDBRANCH   3   4
ENDBRANCH   1   3
BRANCH   1  19
ATOM     19  C   UNL d   1      50.304  34.545  52.808  0.00  0.00     0.193 C 
BRANCH  19  20
ATOM     20  O   UNL d   1      49.518  34.767  52.922  0.00  0.00    -0.206 OA
BRANCH  20  21
ATOM     21  N   UNL d   1      49.254  35.509  52.661  0.00  0.00    -0.126 NA
BRANCH  21  22
ATOM     22  C   UNL d   1      48.453  35.699  52.698  0.00  0.00     0.108 A 
ATOM     23  C   UNL d   1      47.896  35.577  52.098  0.00  0.00     0.020 A 
ATOM     24  C   UNL d   1      47.168  35.849  52.378  0.00  0.00     0.002 A 
ATOM     25  C   UNL d   1      47.961  35.260  51.350  0.00  0.00     0.002 A 
ATOM     26  C   UNL d   1      46.503  35.797  51.890  0.00  0.00     0.000 A 
ATOM     27  C   UNL d   1      47.263  36.136  53.137  0.00  0.00     0.002 A 
ATOM     28  C   UNL d   1      46.567  35.478  51.138  0.00  0.00     0.000 A 
ATOM     29  C   UNL d   1      47.297  35.211  50.869  0.00  0.00     0.000 A 
ATOM     30  C   UNL d   1      48.056  36.045  53.340  0.00  0.00     0.020 A 
ATOM     31  C   UNL d   1      46.740  36.467  53.674  0.00  0.00     0.000 A 
ATOM     32  C   UNL d   1      48.328  36.284  54.078  0.00  0.00     0.002 A 
ATOM     33  C   UNL d   1      47.806  36.617  54.620  0.00  0.00     0.000 A 
ATOM     34  C   UNL d   1      47.007  36.707  54.412  0.00  0.00     0.000 A 
ENDBRANCH  21  22
ENDBRANCH  20  21
ENDBRANCH  19  20
ENDBRANCH   1  19
TORSDOF 11
ENDMDL
MODEL 2
REMARK VINA RESULT:      -8.5      0.089      1.602
REMARK  11 active torsions:
REMARK  status: ('A' for Active; 'I' for Inactive)
REMARK    1  A    between atoms: N_5  and  S_1 
REMARK    2  A    between atoms: C_8  and  S_1 
REMARK    3  A    between atoms: C_2  and  N_10 
REMARK    4  A    between atoms: C_9  and  N_5 
REMARK    5  A    between atoms: C_18  and  N_5 
REMARK    6  A    between atoms: C_13  and  C_9 
REMARK    7  A    between atoms: N_10  and  O_14 
REMARK    8  A    between atoms: C_17  and  C_13 
REMARK    9  A    between atoms: O_14  and  C_17 
REMARK   10  A    between atoms: C_27  and  C_18 
REMARK   11  A    between atoms: C_29  and  C_27 
ROOT
ATOM      1  C   UNL d   1      50.649  33.980  53.232  0.00  0.00     0.240 C 
ATOM      2  O   UNL d   1      50.193  33.298  53.317  0.00  0.00    -0.283 OA
ENDROOT
BRANCH   1   3
ATOM      3  C   UNL d   1      51.231  33.556  53.645  0.00  0.00     0.136 C 
BRANCH   3   4
ATOM      4  N   UNL d   1      52.025  33.660  53.438  0.00  0.00    -0.226 N 
BRANCH   4   5
ATOM      5  S   UNL d   1      52.491  33.004  53.236  0.00  0.00     0.271 S 
ATOM      6  O   UNL d   1      52.577  33.486  52.569  0.00  0.00    -0.200 OA
ATOM      7  O   UNL d   1      52.537  32.393  53.787  0.00  0.00    -0.200 OA
BRANCH   5   8
ATOM      8  C   UNL d   1      52.873  32.279  53.266  0.00  0.00     0.104 A 
ATOM      9  C   UNL d   1      52.544  31.625  52.889  0.00  0.00     0.013 A 
ATOM     10  C   UNL d   1      52.932  30.895  52.921  0.00  0.00     0.001 A 
ATOM     11  C   UNL d   1      53.648  30.823  53.331  0.00  0.00     0.000 A 
ATOM     12  C   UNL d   1      53.934  31.517  53.694  0.00  0.00     0.001 A 
ATOM     13  C   UNL d   1      54.053  30.105  53.376  0.00  0.00     0.000 C 
ATOM     14  C   UNL d   1      53.582  32.255  53.685  0.00  0.00     0.013 A 
ENDBRANCH   5   8
ENDBRANCH   4   5
BRANCH   4  15
ATOM     15  C   UNL d   1      52.496  34.328  53.383  0.00  0.00     0.095 C 
BRANCH  15  16
ATOM     16  C   UNL d   1      52.563  34.837  54.033  0.00  0.00     0.065 C 
BRANCH  16  17
ATOM     17  C   UNL d   1      53.147  35.424  54.039  0.00  0.00     0.236 C 
ATOM     18  O   UNL d   1      53.193  35.952  54.663  0.00  0.00    -0.283 OA
ENDBRANCH  16  17
ENDBRANCH  15  16
ENDBRANCH   4  15
ENDBRANCH   3   4
ENDBRANCH   1   3
BRANCH   1  19
ATOM     19  C   UNL d   1      50.348  34.633  52.844  0.00  0.00     0.193 C 
BRANCH  19  20
ATOM     20  O   UNL d   1      49.549  34.823  52.921  0.00  0.00    -0.206 OA
BRANCH  20  21
ATOM     21  N   UNL d   1      49.271  35.563  52.669  0.00  0.00    -0.126 NA
BRANCH  21  22
ATOM     22  C   UNL d   1      48.464  35.728  52.684  0.00  0.00     0.108 A 
ATOM     23  C   UNL d   1      48.049  36.068  53.313  0.00  0.00     0.020 A 
ATOM     24  C   UNL d   1      47.258  36.129  53.083  0.00  0.00     0.002 A 
ATOM     25  C   UNL d   1      48.288  36.323  54.050  0.00  0.00     0.002 A 
ATOM     26  C   UNL d   1      46.708  36.453  53.610  0.00  0.00     0.000 A 
ATOM     27  C   UNL d   1      47.175  35.835  52.326  0.00  0.00     0.002 A 
ATOM     28  C   UNL d   1      46.948  36.709  54.350  0.00  0.00     0.000 A 
ATOM     29  C   UNL d   1      47.737  36.644  54.569  0.00  0.00     0.000 A 
ATOM     30  C   UNL d   1      47.919  35.585  52.073  0.00  0.00     0.020 A 
ATOM     31  C   UNL d   1      46.529  35.758  51.828  0.00  0.00     0.000 A 
ATOM     32  C   UNL d   1      48.018  35.259  51.326  0.00  0.00     0.002 A 
ATOM     33  C   UNL d   1      47.372  35.180  50.823  0.00  0.00     0.000 A 
ATOM     34  C   UNL d   1      46.623  35.433  51.080  0.00  0.00     0.000 A 
ENDBRANCH  21  22
ENDBRANCH  20  21
ENDBRANCH  19  20
ENDBRANCH   1  19
TORSDOF 11
ENDMDL
MODEL 3
REMARK VINA RESULT:      -7.3      1.138      2.683
REMARK  11 active torsions:
REMARK  status: ('A' for Active; 'I' for Inactive)
REMARK    1  A    between atoms: N_5  and  S_1 
REMARK    2  A    between atoms: C_8  and  S_1 
REMARK    3  A    between atoms: C_2  and  N_10 
REMARK    4  A    between atoms: C_9  and  N_5 
REMARK    5  A    between atoms: C_18  and  N_5 
REMARK    6  A    between atoms: C_13  and  C_9 
REMARK    7  A    between atoms: N_10  and  O_14 
REMARK    8  A    between atoms: C_17  and  C_13 
REMARK    9  A    between atoms: O_14  and  C_17 
REMARK   10  A    between atoms: C_27  and  C_18 
REMARK   11  A    between atoms: C_29  and  C_27 
ROOT
ATOM      1  C   UNL d   1      50.899  33.467  53.307  0.00  0.00     0.240 C 
ATOM      2  O   UNL d   1      50.363  32.938  53.643  0.00  0.00    -0.283 OA
ENDROOT
BRANCH   1   3
ATOM      3  C   UNL d   1      51.467  33.070  53.762  0.00  0.00     0.136 C 
BRANCH   3   4
ATOM      4  N   UNL d   1      52.180  32.846  53.408  0.00  0.00    -0.226 N 
BRANCH   4   5
ATOM      5  S   UNL d   1      52.895  33.177  53.667  0.00  0.00     0.271 S 
ATOM      6  O   UNL d   1      52.877  33.411  52.873  0.00  0.00    -0.200 OA
ATOM      7  O   UNL d   1      53.101  33.053  54.454  0.00  0.00    -0.200 OA
BRANCH   5   8
ATOM      8  C   UNL d   1      53.528  33.394  54.141  0.00  0.00     0.104 A 
ATOM      9  C   UNL d   1      53.738  32.928  54.787  0.00  0.00     0.013 A 
ATOM     10  C   UNL d   1      54.377  33.150  55.263  0.00  0.00     0.001 A 
ATOM     11  C   UNL d   1      54.803  33.839  55.090  0.00  0.00     0.000 A 
ATOM     12  C   UNL d   1      54.547  34.272  54.426  0.00  0.00     0.001 A 
ATOM     13  C   UNL d   1      55.444  34.081  55.551  0.00  0.00     0.000 C 
ATOM     14  C   UNL d   1      53.922  34.087  53.931  0.00  0.00     0.013 A 
ENDBRANCH   5   8
ENDBRANCH   4   5
BRANCH   4  15
ATOM     15  C   UNL d   1      52.352  32.322  52.802  0.00  0.00     0.095 C 
BRANCH  15  16
ATOM     16  C   UNL d   1      52.211  31.513  52.907  0.00  0.00     0.065 C 
BRANCH  16  17
ATOM     17  C   UNL d   1      52.690  30.957  52.522  0.00  0.00     0.236 C 
ATOM     18  O   UNL d   1      52.532  30.157  52.596  0.00  0.00    -0.283 OA
ENDBRANCH  16  17
ENDBRANCH  15  16
ENDBRANCH   4  15
ENDBRANCH   3   4
ENDBRANCH   1   3
BRANCH   1  19
ATOM     19  C   UNL d   1      50.643  34.033  52.775  0.00  0.00     0.193 C 
BRANCH  19  20
ATOM     20  O   UNL d   1      49.868  34.312  52.815  0.00  0.00    -0.206 OA
BRANCH  20  21
ATOM     21  N   UNL d   1      49.694  35.089  52.583  0.00  0.00    -0.126 NA
BRANCH  21  22
ATOM     22  C   UNL d   1      48.911  35.347  52.556  0.00  0.00     0.108 A 
ATOM     23  C   UNL d   1      48.517  35.768  53.148  0.00  0.00     0.020 A 
ATOM     24  C   UNL d   1      47.747  35.906  52.882  0.00  0.00     0.002 A 
ATOM     25  C   UNL d   1      48.758  36.036  53.880  0.00  0.00     0.002 A 
ATOM     26  C   UNL d   1      47.221  36.321  53.367  0.00  0.00     0.000 A 
ATOM     27  C   UNL d   1      47.657  35.579  52.139  0.00  0.00     0.002 A 
ATOM     28  C   UNL d   1      47.462  36.590  54.102  0.00  0.00     0.000 A 
ATOM     29  C   UNL d   1      48.231  36.448  54.357  0.00  0.00     0.000 A 
ATOM     30  C   UNL d   1      48.375  35.232  51.932  0.00  0.00     0.020 A 
ATOM     31  C   UNL d   1      47.025  35.548  51.619  0.00  0.00     0.000 A 
ATOM     32  C   UNL d   1      48.462  34.853  51.207  0.00  0.00     0.002 A 
ATOM     33  C   UNL d   1      47.829  34.820  50.683  0.00  0.00     0.000 A 
ATOM     34  C   UNL d   1      47.107  35.171  50.894  0.00  0.00     0.000 A 
ENDBRANCH  21  22
ENDBRANCH  20  21
ENDBRANCH  19  20
ENDBRANCH   1  19
TORSDOF 11
ENDMDL
MODEL 4
REMARK VINA RESULT:      -6.0      1.620      6.180
REMARK  11 active torsions:
REMARK  status: ('A' for Active; 'I' for Inactive)
REMARK    1  A    between atoms: N_5  and  S_1 
REMARK    2  A    between atoms: C_8  and  S_1 
REMARK    3  A    between atoms: C_2  and  N_10 
REMARK    4  A    between atoms: C_9  and  N_5 
REMARK    5  A    between atoms: C_18  and  N_5 
REMARK    6  A    between atoms: C_13  and  C_9 
REMARK    7  A    between atoms: N_10  and  O_14 
REMARK    8  A    between atoms: C_17  and  C_13 
REMARK    9  A    between atoms: O_14  and  C_17 
REMARK   10  A    between atoms: C_27  and  C_18 
REMARK   11  A    between atoms: C_29  and  C_27 
ROOT
ATOM      1  C   UNL d   1      49.256  34.760  52.407  0.00  0.00     0.240 C 
ATOM      2  O   UNL d   1      49.121  34.153  51.865  0.00  0.00    -0.283 OA
ENDROOT
BRANCH   1   3
ATOM      3  C   UNL d   1      48.430  34.826  52.431  0.00  0.00     0.136 C 
BRANCH   3   4
ATOM      4  N   UNL d   1      48.090  35.568  52.562  0.00  0.00    -0.226 N 
BRANCH   4   5
ATOM      5  S   UNL d   1      47.439  35.813  52.111  0.00  0.00     0.271 S 
ATOM      6  O   UNL d   1      47.973  36.435  51.992  0.00  0.00    -0.200 OA
ATOM      7  O   UNL d   1      46.784  35.315  52.097  0.00  0.00    -0.200 OA
BRANCH   5   8
ATOM      8  C   UNL d   1      46.703  35.835  51.750  0.00  0.00     0.104 A 
ATOM      9  C   UNL d   1      46.572  35.414  51.055  0.00  0.00     0.013 A 
ATOM     10  C   UNL d   1      45.828  35.438  50.693  0.00  0.00     0.001 A 
ATOM     11  C   UNL d   1      45.218  35.884  51.032  0.00  0.00     0.000 A 
ATOM     12  C   UNL d   1      45.405  36.290  51.735  0.00  0.00     0.001 A 
ATOM     13  C   UNL d   1      44.467  35.923  50.690  0.00  0.00     0.000 C 
ATOM     14  C   UNL d   1      46.126  36.291  52.122  0.00  0.00     0.013 A 
ENDBRANCH   5   8
ENDBRANCH   4   5
BRANCH   4  15
ATOM     15  C   UNL d   1      48.271  36.170  53.087  0.00  0.00     0.095 C 
BRANCH  15  16
ATOM     16  C   UNL d   1      48.181  36.046  53.901  0.00  0.00     0.065 C 
BRANCH  16  17
ATOM     17  C   UNL d   1      48.151  36.693  54.417  0.00  0.00     0.236 C 
ATOM     18  O   UNL d   1      47.912  36.589  55.194  0.00  0.00    -0.283 OA
ENDBRANCH  16  17
ENDBRANCH  15  16
ENDBRANCH   4  15
ENDBRANCH   3   4
ENDBRANCH   1   3
BRANCH   1  19
ATOM     19  C   UNL d   1      50.019  34.964  52.617  0.00  0.00     0.193 C 
BRANCH  19  20
ATOM     20  O   UNL d   1      50.563  34.373  52.809  0.00  0.00    -0.206 OA
BRANCH  20  21
ATOM     21  N   UNL d   1      51.363  34.463  52.609  0.00  0.00    -0.126 NA
BRANCH  21  22
ATOM     22  C   UNL d   1      51.947  34.122  53.079  0.00  0.00     0.108 A 
ATOM     23  C   UNL d   1      52.185  33.330  53.061  0.00  0.00     0.020 A 
ATOM     24  C   UNL d   1      52.783  33.239  53.624  0.00  0.00     0.002 A 
ATOM     25  C   UNL d   1      51.938  32.696  52.612  0.00  0.00     0.002 A 
ATOM     26  C   UNL d   1      53.129  32.495  53.729  0.00  0.00     0.000 A 
ATOM     27  C   UNL d   1      52.919  33.957  53.990  0.00  0.00     0.002 A 
ATOM     28  C   UNL d   1      52.880  31.858  53.278  0.00  0.00     0.000 A 
ATOM     29  C   UNL d   1      52.285  31.960  52.720  0.00  0.00     0.000 A 
ATOM     30  C   UNL d   1      52.404  34.507  53.656  0.00  0.00     0.020 A 
ATOM     31  C   UNL d   1      53.438  34.190  54.579  0.00  0.00     0.000 A 
ATOM     32  C   UNL d   1      52.407  35.289  53.910  0.00  0.00     0.002 A 
ATOM     33  C   UNL d   1      52.927  35.526  54.502  0.00  0.00     0.000 A 
ATOM     34  C   UNL d   1      53.444  34.969  54.836  0.00  0.00     0.000 A 
ENDBRANCH  21  22
ENDBRANCH  20  21
ENDBRANCH  19  20
ENDBRANCH   1  19
TORSDOF 11
ENDMDL
MODEL 5
REMARK VINA RESULT:      -5.9      1.369      6.321
REMARK  11 active torsions:
REMARK  status: ('A' for Active; 'I' for Inactive)
REMARK    1  A    between atoms: N_5  and  S_1 
REMARK    2  A    between atoms: C_8  and  S_1 
REMARK    3  A    between atoms: C_2  and  N_10 
REMARK    4  A    between atoms: C_9  and  N_5 
REMARK    5  A    between atoms: C_18  and  N_5 
REMARK    6  A    between atoms: C_13  and  C_9 
REMARK    7  A    between atoms: N_10  and  O_14 
REMARK    8  A    between atoms: C_17  and  C_13 
REMARK    9  A    between atoms: O_14  and  C_17 
REMARK   10  A    between atoms: C_27  and  C_18 
REMARK   11  A    between atoms: C_29  and  C_27 
ROOT
ATOM      1  C   UNL d   1      50.519  34.635  53.194  0.00  0.00     0.240 C 
ATOM      2  O   UNL d   1      50.798  35.346  53.505  0.00  0.00    -0.283 OA
ENDROOT
BRANCH   1   3
ATOM      3  C   UNL d   1      49.782  34.879  53.487  0.00  0.00     0.136 C 
BRANCH   3   4
ATOM      4  N   UNL d   1      49.236  35.220  52.966  0.00  0.00    -0.226 N 
BRANCH   4   5
ATOM      5  S   UNL d   1      48.628  35.701  53.259  0.00  0.00     0.271 S 
ATOM      6  O   UNL d   1      49.150  36.260  52.941  0.00  0.00    -0.200 OA
ATOM      7  O   UNL d   1      47.995  35.324  53.625  0.00  0.00    -0.200 OA
BRANCH   5   8
ATOM      8  C   UNL d   1      47.933  35.951  53.615  0.00  0.00     0.104 A 
ATOM      9  C   UNL d   1      47.880  35.986  54.436  0.00  0.00     0.013 A 
ATOM     10  C   UNL d   1      47.177  36.238  54.793  0.00  0.00     0.001 A 
ATOM     11  C   UNL d   1      46.530  36.454  54.324  0.00  0.00     0.000 A 
ATOM     12  C   UNL d   1      46.638  36.399  53.499  0.00  0.00     0.001 A 
ATOM     13  C   UNL d   1      45.818  36.709  54.656  0.00  0.00     0.000 C 
ATOM     14  C   UNL d   1      47.315  36.156  53.110  0.00  0.00     0.013 A 
ENDBRANCH   5   8
ENDBRANCH   4   5
BRANCH   4  15
ATOM     15  C   UNL d   1      49.157  35.184  52.152  0.00  0.00     0.095 C 
BRANCH  15  16
ATOM     16  C   UNL d   1      48.968  34.464  51.790  0.00  0.00     0.065 C 
BRANCH  16  17
ATOM     17  C   UNL d   1      48.818  34.439  50.975  0.00  0.00     0.236 C 
ATOM     18  O   UNL d   1      48.287  33.894  50.672  0.00  0.00    -0.283 OA
ENDBRANCH  16  17
ENDBRANCH  15  16
ENDBRANCH   4  15
ENDBRANCH   3   4
ENDBRANCH   1   3
BRANCH   1  19
ATOM     19  C   UNL d   1      51.028  34.123  52.811  0.00  0.00     0.193 C 
BRANCH  19  20
ATOM     20  O   UNL d   1      51.550  33.659  53.251  0.00  0.00    -0.206 OA
BRANCH  20  21
ATOM     21  N   UNL d   1      52.302  33.481  52.951  0.00  0.00    -0.126 NA
BRANCH  21  22
ATOM     22  C   UNL d   1      52.812  32.994  53.377  0.00  0.00     0.108 A 
ATOM     23  C   UNL d   1      52.879  32.173  53.300  0.00  0.00     0.020 A 
ATOM     24  C   UNL d   1      53.455  31.920  53.835  0.00  0.00     0.002 A 
ATOM     25  C   UNL d   1      52.494  31.637  52.820  0.00  0.00     0.002 A 
ATOM     26  C   UNL d   1      53.640  31.115  53.879  0.00  0.00     0.000 A 
ATOM     27  C   UNL d   1      53.746  32.567  54.241  0.00  0.00     0.002 A 
ATOM     28  C   UNL d   1      53.255  30.577  53.397  0.00  0.00     0.000 A 
ATOM     29  C   UNL d   1      52.682  30.839  52.868  0.00  0.00     0.000 A 
ATOM     30  C   UNL d   1      53.352  33.234  53.961  0.00  0.00     0.020 A 
ATOM     31  C   UNL d   1      54.315  32.645  54.825  0.00  0.00     0.000 A 
ATOM     32  C   UNL d   1      53.524  33.978  54.265  0.00  0.00     0.002 A 
ATOM     33  C   UNL d   1      54.094  34.060  54.852  0.00  0.00     0.000 A 
ATOM     34  C   UNL d   1      54.490  33.386  55.132  0.00  0.00     0.000 A 
ENDBRANCH  21  22
ENDBRANCH  20  21
ENDBRANCH  19  20
ENDBRANCH   1  19
TORSDOF 11
ENDMDL
