MODEL 1
REMARK VINA RESULT:      75.6      0.000      0.000
REMARK  3 active torsions:
REMARK  status: ('A' for Active; 'I' for Inactive)
REMARK    1  A    between atoms: C_16  and  N_3 
REMARK    2  A    between atoms: C_10  and  C_5 
REMARK    3  A    between atoms: C_26  and  C_16 
ROOT
ATOM      1  C   UNL d   1     -57.823 -98.791 -45.549  0.00  0.00     0.083 A 
ATOM      2  C   UNL d   1     -57.106 -98.774 -45.953  0.00  0.00     0.161 A 
ATOM      3  N   UNL d   1     -56.831 -98.788 -44.644  0.00  0.00    -0.268 N 
ATOM      4  C   UNL d   1     -56.489 -98.772 -45.397  0.00  0.00     0.288 A 
ATOM      5  C   UNL d   1     -57.657 -98.800 -44.737  0.00  0.00     0.072 A 
ATOM      6  C   UNL d   1     -58.536 -98.796 -45.962  0.00  0.00     0.201 A 
ATOM      7  O   UNL d   1     -57.102 -98.762 -46.784  0.00  0.00    -0.302 OA
ATOM      8  C   UNL d   1     -58.528 -98.784 -46.787  0.00  0.00     0.063 A 
ATOM      9  C   UNL d   1     -57.814 -98.767 -47.195  0.00  0.00     0.103 A 
ATOM     10  O   UNL d   1     -55.687 -98.757 -45.562  0.00  0.00    -0.264 OA
ATOM     11  O   UNL d   1     -59.253 -98.813 -45.559  0.00  0.00    -0.286 OA
ATOM     12  C   UNL d   1     -59.244 -98.789 -47.205  0.00  0.00     0.017 A 
ATOM     13  C   UNL d   1     -57.816 -98.755 -48.028  0.00  0.00     0.026 A 
ATOM     14  C   UNL d   1     -59.243 -98.778 -48.026  0.00  0.00     0.058 A 
ATOM     15  C   UNL d   1     -58.527 -98.760 -48.439  0.00  0.00     0.013 A 
ATOM     16 CL   UNL d   1     -59.950 -98.783 -48.437  0.00  0.00    -0.082 Cl
ENDROOT
BRANCH   5  17
ATOM     17  C   UNL d   1     -58.372 -98.817 -44.330  0.00  0.00     0.017 A 
ATOM     18  C   UNL d   1     -58.384 -98.853 -43.503  0.00  0.00     0.008 A 
ATOM     19  C   UNL d   1     -59.100 -98.870 -43.100  0.00  0.00     0.035 A 
ATOM     20 BR   UNL d   1     -59.105 -98.906 -42.278  0.00  0.00    -0.049 Br
ATOM     21  C   UNL d   1     -59.818 -98.851 -43.519  0.00  0.00     0.007 A 
ATOM     22  C   UNL d   1     -59.807 -98.815 -44.346  0.00  0.00     0.001 A 
ATOM     23  C   UNL d   1     -59.081 -98.798 -44.750  0.00  0.00     0.002 A 
ENDBRANCH   5  17
BRANCH   3  24
ATOM     24  C   UNL d   1     -56.427 -98.792 -43.927  0.00  0.00     0.129 C 
BRANCH  24  25
ATOM     25  C   UNL d   1     -55.681 -99.136 -43.880  0.00  0.00     0.253 C 
ATOM     26  O   UNL d   1     -55.116 -98.829 -43.367  0.00  0.00    -0.281 OA
ENDBRANCH  24  25
ENDBRANCH   3  24
TORSDOF 3
ENDMDL
