MODEL 1
REMARK VINA RESULT:      11.0      0.000      0.000
REMARK  2 active torsions:
REMARK  status: ('A' for Active; 'I' for Inactive)
REMARK    1  A    between atoms: S_6  and  C_1 
REMARK    2  A    between atoms: C_7  and  S_6 
ROOT
ATOM      1  C   UNL d   1     -57.096 -98.768 -44.276  0.00  0.00     0.194 A 
ATOM      2  N   UNL d   1     -57.595 -98.768 -44.963  0.00  0.00    -0.220 NA
ATOM      3  N   UNL d   1     -57.586 -98.764 -43.615  0.00  0.00    -0.220 NA
ATOM      4  C   UNL d   1     -58.361 -98.764 -44.707  0.00  0.00     0.101 A 
ATOM      5  C   UNL d   1     -58.356 -98.762 -43.855  0.00  0.00     0.101 A 
ATOM      6  C   UNL d   1     -59.107 -98.761 -45.088  0.00  0.00     0.021 A 
ATOM      7  C   UNL d   1     -59.067 -98.757 -43.438  0.00  0.00     0.021 A 
ATOM      8  C   UNL d   1     -59.785 -98.755 -43.846  0.00  0.00     0.002 A 
ATOM      9  C   UNL d   1     -59.790 -98.757 -44.672  0.00  0.00     0.002 A 
ENDROOT
BRANCH   1  10
ATOM     10  S   UNL d   1     -56.385 -98.773 -44.693  0.00  0.00    -0.049 SA
BRANCH  10  11
ATOM     11  C   UNL d   1     -55.740 -99.201 -44.405  0.00  0.00     0.032 C 
ATOM     12  C   UNL d   1     -55.051 -98.808 -44.180  0.00  0.00     0.007 C 
ATOM     13  C   UNL d   1     -55.592-100.001 -44.270  0.00  0.00     0.007 C 
ENDBRANCH  10  11
ENDBRANCH   1  10
TORSDOF 2
ENDMDL
