MODEL 1
REMARK VINA RESULT:      15.7      0.000      0.000
REMARK  7 active torsions:
REMARK  status: ('A' for Active; 'I' for Inactive)
REMARK    1  A    between atoms: C_2  and  S_1 
REMARK    2  A    between atoms: N_7  and  S_1 
REMARK    3  A    between atoms: C_5  and  C_6 
REMARK    4  A    between atoms: C_6  and  C_8 
REMARK    5  A    between atoms: C_15  and  N_7 
REMARK    6  A    between atoms: C_8  and  C_12 
REMARK    7  A    between atoms: C_18  and  C_15 
ROOT
ATOM      1  C   UNL d   1      14.656  13.182  -1.010  0.00  0.00     0.105 A 
ATOM      2  C   UNL d   1      14.760  12.422  -0.734  0.00  0.00     0.012 A 
ATOM      3  C   UNL d   1      14.227  13.313  -1.721  0.00  0.00     0.013 A 
ATOM      4  C   UNL d   1      13.916  12.671  -2.133  0.00  0.00     0.001 A 
ATOM      5  C   UNL d   1      14.448  11.780  -1.145  0.00  0.00     0.001 A 
ATOM      6  C   UNL d   1      14.031  11.893  -1.836  0.00  0.00     0.000 A 
ATOM      7  C   UNL d   1      15.195  12.303  -0.014  0.00  0.00     0.001 C 
ENDROOT
BRANCH   1   8
ATOM      8  S   UNL d   1      14.966  13.822  -0.600  0.00  0.00     0.285 S 
ATOM      9  O   UNL d   1      14.330  13.791  -0.070  0.00  0.00    -0.198 OA
ATOM     10  O   UNL d   1      15.610  13.854  -1.138  0.00  0.00    -0.198 OA
BRANCH   8  11
ATOM     11  N   UNL d   1      15.283  14.477  -0.181  0.00  0.00    -0.153 NA
BRANCH  11  12
ATOM     12  C   UNL d   1      15.272  15.232  -0.521  0.00  0.00     0.157 C 
BRANCH  12  13
ATOM     13  C   UNL d   1      15.439  15.895  -0.059  0.00  0.00     0.256 C 
ATOM     14  O   UNL d   1      15.491  16.643  -0.411  0.00  0.00    -0.281 OA
ENDBRANCH  12  13
ENDBRANCH  11  12
ENDBRANCH   8  11
ENDBRANCH   1   8
BRANCH   4  15
ATOM     15  C   UNL d   1      13.485  12.805  -2.847  0.00  0.00     0.006 C 
BRANCH  15  16
ATOM     16  C   UNL d   1      13.460  12.208  -3.412  0.00  0.00     0.070 C 
BRANCH  16  17
ATOM     17  C   UNL d   1      13.197  12.375  -4.184  0.00  0.00     0.211 C 
ATOM     18  O   UNL d   1      13.266  13.144  -4.475  0.00  0.00    -0.644 OA
ATOM     19  O   UNL d   1      12.874  11.782  -4.648  0.00  0.00    -0.644 OA
ENDBRANCH  16  17
ENDBRANCH  15  16
ENDBRANCH   4  15
TORSDOF 7
ENDMDL
MODEL 2
REMARK VINA RESULT:      16.9      1.306      3.851
REMARK  7 active torsions:
REMARK  status: ('A' for Active; 'I' for Inactive)
REMARK    1  A    between atoms: C_2  and  S_1 
REMARK    2  A    between atoms: N_7  and  S_1 
REMARK    3  A    between atoms: C_5  and  C_6 
REMARK    4  A    between atoms: C_6  and  C_8 
REMARK    5  A    between atoms: C_15  and  N_7 
REMARK    6  A    between atoms: C_8  and  C_12 
REMARK    7  A    between atoms: C_18  and  C_15 
ROOT
ATOM      1  C   UNL d   1      14.693  12.906  -1.076  0.00  0.00     0.105 A 
ATOM      2  C   UNL d   1      15.230  12.614  -0.537  0.00  0.00     0.012 A 
ATOM      3  C   UNL d   1      14.531  13.730  -1.101  0.00  0.00     0.013 A 
ATOM      4  C   UNL d   1      14.918  14.237  -0.579  0.00  0.00     0.001 A 
ATOM      5  C   UNL d   1      15.617  13.120  -0.014  0.00  0.00     0.001 A 
ATOM      6  C   UNL d   1      15.469  13.922  -0.028  0.00  0.00     0.000 A 
ATOM      7  C   UNL d   1      15.385  11.779  -0.521  0.00  0.00     0.001 C 
ENDROOT
BRANCH   1   8
ATOM      8  S   UNL d   1      14.307  12.401  -1.597  0.00  0.00     0.285 S 
ATOM      9  O   UNL d   1      14.736  12.724  -2.228  0.00  0.00    -0.198 OA
ATOM     10  O   UNL d   1      13.873  12.073  -0.957  0.00  0.00    -0.198 OA
BRANCH   8  11
ATOM     11  N   UNL d   1      13.913  11.885  -2.129  0.00  0.00    -0.153 NA
BRANCH  11  12
ATOM     12  C   UNL d   1      13.404  12.192  -2.704  0.00  0.00     0.157 C 
BRANCH  12  13
ATOM     13  C   UNL d   1      13.276  11.779  -3.406  0.00  0.00     0.256 C 
ATOM     14  O   UNL d   1      12.902  12.152  -4.045  0.00  0.00    -0.281 OA
ENDBRANCH  12  13
ENDBRANCH  11  12
ENDBRANCH   8  11
ENDBRANCH   1   8
BRANCH   4  15
ATOM     15  C   UNL d   1      14.754  15.065  -0.606  0.00  0.00     0.006 C 
BRANCH  15  16
ATOM     16  C   UNL d   1      15.372  15.594  -0.496  0.00  0.00     0.070 C 
BRANCH  16  17
ATOM     17  C   UNL d   1      15.334  16.357  -0.830  0.00  0.00     0.211 C 
ATOM     18  O   UNL d   1      14.960  16.458  -1.559  0.00  0.00    -0.644 OA
ATOM     19  O   UNL d   1      15.663  16.997  -0.439  0.00  0.00    -0.644 OA
ENDBRANCH  16  17
ENDBRANCH  15  16
ENDBRANCH   4  15
TORSDOF 7
ENDMDL
