MODEL 1
REMARK VINA RESULT:     -11.1      0.000      0.000
REMARK  0 active torsions:
REMARK  status: ('A' for Active; 'I' for Inactive)
ROOT
ATOM      1  C   UNL d   1      52.500  32.662  52.988  0.00  0.00     0.166 A 
ATOM      2  C   UNL d   1      52.977  32.794  53.650  0.00  0.00     0.117 A 
ATOM      3  N   UNL d   1      52.173  33.388  52.749  0.00  0.00    -0.288 N 
ATOM      4  C   UNL d   1      52.947  33.603  53.822  0.00  0.00     0.037 A 
ATOM      5  N   UNL d   1      52.410  31.903  52.671  0.00  0.00    -0.225 NA
ATOM      6  C   UNL d   1      52.455  33.953  53.268  0.00  0.00     0.067 A 
ATOM      7  N   UNL d   1      53.367  32.163  53.997  0.00  0.00    -0.241 NA
ATOM      8  C   UNL d   1      52.801  31.271  53.018  0.00  0.00     0.101 A 
ATOM      9  C   UNL d   1      53.281  31.404  53.684  0.00  0.00     0.099 A 
ATOM     10  C   UNL d   1      52.323  34.779  53.312  0.00  0.00     0.018 A 
ATOM     11  C   UNL d   1      53.319  34.048  54.427  0.00  0.00     0.003 A 
ATOM     12  C   UNL d   1      51.704  33.870  52.261  0.00  0.00     0.101 C 
ATOM     13  C   UNL d   1      53.186  34.845  54.462  0.00  0.00     0.000 A 
ATOM     14  C   UNL d   1      52.700  35.197  53.916  0.00  0.00     0.002 A 
ATOM     15  C   UNL d   1      53.651  30.778  54.005  0.00  0.00     0.021 A 
ATOM     16  C   UNL d   1      52.714  30.511  52.705  0.00  0.00     0.021 A 
ATOM     17  C   UNL d   1      53.494  35.325  54.992  0.00  0.00     0.000 C 
ATOM     18  C   UNL d   1      53.579  30.015  53.711  0.00  0.00     0.002 A 
ATOM     19  C   UNL d   1      53.103  29.883  53.051  0.00  0.00     0.002 A 
ENDROOT
TORSDOF 0
ENDMDL
MODEL 2
REMARK VINA RESULT:     -10.9      0.714      1.760
REMARK  0 active torsions:
REMARK  status: ('A' for Active; 'I' for Inactive)
ROOT
ATOM      1  C   UNL d   1      53.251  32.476  53.666  0.00  0.00     0.166 A 
ATOM      2  C   UNL d   1      52.598  32.400  53.164  0.00  0.00     0.117 A 
ATOM      3  N   UNL d   1      53.356  33.282  53.842  0.00  0.00    -0.288 N 
ATOM      4  C   UNL d   1      52.298  33.159  53.028  0.00  0.00     0.037 A 
ATOM      5  N   UNL d   1      53.681  31.813  53.912  0.00  0.00    -0.225 NA
ATOM      6  C   UNL d   1      52.766  33.686  53.445  0.00  0.00     0.067 A 
ATOM      7  N   UNL d   1      52.374  31.656  52.907  0.00  0.00    -0.241 NA
ATOM      8  C   UNL d   1      53.456  31.068  53.653  0.00  0.00     0.101 A 
ATOM      9  C   UNL d   1      52.800  30.991  53.148  0.00  0.00     0.099 A 
ATOM     10  C   UNL d   1      52.586  34.504  53.406  0.00  0.00     0.018 A 
ATOM     11  C   UNL d   1      51.646  33.415  52.567  0.00  0.00     0.003 A 
ATOM     12  C   UNL d   1      53.740  33.921  54.208  0.00  0.00     0.101 C 
ATOM     13  C   UNL d   1      51.479  34.206  52.535  0.00  0.00     0.000 A 
ATOM     14  C   UNL d   1      51.940  34.733  52.946  0.00  0.00     0.002 A 
ATOM     15  C   UNL d   1      52.600  30.260  52.910  0.00  0.00     0.021 A 
ATOM     16  C   UNL d   1      53.883  30.403  53.896  0.00  0.00     0.021 A 
ATOM     17  C   UNL d   1      50.893  34.521  52.130  0.00  0.00     0.000 C 
ATOM     18  C   UNL d   1      53.008  29.586  53.138  0.00  0.00     0.002 A 
ATOM     19  C   UNL d   1      53.660  29.661  53.639  0.00  0.00     0.002 A 
ENDROOT
TORSDOF 0
ENDMDL
MODEL 3
REMARK VINA RESULT:     -10.2      1.073      3.697
REMARK  0 active torsions:
REMARK  status: ('A' for Active; 'I' for Inactive)
ROOT
ATOM      1  C   UNL d   1      52.990  32.928  53.332  0.00  0.00     0.166 A 
ATOM      2  C   UNL d   1      52.441  32.322  53.205  0.00  0.00     0.117 A 
ATOM      3  N   UNL d   1      53.733  32.584  53.477  0.00  0.00    -0.288 N 
ATOM      4  C   UNL d   1      52.843  31.602  53.272  0.00  0.00     0.037 A 
ATOM      5  N   UNL d   1      52.763  33.723  53.302  0.00  0.00    -0.225 NA
ATOM      6  C   UNL d   1      53.627  31.774  53.438  0.00  0.00     0.067 A 
ATOM      7  N   UNL d   1      51.660  32.514  53.048  0.00  0.00    -0.241 NA
ATOM      8  C   UNL d   1      51.981  33.915  53.145  0.00  0.00     0.101 A 
ATOM      9  C   UNL d   1      51.429  33.306  53.018  0.00  0.00     0.099 A 
ATOM     10  C   UNL d   1      54.166  31.140  53.535  0.00  0.00     0.018 A 
ATOM     11  C   UNL d   1      52.569  30.813  53.199  0.00  0.00     0.003 A 
ATOM     12  C   UNL d   1      54.546  32.609  53.646  0.00  0.00     0.101 C 
ATOM     13  C   UNL d   1      53.097  30.208  53.294  0.00  0.00     0.000 A 
ATOM     14  C   UNL d   1      53.874  30.372  53.458  0.00  0.00     0.002 A 
ATOM     15  C   UNL d   1      50.677  33.514  52.867  0.00  0.00     0.021 A 
ATOM     16  C   UNL d   1      51.751  34.707  53.115  0.00  0.00     0.021 A 
ATOM     17  C   UNL d   1      52.920  29.451  53.241  0.00  0.00     0.000 C 
ATOM     18  C   UNL d   1      50.425  34.294  52.832  0.00  0.00     0.002 A 
ATOM     19  C   UNL d   1      50.973  34.898  52.959  0.00  0.00     0.002 A 
ENDROOT
TORSDOF 0
ENDMDL
MODEL 4
REMARK VINA RESULT:     -10.0      1.055      3.573
REMARK  0 active torsions:
REMARK  status: ('A' for Active; 'I' for Inactive)
ROOT
ATOM      1  C   UNL d   1      53.207  32.536  53.622  0.00  0.00     0.166 A 
ATOM      2  C   UNL d   1      53.619  31.974  54.068  0.00  0.00     0.117 A 
ATOM      3  N   UNL d   1      52.713  32.136  53.085  0.00  0.00    -0.288 N 
ATOM      4  C   UNL d   1      53.381  31.225  53.808  0.00  0.00     0.037 A 
ATOM      5  N   UNL d   1      53.320  33.346  53.746  0.00  0.00    -0.225 NA
ATOM      6  C   UNL d   1      52.831  31.337  53.211  0.00  0.00     0.067 A 
ATOM      7  N   UNL d   1      54.147  32.225  54.641  0.00  0.00    -0.241 NA
ATOM      8  C   UNL d   1      53.848  33.597  54.320  0.00  0.00     0.101 A 
ATOM      9  C   UNL d   1      54.263  33.033  54.769  0.00  0.00     0.099 A 
ATOM     10  C   UNL d   1      52.493  30.663  52.844  0.00  0.00     0.018 A 
ATOM     11  C   UNL d   1      53.613  30.460  54.058  0.00  0.00     0.003 A 
ATOM     12  C   UNL d   1      52.151  32.099  52.475  0.00  0.00     0.101 C 
ATOM     13  C   UNL d   1      53.282  29.816  53.698  0.00  0.00     0.000 A 
ATOM     14  C   UNL d   1      52.737  29.920  53.106  0.00  0.00     0.002 A 
ATOM     15  C   UNL d   1      54.770  33.297  55.319  0.00  0.00     0.021 A 
ATOM     16  C   UNL d   1      53.964  34.405  54.447  0.00  0.00     0.021 A 
ATOM     17  C   UNL d   1      53.446  29.074  53.874  0.00  0.00     0.000 C 
ATOM     18  C   UNL d   1      54.901  34.095  55.463  0.00  0.00     0.002 A 
ATOM     19  C   UNL d   1      54.490  34.655  55.019  0.00  0.00     0.002 A 
ENDROOT
TORSDOF 0
ENDMDL
MODEL 5
REMARK VINA RESULT:      -9.9      1.208      3.014
REMARK  0 active torsions:
REMARK  status: ('A' for Active; 'I' for Inactive)
ROOT
ATOM      1  C   UNL d   1      52.444  32.905  53.240  0.00  0.00     0.166 A 
ATOM      2  C   UNL d   1      52.650  33.556  53.706  0.00  0.00     0.117 A 
ATOM      3  N   UNL d   1      53.046  32.335  53.301  0.00  0.00    -0.288 N 
ATOM      4  C   UNL d   1      53.380  33.391  54.057  0.00  0.00     0.037 A 
ATOM      5  N   UNL d   1      51.737  32.894  52.810  0.00  0.00    -0.225 NA
ATOM      6  C   UNL d   1      53.611  32.646  53.804  0.00  0.00     0.067 A 
ATOM      7  N   UNL d   1      52.145  34.200  53.742  0.00  0.00    -0.241 NA
ATOM      8  C   UNL d   1      51.232  33.539  52.846  0.00  0.00     0.101 A 
ATOM      9  C   UNL d   1      51.439  34.194  53.315  0.00  0.00     0.099 A 
ATOM     10  C   UNL d   1      54.340  32.335  54.078  0.00  0.00     0.018 A 
ATOM     11  C   UNL d   1      53.852  33.846  54.580  0.00  0.00     0.003 A 
ATOM     12  C   UNL d   1      53.401  31.603  53.130  0.00  0.00     0.101 C 
ATOM     13  C   UNL d   1      54.554  33.538  54.839  0.00  0.00     0.000 A 
ATOM     14  C   UNL d   1      54.787  32.801  54.592  0.00  0.00     0.002 A 
ATOM     15  C   UNL d   1      50.936  34.808  53.335  0.00  0.00     0.021 A 
ATOM     16  C   UNL d   1      50.525  33.532  52.418  0.00  0.00     0.021 A 
ATOM     17  C   UNL d   1      55.046  33.898  55.324  0.00  0.00     0.000 C 
ATOM     18  C   UNL d   1      50.228  34.824  52.919  0.00  0.00     0.002 A 
ATOM     19  C   UNL d   1      50.022  34.174  52.454  0.00  0.00     0.002 A 
ENDROOT
TORSDOF 0
ENDMDL
MODEL 6
REMARK VINA RESULT:      -9.1      1.279      2.882
REMARK  0 active torsions:
REMARK  status: ('A' for Active; 'I' for Inactive)
ROOT
ATOM      1  C   UNL d   1      52.936  32.944  53.679  0.00  0.00     0.166 A 
ATOM      2  C   UNL d   1      52.612  33.694  53.806  0.00  0.00     0.117 A 
ATOM      3  N   UNL d   1      52.415  32.510  53.198  0.00  0.00    -0.288 N 
ATOM      4  C   UNL d   1      51.890  33.727  53.404  0.00  0.00     0.037 A 
ATOM      5  N   UNL d   1      53.664  32.731  54.010  0.00  0.00    -0.225 NA
ATOM      6  C   UNL d   1      51.781  33.001  53.038  0.00  0.00     0.067 A 
ATOM      7  N   UNL d   1      53.020  34.235  54.267  0.00  0.00    -0.241 NA
ATOM      8  C   UNL d   1      54.072  33.272  54.471  0.00  0.00     0.101 A 
ATOM      9  C   UNL d   1      53.747  34.028  54.599  0.00  0.00     0.099 A 
ATOM     10  C   UNL d   1      51.085  32.878  52.587  0.00  0.00     0.018 A 
ATOM     11  C   UNL d   1      51.328  34.344  53.338  0.00  0.00     0.003 A 
ATOM     12  C   UNL d   1      52.175  31.834  52.779  0.00  0.00     0.101 C 
ATOM     13  C   UNL d   1      50.659  34.217  52.900  0.00  0.00     0.000 A 
ATOM     14  C   UNL d   1      50.546  33.501  52.536  0.00  0.00     0.002 A 
ATOM     15  C   UNL d   1      54.159  34.536  55.048  0.00  0.00     0.021 A 
ATOM     16  C   UNL d   1      54.800  33.064  54.802  0.00  0.00     0.021 A 
ATOM     17  C   UNL d   1      50.092  34.740  52.792  0.00  0.00     0.000 C 
ATOM     18  C   UNL d   1      54.883  34.352  55.388  0.00  0.00     0.002 A 
ATOM     19  C   UNL d   1      55.206  33.603  55.261  0.00  0.00     0.002 A 
ENDROOT
TORSDOF 0
ENDMDL
