MODEL 1
REMARK VINA RESULT:      -1.7      0.000      0.000
REMARK  4 active torsions:
REMARK  status: ('A' for Active; 'I' for Inactive)
REMARK    1  A    between atoms: C_7  and  C_2 
REMARK    2  A    between atoms: C_12  and  C_4 
REMARK    3  A    between atoms: C_11  and  C_7 
REMARK    4  A    between atoms: N_18  and  C_12 
ROOT
ATOM      1  C   UNL d   1      33.241  20.732 -22.950  0.00  0.00     0.108 A 
ATOM      2  C   UNL d   1      33.241  19.677 -23.776  0.00  0.00     0.141 A 
ATOM      3  C   UNL d   1      33.241  21.016 -23.725  0.00  0.00     0.064 A 
ATOM      4  C   UNL d   1      33.241  21.259 -22.318  0.00  0.00     0.079 A 
ATOM      5  O   UNL d   1      33.241  19.904 -22.979  0.00  0.00    -0.304 OA
ATOM      6  C   UNL d   1      33.241  20.363 -24.234  0.00  0.00     0.220 A 
ATOM      7  C   UNL d   1      33.241  21.828 -23.871  0.00  0.00     0.008 A 
ATOM      8  C   UNL d   1      33.241  22.071 -22.460  0.00  0.00     0.199 A 
ATOM      9  C   UNL d   1      33.241  22.356 -23.239  0.00  0.00     0.042 A 
ATOM     10  O   UNL d   1      33.241  20.392 -25.063  0.00  0.00    -0.284 OA
ATOM     11  O   UNL d   1      33.241  22.599 -21.832  0.00  0.00    -0.286 OA
ATOM     12  C   UNL d   1      33.241  22.112 -24.646  0.00  0.00     0.000 C 
ENDROOT
BRANCH   2  13
ATOM     13  C   UNL d   1      33.241  18.902 -24.060  0.00  0.00     0.053 C 
BRANCH  13  14
ATOM     14  C   UNL d   1      32.762  18.329 -23.695  0.00  0.00     0.102 A 
ATOM     15  O   UNL d   1      31.950  18.243 -23.797  0.00  0.00    -0.305 OA
ATOM     16  C   UNL d   1      31.707  17.608 -23.333  0.00  0.00     0.123 A 
ATOM     17  C   UNL d   1      32.368  17.305 -22.948  0.00  0.00     0.029 A 
ATOM     18  C   UNL d   1      33.023  17.757 -23.176  0.00  0.00     0.027 A 
ENDBRANCH  13  14
ENDBRANCH   2  13
BRANCH   4  19
ATOM     19  C   UNL d   1      33.241  20.979 -21.541  0.00  0.00     0.086 C 
BRANCH  19  20
ATOM     20  N   UNL d   1      32.622  21.170 -21.035  0.00  0.00    -0.300 N 
ATOM     21  C   UNL d   1      31.861  20.889 -21.183  0.00  0.00     0.100 C 
ATOM     22  C   UNL d   1      32.757  21.647 -20.368  0.00  0.00     0.100 C 
ENDBRANCH  19  20
ENDBRANCH   4  19
TORSDOF 4
ENDMDL
MODEL 2
REMARK VINA RESULT:      -1.3      1.226      2.345
REMARK  4 active torsions:
REMARK  status: ('A' for Active; 'I' for Inactive)
REMARK    1  A    between atoms: C_7  and  C_2 
REMARK    2  A    between atoms: C_12  and  C_4 
REMARK    3  A    between atoms: C_11  and  C_7 
REMARK    4  A    between atoms: N_18  and  C_12 
ROOT
ATOM      1  C   UNL d   1      33.076  21.297 -22.686  0.00  0.00     0.108 A 
ATOM      2  C   UNL d   1      33.144  19.960 -22.753  0.00  0.00     0.141 A 
ATOM      3  C   UNL d   1      32.911  20.996 -21.936  0.00  0.00     0.064 A 
ATOM      4  C   UNL d   1      33.075  22.109 -22.814  0.00  0.00     0.079 A 
ATOM      5  O   UNL d   1      33.221  20.657 -23.194  0.00  0.00    -0.304 OA
ATOM      6  C   UNL d   1      32.953  20.171 -21.978  0.00  0.00     0.220 A 
ATOM      7  C   UNL d   1      32.743  21.507 -21.310  0.00  0.00     0.008 A 
ATOM      8  C   UNL d   1      32.909  22.623 -22.193  0.00  0.00     0.199 A 
ATOM      9  C   UNL d   1      32.742  22.321 -21.439  0.00  0.00     0.042 A 
ATOM     10  O   UNL d   1      32.825  19.644 -21.351  0.00  0.00    -0.284 OA
ATOM     11  O   UNL d   1      32.907  23.434 -22.317  0.00  0.00    -0.286 OA
ATOM     12  C   UNL d   1      32.578  21.207 -20.560  0.00  0.00     0.000 C 
ENDROOT
BRANCH   2  13
ATOM     13  C   UNL d   1      33.241  19.192 -23.039  0.00  0.00     0.053 C 
BRANCH  13  14
ATOM     14  C   UNL d   1      32.873  18.966 -23.749  0.00  0.00     0.102 A 
ATOM     15  O   UNL d   1      32.109  18.673 -23.824  0.00  0.00    -0.305 OA
ATOM     16  C   UNL d   1      31.976  18.523 -24.623  0.00  0.00     0.123 A 
ATOM     17  C   UNL d   1      32.659  18.724 -25.036  0.00  0.00     0.029 A 
ATOM     18  C   UNL d   1      33.215  19.000 -24.489  0.00  0.00     0.027 A 
ENDBRANCH  13  14
ENDBRANCH   2  13
BRANCH   4  19
ATOM     19  C   UNL d   1      33.241  22.414 -23.564  0.00  0.00     0.086 C 
BRANCH  19  20
ATOM     20  N   UNL d   1      32.668  22.841 -23.970  0.00  0.00    -0.300 N 
ATOM     21  C   UNL d   1      32.425  23.579 -23.695  0.00  0.00     0.100 C 
ATOM     22  C   UNL d   1      32.327  22.534 -24.663  0.00  0.00     0.100 C 
ENDBRANCH  19  20
ENDBRANCH   4  19
TORSDOF 4
ENDMDL
MODEL 3
REMARK VINA RESULT:      -0.7      1.475      3.918
REMARK  4 active torsions:
REMARK  status: ('A' for Active; 'I' for Inactive)
REMARK    1  A    between atoms: C_7  and  C_2 
REMARK    2  A    between atoms: C_12  and  C_4 
REMARK    3  A    between atoms: C_11  and  C_7 
REMARK    4  A    between atoms: N_18  and  C_12 
ROOT
ATOM      1  C   UNL d   1      33.051  21.558 -22.765  0.00  0.00     0.108 A 
ATOM      2  C   UNL d   1      32.925  21.420 -21.437  0.00  0.00     0.141 A 
ATOM      3  C   UNL d   1      32.954  20.755 -22.600  0.00  0.00     0.064 A 
ATOM      4  C   UNL d   1      33.142  21.811 -23.542  0.00  0.00     0.079 A 
ATOM      5  O   UNL d   1      33.033  21.972 -22.047  0.00  0.00    -0.304 OA
ATOM      6  C   UNL d   1      32.877  20.671 -21.780  0.00  0.00     0.220 A 
ATOM      7  C   UNL d   1      32.949  20.202 -23.212  0.00  0.00     0.008 A 
ATOM      8  C   UNL d   1      33.138  21.263 -24.156  0.00  0.00     0.199 A 
ATOM      9  C   UNL d   1      33.041  20.456 -23.991  0.00  0.00     0.042 A 
ATOM     10  O   UNL d   1      32.769  19.958 -21.371  0.00  0.00    -0.284 OA
ATOM     11  O   UNL d   1      33.229  21.512 -24.932  0.00  0.00    -0.286 OA
ATOM     12  C   UNL d   1      32.853  19.399 -23.048  0.00  0.00     0.000 C 
ENDROOT
BRANCH   2  13
ATOM     13  C   UNL d   1      32.874  21.591 -20.632  0.00  0.00     0.053 C 
BRANCH  13  14
ATOM     14  C   UNL d   1      32.688  22.362 -20.384  0.00  0.00     0.102 A 
ATOM     15  O   UNL d   1      31.945  22.714 -20.418  0.00  0.00    -0.305 OA
ATOM     16  C   UNL d   1      32.016  23.476 -20.116  0.00  0.00     0.123 A 
ATOM     17  C   UNL d   1      32.800  23.592 -19.897  0.00  0.00     0.029 A 
ATOM     18  C   UNL d   1      33.216  22.897 -20.066  0.00  0.00     0.027 A 
ENDBRANCH  13  14
ENDBRANCH   2  13
BRANCH   4  19
ATOM     19  C   UNL d   1      33.239  22.614 -23.710  0.00  0.00     0.086 C 
BRANCH  19  20
ATOM     20  N   UNL d   1      32.776  22.972 -24.286  0.00  0.00    -0.300 N 
ATOM     21  C   UNL d   1      32.147  23.461 -24.071  0.00  0.00     0.100 C 
ATOM     22  C   UNL d   1      32.935  22.847 -25.092  0.00  0.00     0.100 C 
ENDBRANCH  19  20
ENDBRANCH   4  19
TORSDOF 4
ENDMDL
MODEL 4
REMARK VINA RESULT:      -0.3      1.171      3.360
REMARK  4 active torsions:
REMARK  status: ('A' for Active; 'I' for Inactive)
REMARK    1  A    between atoms: C_7  and  C_2 
REMARK    2  A    between atoms: C_12  and  C_4 
REMARK    3  A    between atoms: C_11  and  C_7 
REMARK    4  A    between atoms: N_18  and  C_12 
ROOT
ATOM      1  C   UNL d   1      33.241  20.452 -23.282  0.00  0.00     0.108 A 
ATOM      2  C   UNL d   1      33.241  21.551 -22.514  0.00  0.00     0.141 A 
ATOM      3  C   UNL d   1      33.241  21.110 -23.780  0.00  0.00     0.064 A 
ATOM      4  C   UNL d   1      33.241  19.694 -23.600  0.00  0.00     0.079 A 
ATOM      5  O   UNL d   1      33.241  20.722 -22.498  0.00  0.00    -0.304 OA
ATOM      6  C   UNL d   1      33.241  21.788 -23.305  0.00  0.00     0.220 A 
ATOM      7  C   UNL d   1      33.241  21.013 -24.599  0.00  0.00     0.008 A 
ATOM      8  C   UNL d   1      33.241  19.592 -24.418  0.00  0.00     0.199 A 
ATOM      9  C   UNL d   1      33.241  20.253 -24.918  0.00  0.00     0.042 A 
ATOM     10  O   UNL d   1      33.241  22.572 -23.575  0.00  0.00    -0.284 OA
ATOM     11  O   UNL d   1      33.241  18.837 -24.739  0.00  0.00    -0.286 OA
ATOM     12  C   UNL d   1      33.241  21.670 -25.097  0.00  0.00     0.000 C 
ENDROOT
BRANCH   2  13
ATOM     13  C   UNL d   1      33.241  22.049 -21.857  0.00  0.00     0.053 C 
BRANCH  13  14
ATOM     14  C   UNL d   1      32.763  21.868 -21.202  0.00  0.00     0.102 A 
ATOM     15  O   UNL d   1      32.850  21.218 -20.705  0.00  0.00    -0.305 OA
ATOM     16  C   UNL d   1      32.258  21.260 -20.134  0.00  0.00     0.123 A 
ATOM     17  C   UNL d   1      31.809  21.933 -20.280  0.00  0.00     0.029 A 
ATOM     18  C   UNL d   1      32.126  22.310 -20.945  0.00  0.00     0.027 A 
ENDBRANCH  13  14
ENDBRANCH   2  13
BRANCH   4  19
ATOM     19  C   UNL d   1      33.241  19.033 -23.105  0.00  0.00     0.086 C 
BRANCH  19  20
ATOM     20  N   UNL d   1      32.731  18.407 -23.255  0.00  0.00    -0.300 N 
ATOM     21  C   UNL d   1      32.953  17.635 -23.066  0.00  0.00     0.100 C 
ATOM     22  C   UNL d   1      31.987  18.542 -23.598  0.00  0.00     0.100 C 
ENDBRANCH  19  20
ENDBRANCH   4  19
TORSDOF 4
ENDMDL
