MODEL 1
REMARK VINA RESULT:      -8.3      0.000      0.000
REMARK  4 active torsions:
REMARK  status: ('A' for Active; 'I' for Inactive)
REMARK    1  A    between atoms: C_5  and  C_1 
REMARK    2  A    between atoms: O_8  and  C_5 
REMARK    3  A    between atoms: C_11  and  O_8 
REMARK    4  A    between atoms: C_12  and  C_11 
ROOT
ATOM      1  C   UNL d   1     -46.957  13.540  22.985  0.00  0.00     0.127 A 
ATOM      2  C   UNL d   1     -46.168  13.492  22.880  0.00  0.00     0.305 A 
ATOM      3  C   UNL d   1     -47.402  12.886  23.220  0.00  0.00     0.013 A 
ATOM      4  O   UNL d   1     -45.758  12.787  23.001  0.00  0.00    -0.273 OA
ATOM      5  C   UNL d   1     -46.992  12.180  23.341  0.00  0.00     0.023 A 
ATOM      6  C   UNL d   1     -46.203  12.133  23.236  0.00  0.00     0.103 A 
ATOM      7  O   UNL d   1     -45.723  14.146  22.645  0.00  0.00    -0.259 OA
ATOM      8  C   UNL d   1     -47.437  11.527  23.576  0.00  0.00     0.002 A 
ATOM      9  C   UNL d   1     -45.792  11.427  23.358  0.00  0.00     0.025 A 
ATOM     10  C   UNL d   1     -46.237  10.773  23.593  0.00  0.00     0.002 A 
ATOM     11  C   UNL d   1     -47.027  10.821  23.698  0.00  0.00     0.000 A 
ENDROOT
BRANCH   1  12
ATOM     12  C   UNL d   1     -47.367  14.246  22.863  0.00  0.00     0.305 C 
ATOM     13  O   UNL d   1     -46.975  14.983  22.850  0.00  0.00    -0.259 OA
BRANCH  12  14
ATOM     14  O   UNL d   1     -48.166  14.220  22.755  0.00  0.00    -0.271 OA
BRANCH  14  15
ATOM     15  C   UNL d   1     -48.592  14.893  22.628  0.00  0.00     0.126 C 
BRANCH  15  16
ATOM     16  C   UNL d   1     -49.398  14.880  22.605  0.00  0.00     0.025 A 
ATOM     17  C   UNL d   1     -49.831  15.296  23.183  0.00  0.00     0.002 A 
ATOM     18  C   UNL d   1     -50.669  15.271  23.144  0.00  0.00     0.000 A 
ATOM     19  C   UNL d   1     -51.064  14.862  22.572  0.00  0.00     0.000 A 
ATOM     20  C   UNL d   1     -50.631  14.446  21.993  0.00  0.00     0.000 A 
ATOM     21  C   UNL d   1     -49.825  14.460  22.017  0.00  0.00     0.002 A 
ENDBRANCH  15  16
ENDBRANCH  14  15
ENDBRANCH  12  14
ENDBRANCH   1  12
TORSDOF 4
ENDMDL
MODEL 2
REMARK VINA RESULT:      -7.8      1.590      4.744
REMARK  4 active torsions:
REMARK  status: ('A' for Active; 'I' for Inactive)
REMARK    1  A    between atoms: C_5  and  C_1 
REMARK    2  A    between atoms: O_8  and  C_5 
REMARK    3  A    between atoms: C_11  and  O_8 
REMARK    4  A    between atoms: C_12  and  C_11 
ROOT
ATOM      1  C   UNL d   1     -49.812  12.768  23.007  0.00  0.00     0.127 A 
ATOM      2  C   UNL d   1     -50.199  12.742  22.310  0.00  0.00     0.305 A 
ATOM      3  C   UNL d   1     -49.819  13.444  23.481  0.00  0.00     0.013 A 
ATOM      4  O   UNL d   1     -50.625  13.391  22.028  0.00  0.00    -0.273 OA
ATOM      5  C   UNL d   1     -50.244  14.092  23.199  0.00  0.00     0.023 A 
ATOM      6  C   UNL d   1     -50.632  14.066  22.502  0.00  0.00     0.103 A 
ATOM      7  O   UNL d   1     -50.192  12.066  21.837  0.00  0.00    -0.259 OA
ATOM      8  C   UNL d   1     -50.251  14.768  23.672  0.00  0.00     0.002 A 
ATOM      9  C   UNL d   1     -51.057  14.715  22.220  0.00  0.00     0.025 A 
ATOM     10  C   UNL d   1     -51.064  15.390  22.693  0.00  0.00     0.002 A 
ATOM     11  C   UNL d   1     -50.677  15.416  23.390  0.00  0.00     0.000 A 
ENDROOT
BRANCH   1  12
ATOM     12  C   UNL d   1     -49.386  12.120  23.289  0.00  0.00     0.305 C 
ATOM     13  O   UNL d   1     -49.767  11.466  23.642  0.00  0.00    -0.259 OA
BRANCH  12  14
ATOM     14  O   UNL d   1     -48.583  12.121  23.221  0.00  0.00    -0.271 OA
BRANCH  14  15
ATOM     15  C   UNL d   1     -48.124  11.649  23.688  0.00  0.00     0.126 C 
BRANCH  15  16
ATOM     16  C   UNL d   1     -47.323  11.623  23.596  0.00  0.00     0.025 A 
ATOM     17  C   UNL d   1     -46.926  10.893  23.669  0.00  0.00     0.002 A 
ATOM     18  C   UNL d   1     -46.092  10.884  23.571  0.00  0.00     0.000 A 
ATOM     19  C   UNL d   1     -45.668  11.551  23.410  0.00  0.00     0.000 A 
ATOM     20  C   UNL d   1     -46.065  12.281  23.338  0.00  0.00     0.000 A 
ATOM     21  C   UNL d   1     -46.866  12.307  23.430  0.00  0.00     0.002 A 
ENDBRANCH  15  16
ENDBRANCH  14  15
ENDBRANCH  12  14
ENDBRANCH   1  12
TORSDOF 4
ENDMDL
MODEL 3
REMARK VINA RESULT:      -7.8      1.390      1.729
REMARK  4 active torsions:
REMARK  status: ('A' for Active; 'I' for Inactive)
REMARK    1  A    between atoms: C_5  and  C_1 
REMARK    2  A    between atoms: O_8  and  C_5 
REMARK    3  A    between atoms: C_11  and  O_8 
REMARK    4  A    between atoms: C_12  and  C_11 
ROOT
ATOM      1  C   UNL d   1     -46.198  12.757  22.987  0.00  0.00     0.127 A 
ATOM      2  C   UNL d   1     -45.512  12.970  22.639  0.00  0.00     0.305 A 
ATOM      3  C   UNL d   1     -46.288  12.020  23.349  0.00  0.00     0.013 A 
ATOM      4  O   UNL d   1     -44.860  12.465  22.623  0.00  0.00    -0.273 OA
ATOM      5  C   UNL d   1     -45.635  11.515  23.333  0.00  0.00     0.023 A 
ATOM      6  C   UNL d   1     -44.950  11.729  22.984  0.00  0.00     0.103 A 
ATOM      7  O   UNL d   1     -45.422  13.706  22.277  0.00  0.00    -0.259 OA
ATOM      8  C   UNL d   1     -45.725  10.779  23.694  0.00  0.00     0.002 A 
ATOM      9  C   UNL d   1     -44.298  11.224  22.969  0.00  0.00     0.025 A 
ATOM     10  C   UNL d   1     -44.387  10.487  23.330  0.00  0.00     0.002 A 
ATOM     11  C   UNL d   1     -45.073  10.274  23.678  0.00  0.00     0.000 A 
ENDROOT
BRANCH   1  12
ATOM     12  C   UNL d   1     -46.850  13.262  23.003  0.00  0.00     0.305 C 
ATOM     13  O   UNL d   1     -46.809  14.018  23.355  0.00  0.00    -0.259 OA
BRANCH  12  14
ATOM     14  O   UNL d   1     -47.542  13.017  22.670  0.00  0.00    -0.271 OA
BRANCH  14  15
ATOM     15  C   UNL d   1     -48.217  13.452  22.743  0.00  0.00     0.126 C 
BRANCH  15  16
ATOM     16  C   UNL d   1     -48.916  13.195  22.432  0.00  0.00     0.025 A 
ATOM     17  C   UNL d   1     -49.042  13.244  21.609  0.00  0.00     0.002 A 
ATOM     18  C   UNL d   1     -49.774  12.971  21.304  0.00  0.00     0.000 A 
ATOM     19  C   UNL d   1     -50.354  12.667  21.775  0.00  0.00     0.000 A 
ATOM     20  C   UNL d   1     -50.229  12.618  22.598  0.00  0.00     0.000 A 
ATOM     21  C   UNL d   1     -49.530  12.875  22.908  0.00  0.00     0.002 A 
ENDBRANCH  15  16
ENDBRANCH  14  15
ENDBRANCH  12  14
ENDBRANCH   1  12
TORSDOF 4
ENDMDL
MODEL 4
REMARK VINA RESULT:      -7.4      1.340      4.513
REMARK  4 active torsions:
REMARK  status: ('A' for Active; 'I' for Inactive)
REMARK    1  A    between atoms: C_5  and  C_1 
REMARK    2  A    between atoms: O_8  and  C_5 
REMARK    3  A    between atoms: C_11  and  O_8 
REMARK    4  A    between atoms: C_12  and  C_11 
ROOT
ATOM      1  C   UNL d   1     -49.146  13.127  22.995  0.00  0.00     0.127 A 
ATOM      2  C   UNL d   1     -49.708  12.891  22.479  0.00  0.00     0.305 A 
ATOM      3  C   UNL d   1     -49.181  13.863  23.365  0.00  0.00     0.013 A 
ATOM      4  O   UNL d   1     -50.351  13.373  22.292  0.00  0.00    -0.273 OA
ATOM      5  C   UNL d   1     -49.824  14.345  23.178  0.00  0.00     0.023 A 
ATOM      6  C   UNL d   1     -50.386  14.109  22.662  0.00  0.00     0.103 A 
ATOM      7  O   UNL d   1     -49.673  12.155  22.109  0.00  0.00    -0.259 OA
ATOM      8  C   UNL d   1     -49.859  15.081  23.548  0.00  0.00     0.002 A 
ATOM      9  C   UNL d   1     -51.030  14.591  22.475  0.00  0.00     0.025 A 
ATOM     10  C   UNL d   1     -51.064  15.327  22.845  0.00  0.00     0.002 A 
ATOM     11  C   UNL d   1     -50.502  15.563  23.361  0.00  0.00     0.000 A 
ENDROOT
BRANCH   1  12
ATOM     12  C   UNL d   1     -48.503  12.645  23.182  0.00  0.00     0.305 C 
ATOM     13  O   UNL d   1     -48.593  11.954  23.642  0.00  0.00    -0.259 OA
BRANCH  12  14
ATOM     14  O   UNL d   1     -47.771  12.849  22.913  0.00  0.00    -0.271 OA
BRANCH  14  15
ATOM     15  C   UNL d   1     -47.103  12.549  23.252  0.00  0.00     0.126 C 
BRANCH  15  16
ATOM     16  C   UNL d   1     -46.375  12.678  22.928  0.00  0.00     0.025 A 
ATOM     17  C   UNL d   1     -45.798  12.077  22.965  0.00  0.00     0.002 A 
ATOM     18  C   UNL d   1     -45.047  12.228  22.623  0.00  0.00     0.000 A 
ATOM     19  C   UNL d   1     -44.867  12.927  22.263  0.00  0.00     0.000 A 
ATOM     20  C   UNL d   1     -45.445  13.528  22.225  0.00  0.00     0.000 A 
ATOM     21  C   UNL d   1     -46.172  13.399  22.549  0.00  0.00     0.002 A 
ENDBRANCH  15  16
ENDBRANCH  14  15
ENDBRANCH  12  14
ENDBRANCH   1  12
TORSDOF 4
ENDMDL
MODEL 5
REMARK VINA RESULT:      -6.7      8.414      9.932
REMARK  4 active torsions:
REMARK  status: ('A' for Active; 'I' for Inactive)
REMARK    1  A    between atoms: C_5  and  C_1 
REMARK    2  A    between atoms: O_8  and  C_5 
REMARK    3  A    between atoms: C_11  and  O_8 
REMARK    4  A    between atoms: C_12  and  C_11 
ROOT
ATOM      1  C   UNL d   1     -40.095  14.546  19.370  0.00  0.00     0.127 A 
ATOM      2  C   UNL d   1     -40.488  15.114  19.771  0.00  0.00     0.305 A 
ATOM      3  C   UNL d   1     -39.535  14.066  19.739  0.00  0.00     0.013 A 
ATOM      4  O   UNL d   1     -40.353  15.248  20.574  0.00  0.00    -0.273 OA
ATOM      5  C   UNL d   1     -39.400  14.200  20.542  0.00  0.00     0.023 A 
ATOM      6  C   UNL d   1     -39.793  14.767  20.943  0.00  0.00     0.103 A 
ATOM      7  O   UNL d   1     -41.048  15.594  19.402  0.00  0.00    -0.259 OA
ATOM      8  C   UNL d   1     -38.840  13.719  20.911  0.00  0.00     0.002 A 
ATOM      9  C   UNL d   1     -39.658  14.901  21.746  0.00  0.00     0.025 A 
ATOM     10  C   UNL d   1     -39.097  14.421  22.115  0.00  0.00     0.002 A 
ATOM     11  C   UNL d   1     -38.705  13.853  21.714  0.00  0.00     0.000 A 
ENDROOT
BRANCH   1  12
ATOM     12  C   UNL d   1     -40.230  14.412  18.567  0.00  0.00     0.305 C 
ATOM     13  O   UNL d   1     -40.935  14.058  18.296  0.00  0.00    -0.259 OA
BRANCH  12  14
ATOM     14  O   UNL d   1     -39.665  14.630  18.035  0.00  0.00    -0.271 OA
BRANCH  14  15
ATOM     15  C   UNL d   1     -39.744  14.460  17.250  0.00  0.00     0.126 C 
BRANCH  15  16
ATOM     16  C   UNL d   1     -39.154  14.626  16.725  0.00  0.00     0.025 A 
ATOM     17  C   UNL d   1     -38.993  15.420  16.528  0.00  0.00     0.002 A 
ATOM     18  C   UNL d   1     -38.376  15.575  15.980  0.00  0.00     0.000 A 
ATOM     19  C   UNL d   1     -37.940  14.987  15.642  0.00  0.00     0.000 A 
ATOM     20  C   UNL d   1     -38.101  14.193  15.839  0.00  0.00     0.000 A 
ATOM     21  C   UNL d   1     -38.690  14.026  16.364  0.00  0.00     0.002 A 
ENDBRANCH  15  16
ENDBRANCH  14  15
ENDBRANCH  12  14
ENDBRANCH   1  12
TORSDOF 4
ENDMDL
MODEL 6
REMARK VINA RESULT:      -6.4      7.783      8.855
REMARK  4 active torsions:
REMARK  status: ('A' for Active; 'I' for Inactive)
REMARK    1  A    between atoms: C_5  and  C_1 
REMARK    2  A    between atoms: O_8  and  C_5 
REMARK    3  A    between atoms: C_11  and  O_8 
REMARK    4  A    between atoms: C_12  and  C_11 
ROOT
ATOM      1  C   UNL d   1     -40.299  14.968  20.777  0.00  0.00     0.127 A 
ATOM      2  C   UNL d   1     -40.586  14.268  21.029  0.00  0.00     0.305 A 
ATOM      3  C   UNL d   1     -39.584  15.269  21.059  0.00  0.00     0.013 A 
ATOM      4  O   UNL d   1     -40.183  13.811  21.585  0.00  0.00    -0.273 OA
ATOM      5  C   UNL d   1     -39.181  14.812  21.615  0.00  0.00     0.023 A 
ATOM      6  C   UNL d   1     -39.468  14.112  21.868  0.00  0.00     0.103 A 
ATOM      7  O   UNL d   1     -41.300  13.967  20.747  0.00  0.00    -0.259 OA
ATOM      8  C   UNL d   1     -38.467  15.113  21.898  0.00  0.00     0.002 A 
ATOM      9  C   UNL d   1     -39.065  13.654  22.423  0.00  0.00     0.025 A 
ATOM     10  C   UNL d   1     -38.351  13.955  22.706  0.00  0.00     0.002 A 
ATOM     11  C   UNL d   1     -38.063  14.656  22.454  0.00  0.00     0.000 A 
ENDROOT
BRANCH   1  12
ATOM     12  C   UNL d   1     -40.702  15.426  20.221  0.00  0.00     0.305 C 
ATOM     13  O   UNL d   1     -41.337  15.922  20.441  0.00  0.00    -0.259 OA
BRANCH  12  14
ATOM     14  O   UNL d   1     -40.476  15.391  19.448  0.00  0.00    -0.271 OA
BRANCH  14  15
ATOM     15  C   UNL d   1     -40.754  15.921  18.907  0.00  0.00     0.126 C 
BRANCH  15  16
ATOM     16  C   UNL d   1     -40.613  15.826  18.118  0.00  0.00     0.025 A 
ATOM     17  C   UNL d   1     -39.837  15.920  17.826  0.00  0.00     0.002 A 
ATOM     18  C   UNL d   1     -39.709  15.817  17.003  0.00  0.00     0.000 A 
ATOM     19  C   UNL d   1     -40.305  15.634  16.492  0.00  0.00     0.000 A 
ATOM     20  C   UNL d   1     -41.081  15.541  16.783  0.00  0.00     0.000 A 
ATOM     21  C   UNL d   1     -41.221  15.636  17.572  0.00  0.00     0.002 A 
ENDBRANCH  15  16
ENDBRANCH  14  15
ENDBRANCH  12  14
ENDBRANCH   1  12
TORSDOF 4
ENDMDL
MODEL 7
REMARK VINA RESULT:      -6.2      1.275      4.474
REMARK  4 active torsions:
REMARK  status: ('A' for Active; 'I' for Inactive)
REMARK    1  A    between atoms: C_5  and  C_1 
REMARK    2  A    between atoms: O_8  and  C_5 
REMARK    3  A    between atoms: C_11  and  O_8 
REMARK    4  A    between atoms: C_12  and  C_11 
ROOT
ATOM      1  C   UNL d   1     -46.857  13.234  22.804  0.00  0.00     0.127 A 
ATOM      2  C   UNL d   1     -47.105  13.988  22.883  0.00  0.00     0.305 A 
ATOM      3  C   UNL d   1     -47.389  12.603  22.793  0.00  0.00     0.013 A 
ATOM      4  O   UNL d   1     -47.906  14.174  22.957  0.00  0.00    -0.273 OA
ATOM      5  C   UNL d   1     -48.189  12.789  22.867  0.00  0.00     0.023 A 
ATOM      6  C   UNL d   1     -48.438  13.543  22.945  0.00  0.00     0.103 A 
ATOM      7  O   UNL d   1     -46.574  14.619  22.894  0.00  0.00    -0.259 OA
ATOM      8  C   UNL d   1     -48.721  12.158  22.855  0.00  0.00     0.002 A 
ATOM      9  C   UNL d   1     -49.238  13.729  23.019  0.00  0.00     0.025 A 
ATOM     10  C   UNL d   1     -49.770  13.098  23.008  0.00  0.00     0.002 A 
ATOM     11  C   UNL d   1     -49.522  12.344  22.929  0.00  0.00     0.000 A 
ENDROOT
BRANCH   1  12
ATOM     12  C   UNL d   1     -46.057  13.048  22.730  0.00  0.00     0.305 C 
ATOM     13  O   UNL d   1     -45.504  13.602  22.440  0.00  0.00    -0.259 OA
BRANCH  12  14
ATOM     14  O   UNL d   1     -45.805  12.313  22.944  0.00  0.00    -0.271 OA
BRANCH  14  15
ATOM     15  C   UNL d   1     -45.021  12.122  22.939  0.00  0.00     0.126 C 
BRANCH  15  16
ATOM     16  C   UNL d   1     -44.767  11.389  23.163  0.00  0.00     0.025 A 
ATOM     17  C   UNL d   1     -45.317  10.842  23.470  0.00  0.00     0.002 A 
ATOM     18  C   UNL d   1     -45.036  10.085  23.698  0.00  0.00     0.000 A 
ATOM     19  C   UNL d   1     -44.261   9.872  23.631  0.00  0.00     0.000 A 
ATOM     20  C   UNL d   1     -43.712  10.419  23.324  0.00  0.00     0.000 A 
ATOM     21  C   UNL d   1     -43.965  11.151  23.100  0.00  0.00     0.002 A 
ENDBRANCH  15  16
ENDBRANCH  14  15
ENDBRANCH  12  14
ENDBRANCH   1  12
TORSDOF 4
ENDMDL
MODEL 8
REMARK VINA RESULT:      -5.7      3.635      5.918
REMARK  4 active torsions:
REMARK  status: ('A' for Active; 'I' for Inactive)
REMARK    1  A    between atoms: C_5  and  C_1 
REMARK    2  A    between atoms: O_8  and  C_5 
REMARK    3  A    between atoms: C_11  and  O_8 
REMARK    4  A    between atoms: C_12  and  C_11 
ROOT
ATOM      1  C   UNL d   1     -43.909  12.789  21.712  0.00  0.00     0.127 A 
ATOM      2  C   UNL d   1     -43.933  12.179  22.227  0.00  0.00     0.305 A 
ATOM      3  C   UNL d   1     -44.519  13.344  21.671  0.00  0.00     0.013 A 
ATOM      4  O   UNL d   1     -44.569  12.074  22.742  0.00  0.00    -0.273 OA
ATOM      5  C   UNL d   1     -45.154  13.239  22.187  0.00  0.00     0.023 A 
ATOM      6  C   UNL d   1     -45.178  12.629  22.701  0.00  0.00     0.103 A 
ATOM      7  O   UNL d   1     -43.324  11.625  22.268  0.00  0.00    -0.259 OA
ATOM      8  C   UNL d   1     -45.764  13.793  22.145  0.00  0.00     0.002 A 
ATOM      9  C   UNL d   1     -45.814  12.523  23.216  0.00  0.00     0.025 A 
ATOM     10  C   UNL d   1     -46.424  13.078  23.175  0.00  0.00     0.002 A 
ATOM     11  C   UNL d   1     -46.399  13.688  22.661  0.00  0.00     0.000 A 
ENDROOT
BRANCH   1  12
ATOM     12  C   UNL d   1     -43.273  12.895  21.197  0.00  0.00     0.305 C 
ATOM     13  O   UNL d   1     -43.195  12.440  20.501  0.00  0.00    -0.259 OA
BRANCH  12  14
ATOM     14  O   UNL d   1     -42.717  13.451  21.372  0.00  0.00    -0.271 OA
BRANCH  14  15
ATOM     15  C   UNL d   1     -42.134  13.639  20.846  0.00  0.00     0.126 C 
BRANCH  15  16
ATOM     16  C   UNL d   1     -41.588  14.208  21.013  0.00  0.00     0.025 A 
ATOM     17  C   UNL d   1     -41.772  15.008  20.863  0.00  0.00     0.002 A 
ATOM     18  C   UNL d   1     -41.192  15.588  21.042  0.00  0.00     0.000 A 
ATOM     19  C   UNL d   1     -40.471  15.398  21.352  0.00  0.00     0.000 A 
ATOM     20  C   UNL d   1     -40.288  14.599  21.502  0.00  0.00     0.000 A 
ATOM     21  C   UNL d   1     -40.834  14.029  21.335  0.00  0.00     0.002 A 
ENDBRANCH  15  16
ENDBRANCH  14  15
ENDBRANCH  12  14
ENDBRANCH   1  12
TORSDOF 4
ENDMDL
MODEL 9
REMARK VINA RESULT:      -5.5      1.403      2.096
REMARK  4 active torsions:
REMARK  status: ('A' for Active; 'I' for Inactive)
REMARK    1  A    between atoms: C_5  and  C_1 
REMARK    2  A    between atoms: O_8  and  C_5 
REMARK    3  A    between atoms: C_11  and  O_8 
REMARK    4  A    between atoms: C_12  and  C_11 
ROOT
ATOM      1  C   UNL d   1     -47.461  14.340  22.758  0.00  0.00     0.127 A 
ATOM      2  C   UNL d   1     -47.026  14.859  22.336  0.00  0.00     0.305 A 
ATOM      3  C   UNL d   1     -47.149  13.619  23.010  0.00  0.00     0.013 A 
ATOM      4  O   UNL d   1     -46.243  14.700  22.131  0.00  0.00    -0.273 OA
ATOM      5  C   UNL d   1     -46.366  13.460  22.805  0.00  0.00     0.023 A 
ATOM      6  C   UNL d   1     -45.931  13.979  22.383  0.00  0.00     0.103 A 
ATOM      7  O   UNL d   1     -47.338  15.580  22.084  0.00  0.00    -0.259 OA
ATOM      8  C   UNL d   1     -46.054  12.739  23.057  0.00  0.00     0.002 A 
ATOM      9  C   UNL d   1     -45.148  13.819  22.178  0.00  0.00     0.025 A 
ATOM     10  C   UNL d   1     -44.836  13.098  22.430  0.00  0.00     0.002 A 
ATOM     11  C   UNL d   1     -45.271  12.579  22.852  0.00  0.00     0.000 A 
ENDROOT
BRANCH   1  12
ATOM     12  C   UNL d   1     -48.245  14.500  22.963  0.00  0.00     0.305 C 
ATOM     13  O   UNL d   1     -48.457  15.199  23.367  0.00  0.00    -0.259 OA
BRANCH  12  14
ATOM     14  O   UNL d   1     -48.816  13.966  22.767  0.00  0.00    -0.271 OA
BRANCH  14  15
ATOM     15  C   UNL d   1     -49.446  13.832  23.253  0.00  0.00     0.126 C 
BRANCH  15  16
ATOM     16  C   UNL d   1     -49.973  13.240  23.101  0.00  0.00     0.025 A 
ATOM     17  C   UNL d   1     -50.394  13.241  22.381  0.00  0.00     0.002 A 
ATOM     18  C   UNL d   1     -50.937  12.618  22.238  0.00  0.00     0.000 A 
ATOM     19  C   UNL d   1     -51.064  12.024  22.770  0.00  0.00     0.000 A 
ATOM     20  C   UNL d   1     -50.644  12.023  23.490  0.00  0.00     0.000 A 
ATOM     21  C   UNL d   1     -50.117  12.615  23.642  0.00  0.00     0.002 A 
ENDBRANCH  15  16
ENDBRANCH  14  15
ENDBRANCH  12  14
ENDBRANCH   1  12
TORSDOF 4
ENDMDL
