MODEL 1
REMARK VINA RESULT:      25.3      0.000      0.000
REMARK  4 active torsions:
REMARK  status: ('A' for Active; 'I' for Inactive)
REMARK    1  A    between atoms: N_2  and  S_1 
REMARK    2  A    between atoms: C_4  and  S_1 
REMARK    3  A    between atoms: C_3  and  C_9 
REMARK       I    between atoms: N_5  and  C_3 
REMARK    4  A    between atoms: C_6  and  N_5 
ROOT
ATOM      1  C   UNL d   1      46.128 -17.580  44.195  0.00  0.00     0.104 A 
ATOM      2  C   UNL d   1      46.403 -18.791  43.488  0.00  0.00     0.059 A 
ATOM      3  C   UNL d   1      46.188 -17.997  43.480  0.00  0.00     0.018 A 
ATOM      4  C   UNL d   1      46.283 -17.959  44.909  0.00  0.00     0.013 A 
ATOM      5  C   UNL d   1      46.558 -19.170  44.203  0.00  0.00     0.005 A 
ATOM      6  C   UNL d   1      46.497 -18.749  44.919  0.00  0.00     0.001 A 
ENDROOT
BRANCH   1   7
ATOM      7  S   UNL d   1      45.914 -16.791  44.184  0.00  0.00     0.271 S 
ATOM      8  O   UNL d   1      46.248 -16.872  44.912  0.00  0.00    -0.200 OA
ATOM      9  O   UNL d   1      45.563 -16.663  43.445  0.00  0.00    -0.200 OA
BRANCH   7  10
ATOM     10  N   UNL d   1      45.737 -15.994  44.265  0.00  0.00    -0.229 N 
ATOM     11  C   UNL d   1      44.925 -15.781  44.272  0.00  0.00     0.092 A 
ATOM     12  C   UNL d   1      44.662 -15.106  44.339  0.00  0.00     0.020 A 
ATOM     13  C   UNL d   1      45.010 -14.323  44.428  0.00  0.00     0.002 A 
ATOM     14  C   UNL d   1      45.712 -14.079  44.468  0.00  0.00     0.002 A 
ATOM     15  C   UNL d   1      46.406 -14.555  44.430  0.00  0.00     0.020 A 
ATOM     16  C   UNL d   1      46.419 -15.441  44.337  0.00  0.00     0.092 A 
ENDBRANCH   7  10
ENDBRANCH   1   7
BRANCH   2  17
ATOM     17  C   UNL d   1      46.463 -19.209  42.775  0.00  0.00     0.281 C 
ATOM     18  N   UNL d   1      46.376 -18.802  42.061  0.00  0.00    -0.187 NA
ATOM     19  O   UNL d   1      46.608 -20.015  42.792  0.00  0.00    -0.265 OA
BRANCH  18  20
ATOM     20  C   UNL d   1      46.436 -19.220  41.357  0.00  0.00     0.194 A 
ATOM     21  N   UNL d   1      46.352 -20.037  41.263  0.00  0.00    -0.106 NA
ATOM     22  O   UNL d   1      46.456 -20.213  40.468  0.00  0.00    -0.207 OA
ATOM     23  C   UNL d   1      46.606 -19.505  40.066  0.00  0.00     0.153 A 
ATOM     24  C   UNL d   1      46.594 -18.896  40.610  0.00  0.00     0.070 A 
ENDBRANCH  18  20
ENDBRANCH   2  17
TORSDOF 4
ENDMDL
