MODEL 1
REMARK VINA RESULT:      -6.2      0.000      0.000
REMARK  4 active torsions:
REMARK  status: ('A' for Active; 'I' for Inactive)
REMARK    1  A    between atoms: N_8  and  C_7 
REMARK    2  A    between atoms: C_9  and  N_8 
REMARK    3  A    between atoms: O_15  and  C_10 
REMARK    4  A    between atoms: C_16  and  O_15 
ROOT
ATOM      1  C   UNL d   1     -41.260-122.688 -52.666  0.00  0.00     0.082 A 
ATOM      2  C   UNL d   1     -41.528-122.825 -51.049  0.00  0.00     0.100 A 
ATOM      3  C   UNL d   1     -41.374-123.431 -52.331  0.00  0.00     0.021 A 
ATOM      4  C   UNL d   1     -41.278-122.013 -52.199  0.00  0.00     0.021 A 
ATOM      5  C   UNL d   1     -41.509-123.501 -51.519  0.00  0.00     0.026 A 
ATOM      6  C   UNL d   1     -41.414-122.080 -51.384  0.00  0.00     0.026 A 
ENDROOT
BRANCH   1   7
ATOM      7  N   UNL d   1     -41.124-122.622 -53.481  0.00  0.00    -0.245 NA
BRANCH   7   8
ATOM      8  C   UNL d   1     -41.673-122.361 -54.052  0.00  0.00     0.093 A 
ATOM      9  C   UNL d   1     -42.392-121.963 -54.159  0.00  0.00     0.118 A 
ATOM     10  S   UNL d   1     -42.549-121.945 -54.957  0.00  0.00     0.213 S 
ATOM     11  C   UNL d   1     -41.936-122.328 -55.356  0.00  0.00     0.100 A 
ATOM     12  O   UNL d   1     -42.710-121.927 -55.777  0.00  0.00    -0.217 OA
ATOM     13  O   UNL d   1     -43.187-121.552 -54.612  0.00  0.00    -0.217 OA
ATOM     14  C   UNL d   1     -41.394-122.586 -54.793  0.00  0.00     0.032 A 
ENDBRANCH   7   8
ENDBRANCH   1   7
BRANCH   2  15
ATOM     15  O   UNL d   1     -41.663-122.892 -50.235  0.00  0.00    -0.305 OA
BRANCH  15  16
ATOM     16  C   UNL d   1     -42.420-122.763 -49.934  0.00  0.00     0.123 C 
ATOM     17  C   UNL d   1     -42.546-122.786 -49.114  0.00  0.00     0.029 C 
ENDBRANCH  15  16
ENDBRANCH   2  15
TORSDOF 4
ENDMDL
MODEL 2
REMARK VINA RESULT:      -5.3      1.827      4.191
REMARK  4 active torsions:
REMARK  status: ('A' for Active; 'I' for Inactive)
REMARK    1  A    between atoms: N_8  and  C_7 
REMARK    2  A    between atoms: C_9  and  N_8 
REMARK    3  A    between atoms: O_15  and  C_10 
REMARK    4  A    between atoms: C_16  and  O_15 
ROOT
ATOM      1  C   UNL d   1     -41.154-122.920 -51.620  0.00  0.00     0.082 A 
ATOM      2  C   UNL d   1     -41.184-122.693 -53.249  0.00  0.00     0.100 A 
ATOM      3  C   UNL d   1     -41.170-123.570 -52.124  0.00  0.00     0.021 A 
ATOM      4  C   UNL d   1     -41.152-122.157 -51.924  0.00  0.00     0.021 A 
ATOM      5  C   UNL d   1     -41.186-123.457 -52.943  0.00  0.00     0.026 A 
ATOM      6  C   UNL d   1     -41.168-122.041 -52.744  0.00  0.00     0.026 A 
ENDROOT
BRANCH   1   7
ATOM      7  N   UNL d   1     -41.138-123.036 -50.800  0.00  0.00    -0.245 NA
BRANCH   7   8
ATOM      8  C   UNL d   1     -41.797-123.037 -50.290  0.00  0.00     0.093 A 
ATOM      9  C   UNL d   1     -42.595-122.820 -50.223  0.00  0.00     0.118 A 
ATOM     10  S   UNL d   1     -42.850-123.038 -49.481  0.00  0.00     0.213 S 
ATOM     11  C   UNL d   1     -42.221-123.391 -49.079  0.00  0.00     0.100 A 
ATOM     12  O   UNL d   1     -43.110-123.262 -48.720  0.00  0.00    -0.217 OA
ATOM     13  O   UNL d   1     -43.511-122.694 -49.834  0.00  0.00    -0.217 OA
ATOM     14  C   UNL d   1     -41.570-123.390 -49.581  0.00  0.00     0.032 A 
ENDBRANCH   7   8
ENDBRANCH   1   7
BRANCH   2  15
ATOM     15  O   UNL d   1     -41.200-122.577 -54.069  0.00  0.00    -0.305 OA
BRANCH  15  16
ATOM     16  C   UNL d   1     -41.900-122.343 -54.435  0.00  0.00     0.123 C 
ATOM     17  C   UNL d   1     -41.915-122.226 -55.258  0.00  0.00     0.029 C 
ENDBRANCH  15  16
ENDBRANCH   2  15
TORSDOF 4
ENDMDL
