MODEL 1
REMARK VINA RESULT:      -9.3      0.000      0.000
REMARK  5 active torsions:
REMARK  status: ('A' for Active; 'I' for Inactive)
REMARK    1  A    between atoms: C_6  and  C_1 
REMARK    2  A    between atoms: C_11  and  N_3 
REMARK    3  A    between atoms: C_14  and  C_11 
REMARK    4  A    between atoms: O_12  and  C_14 
REMARK    5  A    between atoms: C_13  and  O_12 
ROOT
ATOM      1  C   UNL d   1      53.909  31.967  54.077  0.00  0.00     0.171 A 
ATOM      2  N   UNL d   1      54.141  31.186  54.225  0.00  0.00    -0.225 NA
ATOM      3  N   UNL d   1      53.259  31.919  53.562  0.00  0.00    -0.286 N 
ATOM      4  C   UNL d   1      53.107  31.143  53.407  0.00  0.00     0.083 A 
ATOM      5  C   UNL d   1      53.657  30.686  53.820  0.00  0.00     0.099 A 
ATOM      6  C   UNL d   1      52.535  30.777  52.939  0.00  0.00     0.019 A 
ATOM      7  C   UNL d   1      53.614  29.879  53.750  0.00  0.00     0.021 A 
ATOM      8  C   UNL d   1      52.523  29.976  52.893  0.00  0.00     0.002 A 
ATOM      9  C   UNL d   1      53.073  29.519  53.307  0.00  0.00     0.002 A 
ENDROOT
BRANCH   3  10
ATOM     10  C   UNL d   1      52.946  32.637  53.347  0.00  0.00     0.108 C 
BRANCH  10  11
ATOM     11  C   UNL d   1      52.273  32.709  52.896  0.00  0.00     0.142 C 
BRANCH  11  12
ATOM     12  O   UNL d   1      51.848  33.398  52.844  0.00  0.00    -0.304 OA
BRANCH  12  13
ATOM     13  C   UNL d   1      51.200  33.806  52.867  0.00  0.00     0.100 A 
ATOM     14  C   UNL d   1      51.211  33.919  52.049  0.00  0.00     0.025 A 
ATOM     15  C   UNL d   1      50.611  34.353  51.685  0.00  0.00     0.002 A 
ATOM     16  C   UNL d   1      49.996  34.676  52.138  0.00  0.00     0.000 A 
ATOM     17  C   UNL d   1      49.985  34.563  52.955  0.00  0.00     0.002 A 
ATOM     18  C   UNL d   1      50.589  34.127  53.320  0.00  0.00     0.025 A 
ENDBRANCH  12  13
ENDBRANCH  11  12
ENDBRANCH  10  11
ENDBRANCH   3  10
BRANCH   1  19
ATOM     19  C   UNL d   1      54.252  32.652  54.378  0.00  0.00     0.134 A 
ATOM     20  O   UNL d   1      54.811  33.100  54.001  0.00  0.00    -0.302 OA
ATOM     21  C   UNL d   1      55.006  33.740  54.498  0.00  0.00     0.123 A 
ATOM     22  C   UNL d   1      54.551  33.666  55.184  0.00  0.00     0.029 A 
ATOM     23  C   UNL d   1      54.081  32.982  55.100  0.00  0.00     0.030 A 
ENDBRANCH   1  19
TORSDOF 5
ENDMDL
MODEL 2
REMARK VINA RESULT:      -8.9      0.838      2.624
REMARK  5 active torsions:
REMARK  status: ('A' for Active; 'I' for Inactive)
REMARK    1  A    between atoms: C_6  and  C_1 
REMARK    2  A    between atoms: C_11  and  N_3 
REMARK    3  A    between atoms: C_14  and  C_11 
REMARK    4  A    between atoms: O_12  and  C_14 
REMARK    5  A    between atoms: C_13  and  O_12 
ROOT
ATOM      1  C   UNL d   1      53.589  32.155  53.840  0.00  0.00     0.171 A 
ATOM      2  N   UNL d   1      54.301  32.197  54.261  0.00  0.00    -0.225 NA
ATOM      3  N   UNL d   1      53.234  32.901  53.916  0.00  0.00    -0.286 N 
ATOM      4  C   UNL d   1      53.711  33.373  54.363  0.00  0.00     0.083 A 
ATOM      5  C   UNL d   1      54.377  32.934  54.577  0.00  0.00     0.099 A 
ATOM      6  C   UNL d   1      53.637  34.155  54.611  0.00  0.00     0.019 A 
ATOM      7  C   UNL d   1      54.943  33.293  55.032  0.00  0.00     0.021 A 
ATOM      8  C   UNL d   1      54.216  34.479  55.061  0.00  0.00     0.002 A 
ATOM      9  C   UNL d   1      54.882  34.040  55.275  0.00  0.00     0.002 A 
ENDROOT
BRANCH   3  10
ATOM     10  C   UNL d   1      52.519  32.975  53.538  0.00  0.00     0.108 C 
BRANCH  10  11
ATOM     11  C   UNL d   1      52.111  33.677  53.495  0.00  0.00     0.142 C 
BRANCH  11  12
ATOM     12  O   UNL d   1      51.450  33.776  53.035  0.00  0.00    -0.304 OA
BRANCH  12  13
ATOM     13  C   UNL d   1      50.776  34.099  52.866  0.00  0.00     0.100 A 
ATOM     14  C   UNL d   1      50.893  33.982  52.057  0.00  0.00     0.025 A 
ATOM     15  C   UNL d   1      50.319  34.228  51.518  0.00  0.00     0.002 A 
ATOM     16  C   UNL d   1      49.624  34.593  51.786  0.00  0.00     0.000 A 
ATOM     17  C   UNL d   1      49.507  34.709  52.594  0.00  0.00     0.002 A 
ATOM     18  C   UNL d   1      50.085  34.461  53.135  0.00  0.00     0.025 A 
ENDBRANCH  12  13
ENDBRANCH  11  12
ENDBRANCH  10  11
ENDBRANCH   3  10
BRANCH   1  19
ATOM     19  C   UNL d   1      53.292  31.505  53.430  0.00  0.00     0.134 A 
ATOM     20  O   UNL d   1      53.257  31.437  52.624  0.00  0.00    -0.302 OA
ATOM     21  C   UNL d   1      52.920  30.697  52.443  0.00  0.00     0.123 A 
ATOM     22  C   UNL d   1      52.754  30.321  53.160  0.00  0.00     0.029 A 
ATOM     23  C   UNL d   1      52.990  30.835  53.773  0.00  0.00     0.030 A 
ENDBRANCH   1  19
TORSDOF 5
ENDMDL
MODEL 3
REMARK VINA RESULT:      -8.9      1.115      4.115
REMARK  5 active torsions:
REMARK  status: ('A' for Active; 'I' for Inactive)
REMARK    1  A    between atoms: C_6  and  C_1 
REMARK    2  A    between atoms: C_11  and  N_3 
REMARK    3  A    between atoms: C_14  and  C_11 
REMARK    4  A    between atoms: O_12  and  C_14 
REMARK    5  A    between atoms: C_13  and  O_12 
ROOT
ATOM      1  C   UNL d   1      52.714  33.940  53.862  0.00  0.00     0.171 A 
ATOM      2  N   UNL d   1      53.003  34.574  54.310  0.00  0.00    -0.225 NA
ATOM      3  N   UNL d   1      53.270  33.329  53.946  0.00  0.00    -0.286 N 
ATOM      4  C   UNL d   1      53.866  33.584  54.424  0.00  0.00     0.083 A 
ATOM      5  C   UNL d   1      53.700  34.360  54.651  0.00  0.00     0.099 A 
ATOM      6  C   UNL d   1      54.553  33.214  54.693  0.00  0.00     0.019 A 
ATOM      7  C   UNL d   1      54.226  34.738  55.138  0.00  0.00     0.021 A 
ATOM      8  C   UNL d   1      55.051  33.619  55.174  0.00  0.00     0.002 A 
ATOM      9  C   UNL d   1      54.884  34.396  55.400  0.00  0.00     0.002 A 
ENDROOT
BRANCH   3  10
ATOM     10  C   UNL d   1      53.086  32.648  53.543  0.00  0.00     0.108 C 
BRANCH  10  11
ATOM     11  C   UNL d   1      53.568  31.993  53.537  0.00  0.00     0.142 C 
BRANCH  11  12
ATOM     12  O   UNL d   1      53.284  31.237  53.465  0.00  0.00    -0.304 OA
BRANCH  12  13
ATOM     13  C   UNL d   1      53.247  30.498  53.665  0.00  0.00     0.100 A 
ATOM     14  C   UNL d   1      52.807  30.311  52.993  0.00  0.00     0.025 A 
ATOM     15  C   UNL d   1      52.565  29.533  52.862  0.00  0.00     0.002 A 
ATOM     16  C   UNL d   1      52.762  28.938  53.404  0.00  0.00     0.000 A 
ATOM     17  C   UNL d   1      53.202  29.125  54.077  0.00  0.00     0.002 A 
ATOM     18  C   UNL d   1      53.445  29.907  54.207  0.00  0.00     0.025 A 
ENDBRANCH  12  13
ENDBRANCH  11  12
ENDBRANCH  10  11
ENDBRANCH   3  10
BRANCH   1  19
ATOM     19  C   UNL d   1      52.018  33.919  53.421  0.00  0.00     0.134 A 
ATOM     20  O   UNL d   1      51.320  33.591  53.666  0.00  0.00    -0.302 OA
ATOM     21  C   UNL d   1      50.762  33.689  53.055  0.00  0.00     0.123 A 
ATOM     22  C   UNL d   1      51.141  34.084  52.437  0.00  0.00     0.029 A 
ATOM     23  C   UNL d   1      51.928  34.224  52.675  0.00  0.00     0.030 A 
ENDBRANCH   1  19
TORSDOF 5
ENDMDL
MODEL 4
REMARK VINA RESULT:      -8.8      1.132      3.736
REMARK  5 active torsions:
REMARK  status: ('A' for Active; 'I' for Inactive)
REMARK    1  A    between atoms: C_6  and  C_1 
REMARK    2  A    between atoms: C_11  and  N_3 
REMARK    3  A    between atoms: C_14  and  C_11 
REMARK    4  A    between atoms: O_12  and  C_14 
REMARK    5  A    between atoms: C_13  and  O_12 
ROOT
ATOM      1  C   UNL d   1      53.318  33.869  54.029  0.00  0.00     0.171 A 
ATOM      2  N   UNL d   1      52.886  34.573  53.960  0.00  0.00    -0.225 NA
ATOM      3  N   UNL d   1      52.912  33.307  53.573  0.00  0.00    -0.286 N 
ATOM      4  C   UNL d   1      52.265  33.655  53.244  0.00  0.00     0.083 A 
ATOM      5  C   UNL d   1      52.249  34.445  53.485  0.00  0.00     0.099 A 
ATOM      6  C   UNL d   1      51.674  33.363  52.749  0.00  0.00     0.019 A 
ATOM      7  C   UNL d   1      51.642  34.914  53.222  0.00  0.00     0.021 A 
ATOM      8  C   UNL d   1      51.089  33.856  52.507  0.00  0.00     0.002 A 
ATOM      9  C   UNL d   1      51.073  34.646  52.748  0.00  0.00     0.002 A 
ENDROOT
BRANCH   3  10
ATOM     10  C   UNL d   1      53.252  32.568  53.569  0.00  0.00     0.108 C 
BRANCH  10  11
ATOM     11  C   UNL d   1      52.851  31.898  53.343  0.00  0.00     0.142 C 
BRANCH  11  12
ATOM     12  O   UNL d   1      53.163  31.153  53.412  0.00  0.00    -0.304 OA
BRANCH  12  13
ATOM     13  C   UNL d   1      53.233  30.468  53.749  0.00  0.00     0.100 A 
ATOM     14  C   UNL d   1      52.944  30.079  53.081  0.00  0.00     0.025 A 
ATOM     15  C   UNL d   1      52.873  29.257  53.081  0.00  0.00     0.002 A 
ATOM     16  C   UNL d   1      53.091  28.820  53.751  0.00  0.00     0.000 A 
ATOM     17  C   UNL d   1      53.380  29.208  54.419  0.00  0.00     0.002 A 
ATOM     18  C   UNL d   1      53.451  30.034  54.417  0.00  0.00     0.025 A 
ENDBRANCH  12  13
ENDBRANCH  11  12
ENDBRANCH  10  11
ENDBRANCH   3  10
BRANCH   1  19
ATOM     19  C   UNL d   1      54.009  33.751  54.462  0.00  0.00     0.134 A 
ATOM     20  O   UNL d   1      54.756  33.722  54.151  0.00  0.00    -0.302 OA
ATOM     21  C   UNL d   1      55.290  33.594  54.778  0.00  0.00     0.123 A 
ATOM     22  C   UNL d   1      54.846  33.547  55.473  0.00  0.00     0.029 A 
ATOM     23  C   UNL d   1      54.045  33.647  55.266  0.00  0.00     0.030 A 
ENDBRANCH   1  19
TORSDOF 5
ENDMDL
MODEL 5
REMARK VINA RESULT:      -6.8      0.793      3.433
REMARK  5 active torsions:
REMARK  status: ('A' for Active; 'I' for Inactive)
REMARK    1  A    between atoms: C_6  and  C_1 
REMARK    2  A    between atoms: C_11  and  N_3 
REMARK    3  A    between atoms: C_14  and  C_11 
REMARK    4  A    between atoms: O_12  and  C_14 
REMARK    5  A    between atoms: C_13  and  O_12 
ROOT
ATOM      1  C   UNL d   1      52.145  31.969  52.993  0.00  0.00     0.171 A 
ATOM      2  N   UNL d   1      51.720  31.260  52.951  0.00  0.00    -0.225 NA
ATOM      3  N   UNL d   1      52.921  31.759  53.197  0.00  0.00    -0.286 N 
ATOM      4  C   UNL d   1      52.962  30.958  53.275  0.00  0.00     0.083 A 
ATOM      5  C   UNL d   1      52.213  30.647  53.122  0.00  0.00     0.099 A 
ATOM      6  C   UNL d   1      53.586  30.455  53.467  0.00  0.00     0.019 A 
ATOM      7  C   UNL d   1      52.115  29.843  53.167  0.00  0.00     0.021 A 
ATOM      8  C   UNL d   1      53.453  29.665  53.503  0.00  0.00     0.002 A 
ATOM      9  C   UNL d   1      52.704  29.353  53.350  0.00  0.00     0.002 A 
ENDROOT
BRANCH   3  10
ATOM     10  C   UNL d   1      53.433  32.386  53.266  0.00  0.00     0.108 C 
BRANCH  10  11
ATOM     11  C   UNL d   1      54.164  32.324  53.617  0.00  0.00     0.142 C 
BRANCH  11  12
ATOM     12  O   UNL d   1      54.512  32.935  54.022  0.00  0.00    -0.304 OA
BRANCH  12  13
ATOM     13  C   UNL d   1      54.730  33.295  54.662  0.00  0.00     0.100 A 
ATOM     14  C   UNL d   1      55.369  33.649  54.278  0.00  0.00     0.025 A 
ATOM     15  C   UNL d   1      55.873  34.151  54.694  0.00  0.00     0.002 A 
ATOM     16  C   UNL d   1      55.741  34.303  55.498  0.00  0.00     0.000 A 
ATOM     17  C   UNL d   1      55.102  33.950  55.883  0.00  0.00     0.002 A 
ATOM     18  C   UNL d   1      54.596  33.445  55.463  0.00  0.00     0.025 A 
ENDBRANCH  12  13
ENDBRANCH  11  12
ENDBRANCH  10  11
ENDBRANCH   3  10
BRANCH   1  19
ATOM     19  C   UNL d   1      51.856  32.729  52.858  0.00  0.00     0.134 A 
ATOM     20  O   UNL d   1      52.007  33.177  52.201  0.00  0.00    -0.302 OA
ATOM     21  C   UNL d   1      51.610  33.905  52.290  0.00  0.00     0.123 A 
ATOM     22  C   UNL d   1      51.218  33.884  53.016  0.00  0.00     0.029 A 
ATOM     23  C   UNL d   1      51.378  33.143  53.366  0.00  0.00     0.030 A 
ENDBRANCH   1  19
TORSDOF 5
ENDMDL
MODEL 6
REMARK VINA RESULT:      -6.3      9.661     10.771
REMARK  5 active torsions:
REMARK  status: ('A' for Active; 'I' for Inactive)
REMARK    1  A    between atoms: C_6  and  C_1 
REMARK    2  A    between atoms: C_11  and  N_3 
REMARK    3  A    between atoms: C_14  and  C_11 
REMARK    4  A    between atoms: O_12  and  C_14 
REMARK    5  A    between atoms: C_13  and  O_12 
ROOT
ATOM      1  C   UNL d   1      44.781  28.459  57.602  0.00  0.00     0.171 A 
ATOM      2  N   UNL d   1      44.710  28.552  56.782  0.00  0.00    -0.225 NA
ATOM      3  N   UNL d   1      44.724  29.222  57.924  0.00  0.00    -0.286 N 
ATOM      4  C   UNL d   1      44.624  29.751  57.325  0.00  0.00     0.083 A 
ATOM      5  C   UNL d   1      44.615  29.333  56.613  0.00  0.00     0.099 A 
ATOM      6  C   UNL d   1      44.537  30.571  57.323  0.00  0.00     0.019 A 
ATOM      7  C   UNL d   1      44.520  29.751  55.925  0.00  0.00     0.021 A 
ATOM      8  C   UNL d   1      44.445  30.952  56.624  0.00  0.00     0.002 A 
ATOM      9  C   UNL d   1      44.436  30.534  55.911  0.00  0.00     0.002 A 
ENDROOT
BRANCH   3  10
ATOM     10  C   UNL d   1      44.780  29.250  58.735  0.00  0.00     0.108 C 
BRANCH  10  11
ATOM     11  C   UNL d   1      44.753  29.946  59.156  0.00  0.00     0.142 C 
BRANCH  11  12
ATOM     12  O   UNL d   1      44.669  29.969  59.962  0.00  0.00    -0.304 OA
BRANCH  12  13
ATOM     13  C   UNL d   1      44.610  30.334  60.634  0.00  0.00     0.100 A 
ATOM     14  C   UNL d   1      44.601  29.621  61.050  0.00  0.00     0.025 A 
ATOM     15  C   UNL d   1      44.541  29.626  61.873  0.00  0.00     0.002 A 
ATOM     16  C   UNL d   1      44.489  30.344  62.284  0.00  0.00     0.000 A 
ATOM     17  C   UNL d   1      44.498  31.056  61.868  0.00  0.00     0.002 A 
ATOM     18  C   UNL d   1      44.558  31.050  61.041  0.00  0.00     0.025 A 
ENDBRANCH  12  13
ENDBRANCH  11  12
ENDBRANCH  10  11
ENDBRANCH   3  10
BRANCH   1  19
ATOM     19  C   UNL d   1      44.886  27.753  58.015  0.00  0.00     0.134 A 
ATOM     20  O   UNL d   1      44.314  27.374  58.445  0.00  0.00    -0.302 OA
ATOM     21  C   UNL d   1      44.652  26.685  58.770  0.00  0.00     0.123 A 
ATOM     22  C   UNL d   1      45.441  26.659  58.524  0.00  0.00     0.029 A 
ATOM     23  C   UNL d   1      45.578  27.332  58.051  0.00  0.00     0.030 A 
ENDBRANCH   1  19
TORSDOF 5
ENDMDL
