MODEL 1
REMARK VINA RESULT:      -8.4      0.000      0.000
REMARK  4 active torsions:
REMARK  status: ('A' for Active; 'I' for Inactive)
REMARK    1  A    between atoms: C_2  and  C_1 
REMARK    2  A    between atoms: C_3  and  C_2 
REMARK    3  A    between atoms: C_5  and  C_3 
REMARK    4  A    between atoms: C_13  and  C_5 
ROOT
ATOM      1  C   UNL d   1     -48.136  14.186  22.816  0.00  0.00     0.042 C 
ENDROOT
BRANCH   1   2
ATOM      2  C   UNL d   1     -48.595  14.822  22.556  0.00  0.00     0.199 C 
ATOM      3  O   UNL d   1     -48.242  15.523  22.334  0.00  0.00    -0.286 OA
BRANCH   2   4
ATOM      4  C   UNL d   1     -49.408  14.741  22.524  0.00  0.00     0.078 A 
ATOM      5  C   UNL d   1     -49.907  15.144  23.023  0.00  0.00     0.199 A 
ATOM      6  C   UNL d   1     -50.706  15.057  22.984  0.00  0.00     0.042 A 
ATOM      7  O   UNL d   1     -49.552  15.688  23.619  0.00  0.00    -0.286 OA
ATOM      8  C   UNL d   1     -51.060  14.563  22.445  0.00  0.00     0.003 A 
ATOM      9  C   UNL d   1     -50.598  14.151  21.938  0.00  0.00     0.000 A 
ATOM     10  C   UNL d   1     -49.771  14.231  21.967  0.00  0.00     0.006 A 
ATOM     11  C   UNL d   1     -50.803  13.688  21.424  0.00  0.00     0.000 C 
ENDBRANCH   2   4
ENDBRANCH   1   2
BRANCH   1  12
ATOM     12  C   UNL d   1     -47.332  14.320  22.648  0.00  0.00     0.003 C 
BRANCH  12  13
ATOM     13  C   UNL d   1     -46.755  13.640  22.766  0.00  0.00     0.002 A 
ATOM     14  C   UNL d   1     -46.960  12.956  23.115  0.00  0.00     0.027 A 
ATOM     15  C   UNL d   1     -46.417  12.344  23.214  0.00  0.00     0.123 A 
ATOM     16  O   UNL d   1     -46.635  11.604  23.591  0.00  0.00    -0.301 OA
ATOM     17  C   UNL d   1     -45.601  12.412  22.945  0.00  0.00     0.123 A 
ATOM     18  C   UNL d   1     -46.111  10.986  23.698  0.00  0.00     0.149 A 
ATOM     19  C   UNL d   1     -45.274  11.065  23.418  0.00  0.00     0.149 A 
ATOM     20  O   UNL d   1     -45.051  11.765  23.056  0.00  0.00    -0.301 OA
ATOM     21  C   UNL d   1     -45.370  13.130  22.573  0.00  0.00     0.027 A 
ATOM     22  C   UNL d   1     -45.918  13.733  22.479  0.00  0.00     0.002 A 
ENDBRANCH  12  13
ENDBRANCH   1  12
TORSDOF 4
ENDMDL
MODEL 2
REMARK VINA RESULT:      -7.8      1.422      1.868
REMARK  4 active torsions:
REMARK  status: ('A' for Active; 'I' for Inactive)
REMARK    1  A    between atoms: C_2  and  C_1 
REMARK    2  A    between atoms: C_3  and  C_2 
REMARK    3  A    between atoms: C_5  and  C_3 
REMARK    4  A    between atoms: C_13  and  C_5 
ROOT
ATOM      1  C   UNL d   1     -48.821  12.781  22.989  0.00  0.00     0.042 C 
ENDROOT
BRANCH   1   2
ATOM      2  C   UNL d   1     -49.637  12.818  23.111  0.00  0.00     0.199 C 
ATOM      3  O   UNL d   1     -50.016  12.244  23.549  0.00  0.00    -0.286 OA
BRANCH   2   4
ATOM      4  C   UNL d   1     -50.061  13.438  22.789  0.00  0.00     0.078 A 
ATOM      5  C   UNL d   1     -50.471  13.371  22.090  0.00  0.00     0.199 A 
ATOM      6  C   UNL d   1     -50.886  13.987  21.781  0.00  0.00     0.042 A 
ATOM      7  O   UNL d   1     -50.453  12.596  21.669  0.00  0.00    -0.286 OA
ATOM      8  C   UNL d   1     -50.919  14.712  22.148  0.00  0.00     0.003 A 
ATOM      9  C   UNL d   1     -50.527  14.812  22.838  0.00  0.00     0.000 A 
ATOM     10  C   UNL d   1     -50.095  14.185  23.169  0.00  0.00     0.006 A 
ATOM     11  C   UNL d   1     -50.489  15.407  23.245  0.00  0.00     0.000 C 
ENDBRANCH   2   4
ENDBRANCH   1   2
BRANCH   1  12
ATOM     12  C   UNL d   1     -48.459  12.316  23.577  0.00  0.00     0.003 C 
BRANCH  12  13
ATOM     13  C   UNL d   1     -47.579  12.147  23.502  0.00  0.00     0.002 A 
ATOM     14  C   UNL d   1     -47.264  11.428  23.632  0.00  0.00     0.027 A 
ATOM     15  C   UNL d   1     -46.455  11.294  23.558  0.00  0.00     0.123 A 
ATOM     16  O   UNL d   1     -46.112  10.520  23.697  0.00  0.00    -0.301 OA
ATOM     17  C   UNL d   1     -45.907  11.922  23.336  0.00  0.00     0.123 A 
ATOM     18  C   UNL d   1     -45.312  10.367  23.629  0.00  0.00     0.149 A 
ATOM     19  C   UNL d   1     -44.757  11.018  23.401  0.00  0.00     0.149 A 
ATOM     20  O   UNL d   1     -45.069  11.764  23.264  0.00  0.00    -0.301 OA
ATOM     21  C   UNL d   1     -46.226  12.687  23.196  0.00  0.00     0.027 A 
ATOM     22  C   UNL d   1     -47.033  12.811  23.272  0.00  0.00     0.002 A 
ENDBRANCH  12  13
ENDBRANCH   1  12
TORSDOF 4
ENDMDL
MODEL 3
REMARK VINA RESULT:      -7.8      1.186      1.479
REMARK  4 active torsions:
REMARK  status: ('A' for Active; 'I' for Inactive)
REMARK    1  A    between atoms: C_2  and  C_1 
REMARK    2  A    between atoms: C_3  and  C_2 
REMARK    3  A    between atoms: C_5  and  C_3 
REMARK    4  A    between atoms: C_13  and  C_5 
ROOT
ATOM      1  C   UNL d   1     -47.998  13.037  22.748  0.00  0.00     0.042 C 
ENDROOT
BRANCH   1   2
ATOM      2  C   UNL d   1     -48.618  13.581  22.795  0.00  0.00     0.199 C 
ATOM      3  O   UNL d   1     -48.470  14.360  22.985  0.00  0.00    -0.286 OA
BRANCH   2   4
ATOM      4  C   UNL d   1     -49.382  13.329  22.650  0.00  0.00     0.078 A 
ATOM      5  C   UNL d   1     -49.783  13.520  21.970  0.00  0.00     0.199 A 
ATOM      6  C   UNL d   1     -50.536  13.267  21.836  0.00  0.00     0.042 A 
ATOM      7  O   UNL d   1     -49.373  14.020  21.370  0.00  0.00    -0.286 OA
ATOM      8  C   UNL d   1     -50.937  12.806  22.372  0.00  0.00     0.003 A 
ATOM      9  C   UNL d   1     -50.570  12.599  23.052  0.00  0.00     0.000 A 
ATOM     10  C   UNL d   1     -49.794  12.853  23.204  0.00  0.00     0.006 A 
ATOM     11  C   UNL d   1     -50.830  12.197  23.593  0.00  0.00     0.000 C 
ENDBRANCH   2   4
ENDBRANCH   1   2
BRANCH   1  12
ATOM     12  C   UNL d   1     -47.278  13.396  22.965  0.00  0.00     0.003 C 
BRANCH  12  13
ATOM     13  C   UNL d   1     -46.537  12.887  22.976  0.00  0.00     0.002 A 
ATOM     14  C   UNL d   1     -46.510  12.170  23.318  0.00  0.00     0.027 A 
ATOM     15  C   UNL d   1     -45.821  11.718  23.317  0.00  0.00     0.123 A 
ATOM     16  O   UNL d   1     -45.789  10.944  23.685  0.00  0.00    -0.301 OA
ATOM     17  C   UNL d   1     -45.094  11.998  22.947  0.00  0.00     0.123 A 
ATOM     18  C   UNL d   1     -45.116  10.482  23.695  0.00  0.00     0.149 A 
ATOM     19  C   UNL d   1     -44.373  10.777  23.312  0.00  0.00     0.149 A 
ATOM     20  O   UNL d   1     -44.388  11.515  22.956  0.00  0.00    -0.301 OA
ATOM     21  C   UNL d   1     -45.107  12.755  22.581  0.00  0.00     0.027 A 
ATOM     22  C   UNL d   1     -45.799  13.197  22.587  0.00  0.00     0.002 A 
ENDBRANCH  12  13
ENDBRANCH   1  12
TORSDOF 4
ENDMDL
MODEL 4
REMARK VINA RESULT:      -7.1      8.386      9.731
REMARK  4 active torsions:
REMARK  status: ('A' for Active; 'I' for Inactive)
REMARK    1  A    between atoms: C_2  and  C_1 
REMARK    2  A    between atoms: C_3  and  C_2 
REMARK    3  A    between atoms: C_5  and  C_3 
REMARK    4  A    between atoms: C_13  and  C_5 
ROOT
ATOM      1  C   UNL d   1     -39.950  14.703  18.851  0.00  0.00     0.042 C 
ENDROOT
BRANCH   1   2
ATOM      2  C   UNL d   1     -40.200  14.278  18.189  0.00  0.00     0.199 C 
ATOM      3  O   UNL d   1     -40.926  13.906  18.186  0.00  0.00    -0.286 OA
BRANCH   2   4
ATOM      4  C   UNL d   1     -39.710  14.232  17.536  0.00  0.00     0.078 A 
ATOM      5  C   UNL d   1     -39.776  14.740  16.905  0.00  0.00     0.199 A 
ATOM      6  C   UNL d   1     -39.289  14.688  16.266  0.00  0.00     0.042 A 
ATOM      7  O   UNL d   1     -40.400  15.362  16.932  0.00  0.00    -0.286 OA
ATOM      8  C   UNL d   1     -38.705  14.125  16.214  0.00  0.00     0.003 A 
ATOM      9  C   UNL d   1     -38.613  13.608  16.818  0.00  0.00     0.000 A 
ATOM     10  C   UNL d   1     -39.109  13.651  17.484  0.00  0.00     0.006 A 
ATOM     11  C   UNL d   1     -38.132  13.073  16.877  0.00  0.00     0.000 C 
ENDBRANCH   2   4
ENDBRANCH   1   2
BRANCH   1  12
ATOM     12  C   UNL d   1     -40.393  14.485  19.522  0.00  0.00     0.003 C 
BRANCH  12  13
ATOM     13  C   UNL d   1     -40.159  14.836  20.316  0.00  0.00     0.002 A 
ATOM     14  C   UNL d   1     -39.605  14.511  20.786  0.00  0.00     0.027 A 
ATOM     15  C   UNL d   1     -39.405  14.848  21.511  0.00  0.00     0.123 A 
ATOM     16  O   UNL d   1     -38.808  14.500  22.020  0.00  0.00    -0.301 OA
ATOM     17  C   UNL d   1     -39.783  15.567  21.798  0.00  0.00     0.123 A 
ATOM     18  C   UNL d   1     -38.596  14.818  22.741  0.00  0.00     0.149 A 
ATOM     19  C   UNL d   1     -38.990  15.558  23.030  0.00  0.00     0.149 A 
ATOM     20  O   UNL d   1     -39.562  15.903  22.554  0.00  0.00    -0.301 OA
ATOM     21  C   UNL d   1     -40.371  15.922  21.313  0.00  0.00     0.027 A 
ATOM     22  C   UNL d   1     -40.563  15.579  20.593  0.00  0.00     0.002 A 
ENDBRANCH  12  13
ENDBRANCH   1  12
TORSDOF 4
ENDMDL
MODEL 5
REMARK VINA RESULT:      -6.9      1.100      4.710
REMARK  4 active torsions:
REMARK  status: ('A' for Active; 'I' for Inactive)
REMARK    1  A    between atoms: C_2  and  C_1 
REMARK    2  A    between atoms: C_3  and  C_2 
REMARK    3  A    between atoms: C_5  and  C_3 
REMARK    4  A    between atoms: C_13  and  C_5 
ROOT
ATOM      1  C   UNL d   1     -46.932  13.510  22.519  0.00  0.00     0.042 C 
ENDROOT
BRANCH   1   2
ATOM      2  C   UNL d   1     -46.217  13.438  22.925  0.00  0.00     0.199 C 
ATOM      3  O   UNL d   1     -45.892  14.080  23.307  0.00  0.00    -0.286 OA
BRANCH   2   4
ATOM      4  C   UNL d   1     -45.838  12.713  22.940  0.00  0.00     0.078 A 
ATOM      5  C   UNL d   1     -45.117  12.590  22.586  0.00  0.00     0.199 A 
ATOM      6  C   UNL d   1     -44.752  11.873  22.606  0.00  0.00     0.042 A 
ATOM      7  O   UNL d   1     -44.734  13.268  22.171  0.00  0.00    -0.286 OA
ATOM      8  C   UNL d   1     -45.082  11.231  22.980  0.00  0.00     0.003 A 
ATOM      9  C   UNL d   1     -45.792  11.318  23.339  0.00  0.00     0.000 A 
ATOM     10  C   UNL d   1     -46.180  12.053  23.327  0.00  0.00     0.006 A 
ATOM     11  C   UNL d   1     -46.173  10.821  23.698  0.00  0.00     0.000 C 
ENDBRANCH   2   4
ENDBRANCH   1   2
BRANCH   1  12
ATOM     12  C   UNL d   1     -47.277  14.254  22.667  0.00  0.00     0.003 C 
BRANCH  12  13
ATOM     13  C   UNL d   1     -48.158  14.351  22.512  0.00  0.00     0.002 A 
ATOM     14  C   UNL d   1     -48.565  13.876  22.021  0.00  0.00     0.027 A 
ATOM     15  C   UNL d   1     -49.372  13.982  21.893  0.00  0.00     0.123 A 
ATOM     16  O   UNL d   1     -49.815  13.471  21.364  0.00  0.00    -0.301 OA
ATOM     17  C   UNL d   1     -49.817  14.609  22.283  0.00  0.00     0.123 A 
ATOM     18  C   UNL d   1     -50.615  13.560  21.224  0.00  0.00     0.149 A 
ATOM     19  C   UNL d   1     -51.064  14.208  21.628  0.00  0.00     0.149 A 
ATOM     20  O   UNL d   1     -50.655  14.703  22.137  0.00  0.00    -0.301 OA
ATOM     21  C   UNL d   1     -49.399  15.119  22.805  0.00  0.00     0.027 A 
ATOM     22  C   UNL d   1     -48.596  15.006  22.926  0.00  0.00     0.002 A 
ENDBRANCH  12  13
ENDBRANCH   1  12
TORSDOF 4
ENDMDL
MODEL 6
REMARK VINA RESULT:      -6.5      8.365      9.872
REMARK  4 active torsions:
REMARK  status: ('A' for Active; 'I' for Inactive)
REMARK    1  A    between atoms: C_2  and  C_1 
REMARK    2  A    between atoms: C_3  and  C_2 
REMARK    3  A    between atoms: C_5  and  C_3 
REMARK    4  A    between atoms: C_13  and  C_5 
ROOT
ATOM      1  C   UNL d   1     -39.793  14.524  19.633  0.00  0.00     0.042 C 
ENDROOT
BRANCH   1   2
ATOM      2  C   UNL d   1     -40.232  14.442  20.327  0.00  0.00     0.199 C 
ATOM      3  O   UNL d   1     -41.023  14.246  20.295  0.00  0.00    -0.286 OA
BRANCH   2   4
ATOM      4  C   UNL d   1     -39.864  14.559  21.048  0.00  0.00     0.078 A 
ATOM      5  C   UNL d   1     -39.910  15.262  21.453  0.00  0.00     0.199 A 
ATOM      6  C   UNL d   1     -39.544  15.367  22.162  0.00  0.00     0.042 A 
ATOM      7  O   UNL d   1     -40.377  15.920  21.096  0.00  0.00    -0.286 OA
ATOM      8  C   UNL d   1     -39.108  14.779  22.514  0.00  0.00     0.003 A 
ATOM      9  C   UNL d   1     -39.041  14.074  22.141  0.00  0.00     0.000 A 
ATOM     10  C   UNL d   1     -39.414  13.951  21.409  0.00  0.00     0.006 A 
ATOM     11  C   UNL d   1     -38.682  13.487  22.360  0.00  0.00     0.000 C 
ENDBRANCH   2   4
ENDBRANCH   1   2
BRANCH   1  12
ATOM     12  C   UNL d   1     -40.208  14.202  18.986  0.00  0.00     0.003 C 
BRANCH  12  13
ATOM     13  C   UNL d   1     -39.817  14.229  18.176  0.00  0.00     0.002 A 
ATOM     14  C   UNL d   1     -39.252  13.717  17.952  0.00  0.00     0.027 A 
ATOM     15  C   UNL d   1     -38.907  13.758  17.205  0.00  0.00     0.123 A 
ATOM     16  O   UNL d   1     -38.296  13.207  16.960  0.00  0.00    -0.301 OA
ATOM     17  C   UNL d   1     -39.139  14.356  16.628  0.00  0.00     0.123 A 
ATOM     18  C   UNL d   1     -37.942  13.232  16.224  0.00  0.00     0.149 A 
ATOM     19  C   UNL d   1     -38.186  13.850  15.637  0.00  0.00     0.149 A 
ATOM     20  O   UNL d   1     -38.769  14.383  15.857  0.00  0.00    -0.301 OA
ATOM     21  C   UNL d   1     -39.736  14.904  16.852  0.00  0.00     0.027 A 
ATOM     22  C   UNL d   1     -40.073  14.855  17.598  0.00  0.00     0.002 A 
ENDBRANCH  12  13
ENDBRANCH   1  12
TORSDOF 4
ENDMDL
MODEL 7
REMARK VINA RESULT:      -5.8      8.424      9.763
REMARK  4 active torsions:
REMARK  status: ('A' for Active; 'I' for Inactive)
REMARK    1  A    between atoms: C_2  and  C_1 
REMARK    2  A    between atoms: C_3  and  C_2 
REMARK    3  A    between atoms: C_5  and  C_3 
REMARK    4  A    between atoms: C_13  and  C_5 
ROOT
ATOM      1  C   UNL d   1     -39.525  14.260  20.620  0.00  0.00     0.042 C 
ENDROOT
BRANCH   1   2
ATOM      2  C   UNL d   1     -39.674  14.030  21.399  0.00  0.00     0.199 C 
ATOM      3  O   UNL d   1     -40.328  13.577  21.578  0.00  0.00    -0.286 OA
BRANCH   2   4
ATOM      4  C   UNL d   1     -39.159  14.263  21.989  0.00  0.00     0.078 A 
ATOM      5  C   UNL d   1     -38.560  13.785  22.259  0.00  0.00     0.199 A 
ATOM      6  C   UNL d   1     -38.057  14.024  22.841  0.00  0.00     0.042 A 
ATOM      7  O   UNL d   1     -38.467  12.987  21.897  0.00  0.00    -0.286 OA
ATOM      8  C   UNL d   1     -38.119  14.754  23.192  0.00  0.00     0.003 A 
ATOM      9  C   UNL d   1     -38.699  15.250  22.950  0.00  0.00     0.000 A 
ATOM     10  C   UNL d   1     -39.225  15.017  22.350  0.00  0.00     0.006 A 
ATOM     11  C   UNL d   1     -38.845  15.915  23.190  0.00  0.00     0.000 C 
ENDBRANCH   2   4
ENDBRANCH   1   2
BRANCH   1  12
ATOM     12  C   UNL d   1     -40.184  14.097  20.137  0.00  0.00     0.003 C 
BRANCH  12  13
ATOM     13  C   UNL d   1     -40.129  14.302  19.263  0.00  0.00     0.002 A 
ATOM     14  C   UNL d   1     -40.602  14.838  18.914  0.00  0.00     0.027 A 
ATOM     15  C   UNL d   1     -40.536  15.012  18.112  0.00  0.00     0.123 A 
ATOM     16  O   UNL d   1     -41.045  15.590  17.733  0.00  0.00    -0.301 OA
ATOM     17  C   UNL d   1     -39.954  14.624  17.608  0.00  0.00     0.123 A 
ATOM     18  C   UNL d   1     -40.995  15.776  16.939  0.00  0.00     0.149 A 
ATOM     19  C   UNL d   1     -40.394  15.372  16.428  0.00  0.00     0.149 A 
ATOM     20  O   UNL d   1     -39.900  14.817  16.776  0.00  0.00    -0.301 OA
ATOM     21  C   UNL d   1     -39.447  14.054  17.963  0.00  0.00     0.027 A 
ATOM     22  C   UNL d   1     -39.520  13.888  18.763  0.00  0.00     0.002 A 
ENDBRANCH  12  13
ENDBRANCH   1  12
TORSDOF 4
ENDMDL
MODEL 8
REMARK VINA RESULT:      -5.5      8.885      9.641
REMARK  4 active torsions:
REMARK  status: ('A' for Active; 'I' for Inactive)
REMARK    1  A    between atoms: C_2  and  C_1 
REMARK    2  A    between atoms: C_3  and  C_2 
REMARK    3  A    between atoms: C_5  and  C_3 
REMARK    4  A    between atoms: C_13  and  C_5 
ROOT
ATOM      1  C   UNL d   1     -39.137  15.128  19.540  0.00  0.00     0.042 C 
ENDROOT
BRANCH   1   2
ATOM      2  C   UNL d   1     -38.977  15.420  18.785  0.00  0.00     0.199 C 
ATOM      3  O   UNL d   1     -38.306  15.861  18.646  0.00  0.00    -0.286 OA
BRANCH   2   4
ATOM      4  C   UNL d   1     -39.500  15.261  18.176  0.00  0.00     0.078 A 
ATOM      5  C   UNL d   1     -39.351  14.702  17.607  0.00  0.00     0.199 A 
ATOM      6  C   UNL d   1     -39.872  14.553  17.011  0.00  0.00     0.042 A 
ATOM      7  O   UNL d   1     -38.594  14.252  17.651  0.00  0.00    -0.286 OA
ATOM      8  C   UNL d   1     -40.577  14.953  16.946  0.00  0.00     0.003 A 
ATOM      9  C   UNL d   1     -40.755  15.511  17.491  0.00  0.00     0.000 A 
ATOM     10  C   UNL d   1     -40.226  15.675  18.110  0.00  0.00     0.006 A 
ATOM     11  C   UNL d   1     -41.347  15.922  17.529  0.00  0.00     0.000 C 
ENDBRANCH   2   4
ENDBRANCH   1   2
BRANCH   1  12
ATOM     12  C   UNL d   1     -38.610  15.454  20.096  0.00  0.00     0.003 C 
BRANCH  12  13
ATOM     13  C   UNL d   1     -38.676  15.185  20.952  0.00  0.00     0.002 A 
ATOM     14  C   UNL d   1     -38.456  14.461  21.195  0.00  0.00     0.027 A 
ATOM     15  C   UNL d   1     -38.524  14.233  21.984  0.00  0.00     0.123 A 
ATOM     16  O   UNL d   1     -38.287  13.452  22.250  0.00  0.00    -0.301 OA
ATOM     17  C   UNL d   1     -38.838  14.765  22.586  0.00  0.00     0.123 A 
ATOM     18  C   UNL d   1     -38.347  13.208  23.027  0.00  0.00     0.149 A 
ATOM     19  C   UNL d   1     -38.671  13.761  23.639  0.00  0.00     0.149 A 
ATOM     20  O   UNL d   1     -38.902  14.510  23.401  0.00  0.00    -0.301 OA
ATOM     21  C   UNL d   1     -39.076  15.534  22.343  0.00  0.00     0.027 A 
ATOM     22  C   UNL d   1     -39.003  15.751  21.555  0.00  0.00     0.002 A 
ENDBRANCH  12  13
ENDBRANCH   1  12
TORSDOF 4
ENDMDL
