MODEL 1
REMARK VINA RESULT:      85.2      0.000      0.000
REMARK  6 active torsions:
REMARK  status: ('A' for Active; 'I' for Inactive)
REMARK    1  A    between atoms: N_3  and  S_1 
REMARK    2  A    between atoms: C_7  and  S_1 
REMARK    3  A    between atoms: C_2  and  N_3 
REMARK    4  A    between atoms: N_9  and  C_5 
REMARK    5  A    between atoms: C_22  and  N_9 
REMARK    6  A    between atoms: C_21  and  C_22 
ROOT
ATOM      1  C   UNL d   1     -49.910  27.223  34.971  0.00  0.00     0.211 A 
ATOM      2  N   UNL d   1     -50.486  26.788  35.358  0.00  0.00    -0.222 NA
ATOM      3  C   UNL d   1     -49.408  27.723  35.396  0.00  0.00     0.200 A 
ATOM      4  N   UNL d   1     -49.493  27.781  36.223  0.00  0.00    -0.223 NA
ATOM      5  C   UNL d   1     -50.568  26.847  36.169  0.00  0.00     0.101 A 
ATOM      6  C   UNL d   1     -50.076  27.340  36.608  0.00  0.00     0.101 A 
ATOM      7  C   UNL d   1     -50.163  27.396  37.426  0.00  0.00     0.021 A 
ATOM      8  C   UNL d   1     -51.154  26.404  36.554  0.00  0.00     0.021 A 
ATOM      9  C   UNL d   1     -50.743  26.956  37.804  0.00  0.00     0.002 A 
ATOM     10  C   UNL d   1     -51.237  26.462  37.373  0.00  0.00     0.002 A 
ENDROOT
BRANCH   1  11
ATOM     11  N   UNL d   1     -49.827  27.165  34.156  0.00  0.00    -0.136 NA
BRANCH  11  12
ATOM     12  S   UNL d   1     -50.430  26.680  33.708  0.00  0.00     0.287 S 
ATOM     13  O   UNL d   1     -51.094  27.120  33.306  0.00  0.00    -0.198 OA
ATOM     14  O   UNL d   1     -50.672  27.478  33.620  0.00  0.00    -0.198 OA
BRANCH  12  15
ATOM     15  C   UNL d   1     -50.518  25.871  33.575  0.00  0.00     0.105 A 
ATOM     16  C   UNL d   1     -51.274  25.536  33.509  0.00  0.00     0.013 A 
ATOM     17  C   UNL d   1     -51.364  24.717  33.374  0.00  0.00     0.001 A 
ATOM     18  C   UNL d   1     -52.113  24.393  33.309  0.00  0.00     0.000 C 
ATOM     19  C   UNL d   1     -50.688  24.238  33.306  0.00  0.00     0.000 A 
ATOM     20  C   UNL d   1     -49.934  24.576  33.373  0.00  0.00     0.001 A 
ATOM     21  C   UNL d   1     -49.847  25.385  33.506  0.00  0.00     0.013 A 
ENDBRANCH  12  15
ENDBRANCH  11  12
ENDBRANCH   1  11
BRANCH   3  22
ATOM     22  N   UNL d   1     -48.822  28.166  35.011  0.00  0.00    -0.223 NA
BRANCH  22  23
ATOM     23  C   UNL d   1     -48.197  28.506  35.444  0.00  0.00     0.101 C 
BRANCH  23  24
ATOM     24  C   UNL d   1     -47.994  29.296  35.323  0.00  0.00     0.021 A 
ATOM     25  C   UNL d   1     -48.319  29.890  34.842  0.00  0.00     0.028 A 
ATOM     26  C   UNL d   1     -47.980  30.649  34.844  0.00  0.00     0.119 A 
ATOM     27  O   UNL d   1     -48.177  31.338  34.433  0.00  0.00    -0.300 OA
ATOM     28  C   UNL d   1     -47.328  30.806  35.321  0.00  0.00     0.119 A 
ATOM     29  C   UNL d   1     -47.643  31.925  34.657  0.00  0.00     0.304 A 
ATOM     30  O   UNL d   1     -47.119  31.602  35.202  0.00  0.00    -0.300 OA
ATOM     31  C   UNL d   1     -47.009  30.214  35.796  0.00  0.00     0.026 A 
ATOM     32  C   UNL d   1     -47.338  29.461  35.800  0.00  0.00     0.004 A 
ENDBRANCH  23  24
ENDBRANCH  22  23
ENDBRANCH   3  22
TORSDOF 6
ENDMDL
