MODEL 1
REMARK VINA RESULT:       8.6      0.000      0.000
REMARK  3 active torsions:
REMARK  status: ('A' for Active; 'I' for Inactive)
REMARK    1  A    between atoms: C_13  and  N_6 
REMARK    2  A    between atoms: C_16  and  C_10 
REMARK    3  A    between atoms: O_19  and  C_17 
ROOT
ATOM      1  C   UNL d   1     -41.804-121.908 -53.030  0.00  0.00     0.722 A 
ATOM      2  C   UNL d   1     -41.897-121.722 -54.340  0.00  0.00     0.191 A 
ATOM      3  N   UNL d   1     -41.728-121.351 -53.639  0.00  0.00    -0.042 NA
ATOM      4  N   UNL d   1     -42.018-122.609 -53.371  0.00  0.00    -0.131 N 
ATOM      5  C   UNL d   1     -42.078-122.506 -54.173  0.00  0.00     0.174 A 
ATOM      6  N   UNL d   1     -41.743-122.009 -52.215  0.00  0.00    -0.138 N 
ATOM      7  N   UNL d   1     -41.912-121.454 -55.114  0.00  0.00    -0.239 N 
ATOM      8  C   UNL d   1     -42.109-121.971 -55.733  0.00  0.00     0.358 A 
ATOM      9  N   UNL d   1     -42.289-122.754 -55.566  0.00  0.00    -0.152 NA
ATOM     10  C   UNL d   1     -41.916-122.767 -52.041  0.00  0.00     0.100 A 
ATOM     11  C   UNL d   1     -42.275-123.033 -54.777  0.00  0.00     0.303 A 
ATOM     12  C   UNL d   1     -42.092-123.164 -52.749  0.00  0.00     0.116 A 
ATOM     13  O   UNL d   1     -42.124-121.702 -56.508  0.00  0.00    -0.244 OA
ATOM     14  O   UNL d   1     -42.453-123.805 -54.612  0.00  0.00    -0.263 OA
ATOM     15  C   UNL d   1     -41.735-120.682 -55.279  0.00  0.00     0.105 C 
ENDROOT
BRANCH   6  16
ATOM     16  C   UNL d   1     -41.536-121.419 -51.674  0.00  0.00     0.103 A 
ATOM     17  C   UNL d   1     -41.408-120.643 -51.934  0.00  0.00     0.111 A 
ATOM     18  C   UNL d   1     -41.206-120.068 -51.403  0.00  0.00     0.026 A 
ATOM     19  C   UNL d   1     -41.124-120.242 -50.604  0.00  0.00     0.002 A 
ATOM     20  C   UNL d   1     -41.251-121.018 -50.346  0.00  0.00     0.002 A 
ATOM     21  C   UNL d   1     -41.458-121.607 -50.886  0.00  0.00     0.020 A 
BRANCH  17  22
ATOM     22  O   UNL d   1     -41.413-120.189 -52.614  0.00  0.00    -0.327 OA
ATOM     23  C   UNL d   1     -41.224-119.387 -52.588  0.00  0.00     0.181 C 
ENDBRANCH  17  22
ENDBRANCH   6  16
BRANCH  10  24
ATOM     24  C   UNL d   1     -41.923-123.113 -51.287  0.00  0.00     0.018 A 
ATOM     25  C   UNL d   1     -42.624-123.165 -50.856  0.00  0.00     0.002 A 
ATOM     26  C   UNL d   1     -42.629-123.504 -50.118  0.00  0.00     0.000 A 
ATOM     27  C   UNL d   1     -41.928-123.803 -49.787  0.00  0.00     0.000 A 
ATOM     28  C   UNL d   1     -41.227-123.751 -50.219  0.00  0.00     0.000 A 
ATOM     29  C   UNL d   1     -41.220-123.405 -50.973  0.00  0.00     0.002 A 
ENDBRANCH  10  24
TORSDOF 3
ENDMDL
MODEL 2
REMARK VINA RESULT:       9.2      0.949      2.482
REMARK  3 active torsions:
REMARK  status: ('A' for Active; 'I' for Inactive)
REMARK    1  A    between atoms: C_13  and  N_6 
REMARK    2  A    between atoms: C_16  and  C_10 
REMARK    3  A    between atoms: O_19  and  C_17 
ROOT
ATOM      1  C   UNL d   1     -41.859-122.342 -52.890  0.00  0.00     0.722 A 
ATOM      2  C   UNL d   1     -41.990-122.683 -54.165  0.00  0.00     0.191 A 
ATOM      3  N   UNL d   1     -42.055-122.961 -53.406  0.00  0.00    -0.042 NA
ATOM      4  N   UNL d   1     -41.678-121.698 -53.344  0.00  0.00    -0.131 N 
ATOM      5  C   UNL d   1     -41.755-121.897 -54.127  0.00  0.00     0.174 A 
ATOM      6  N   UNL d   1     -41.782-122.144 -52.094  0.00  0.00    -0.138 N 
ATOM      7  N   UNL d   1     -42.113-123.040 -54.892  0.00  0.00    -0.239 N 
ATOM      8  C   UNL d   1     -42.001-122.610 -55.594  0.00  0.00     0.358 A 
ATOM      9  N   UNL d   1     -41.766-121.824 -55.556  0.00  0.00    -0.152 NA
ATOM     10  C   UNL d   1     -41.554-121.382 -52.045  0.00  0.00     0.100 A 
ATOM     11  C   UNL d   1     -41.640-121.456 -54.815  0.00  0.00     0.303 A 
ATOM     12  C   UNL d   1     -41.482-121.081 -52.815  0.00  0.00     0.116 A 
ATOM     13  O   UNL d   1     -42.124-122.967 -56.322  0.00  0.00    -0.244 OA
ATOM     14  O   UNL d   1     -41.408-120.681 -54.777  0.00  0.00    -0.263 OA
ATOM     15  C   UNL d   1     -42.344-123.814 -54.930  0.00  0.00     0.105 C 
ENDROOT
BRANCH   6  16
ATOM     16  C   UNL d   1     -41.919-122.655 -51.458  0.00  0.00     0.103 A 
ATOM     17  C   UNL d   1     -42.668-122.686 -51.106  0.00  0.00     0.111 A 
ATOM     18  C   UNL d   1     -42.800-123.186 -50.484  0.00  0.00     0.026 A 
ATOM     19  C   UNL d   1     -42.200-123.666 -50.194  0.00  0.00     0.002 A 
ATOM     20  C   UNL d   1     -41.452-123.634 -50.548  0.00  0.00     0.002 A 
ATOM     21  C   UNL d   1     -41.314-123.124 -51.183  0.00  0.00     0.020 A 
BRANCH  17  22
ATOM     22  O   UNL d   1     -43.415-122.357 -51.162  0.00  0.00    -0.327 OA
ATOM     23  C   UNL d   1     -43.975-122.477 -50.569  0.00  0.00     0.181 C 
ENDBRANCH  17  22
ENDBRANCH   6  16
BRANCH  10  24
ATOM     24  C   UNL d   1     -41.410-120.952 -51.350  0.00  0.00     0.018 A 
ATOM     25  C   UNL d   1     -41.314-121.341 -50.628  0.00  0.00     0.002 A 
ATOM     26  C   UNL d   1     -41.173-120.919 -49.949  0.00  0.00     0.000 A 
ATOM     27  C   UNL d   1     -41.124-120.090 -49.971  0.00  0.00     0.000 A 
ATOM     28  C   UNL d   1     -41.220-119.702 -50.693  0.00  0.00     0.000 A 
ATOM     29  C   UNL d   1     -41.364-120.131 -51.388  0.00  0.00     0.002 A 
ENDBRANCH  10  24
TORSDOF 3
ENDMDL
MODEL 3
REMARK VINA RESULT:      10.0      1.223      1.483
REMARK  3 active torsions:
REMARK  status: ('A' for Active; 'I' for Inactive)
REMARK    1  A    between atoms: C_13  and  N_6 
REMARK    2  A    between atoms: C_16  and  C_10 
REMARK    3  A    between atoms: O_19  and  C_17 
ROOT
ATOM      1  C   UNL d   1     -42.164-122.012 -52.616  0.00  0.00     0.722 A 
ATOM      2  C   UNL d   1     -42.076-121.851 -53.930  0.00  0.00     0.191 A 
ATOM      3  N   UNL d   1     -42.320-121.494 -53.244  0.00  0.00    -0.042 NA
ATOM      4  N   UNL d   1     -41.828-122.677 -52.931  0.00  0.00    -0.131 N 
ATOM      5  C   UNL d   1     -41.770-122.588 -53.735  0.00  0.00     0.174 A 
ATOM      6  N   UNL d   1     -42.225-122.099 -51.800  0.00  0.00    -0.138 N 
ATOM      7  N   UNL d   1     -42.090-121.606 -54.712  0.00  0.00    -0.239 N 
ATOM      8  C   UNL d   1     -41.796-122.100 -55.311  0.00  0.00     0.358 A 
ATOM      9  N   UNL d   1     -41.490-122.837 -55.116  0.00  0.00    -0.152 NA
ATOM     10  C   UNL d   1     -41.930-122.812 -51.599  0.00  0.00     0.100 A 
ATOM     11  C   UNL d   1     -41.473-123.091 -54.319  0.00  0.00     0.303 A 
ATOM     12  C   UNL d   1     -41.675-123.193 -52.291  0.00  0.00     0.116 A 
ATOM     13  O   UNL d   1     -41.810-121.855 -56.094  0.00  0.00    -0.244 OA
ATOM     14  O   UNL d   1     -41.171-123.817 -54.127  0.00  0.00    -0.263 OA
ATOM     15  C   UNL d   1     -42.392-120.880 -54.904  0.00  0.00     0.105 C 
ENDROOT
BRANCH   6  16
ATOM     16  C   UNL d   1     -42.540-121.538 -51.281  0.00  0.00     0.103 A 
ATOM     17  C   UNL d   1     -43.338-121.573 -51.065  0.00  0.00     0.111 A 
ATOM     18  C   UNL d   1     -43.644-121.023 -50.558  0.00  0.00     0.026 A 
ATOM     19  C   UNL d   1     -43.173-120.425 -50.250  0.00  0.00     0.002 A 
ATOM     20  C   UNL d   1     -42.374-120.390 -50.467  0.00  0.00     0.002 A 
ATOM     21  C   UNL d   1     -42.059-120.951 -50.985  0.00  0.00     0.020 A 
BRANCH  17  22
ATOM     22  O   UNL d   1     -44.015-122.015 -51.192  0.00  0.00    -0.327 OA
ATOM     23  C   UNL d   1     -44.722-121.825 -50.813  0.00  0.00     0.181 C 
ENDBRANCH  17  22
ENDBRANCH   6  16
BRANCH  10  24
ATOM     24  C   UNL d   1     -41.881-123.130 -50.834  0.00  0.00     0.018 A 
ATOM     25  C   UNL d   1     -42.532-123.507 -50.494  0.00  0.00     0.002 A 
ATOM     26  C   UNL d   1     -42.482-123.817 -49.745  0.00  0.00     0.000 A 
ATOM     27  C   UNL d   1     -41.776-123.761 -49.312  0.00  0.00     0.000 A 
ATOM     28  C   UNL d   1     -41.125-123.384 -49.653  0.00  0.00     0.000 A 
ATOM     29  C   UNL d   1     -41.174-123.066 -50.417  0.00  0.00     0.002 A 
ENDBRANCH  10  24
TORSDOF 3
ENDMDL
