MODEL 1
REMARK VINA RESULT:      21.9      0.000      0.000
REMARK  3 active torsions:
REMARK  status: ('A' for Active; 'I' for Inactive)
REMARK    1  A    between atoms: C_4  and  C_1 
REMARK    2  A    between atoms: N_2  and  C_3 
REMARK    3  A    between atoms: C_5  and  N_2 
ROOT
ATOM      1  C   UNL d   1     -50.576  26.475  33.662  0.00  0.00     0.082 A 
ATOM      2  C   UNL d   1     -50.826  25.708  33.444  0.00  0.00     0.087 A 
ATOM      3  C   UNL d   1     -49.776  26.642  33.737  0.00  0.00     0.008 A 
ATOM      4  C   UNL d   1     -50.261  25.123  33.306  0.00  0.00     0.019 A 
ATOM      5  C   UNL d   1     -49.210  26.046  33.596  0.00  0.00     0.000 A 
ATOM      6  C   UNL d   1     -49.461  25.290  33.381  0.00  0.00     0.002 A 
ENDROOT
BRANCH   2   7
ATOM      7  N   UNL d   1     -51.626  25.541  33.369  0.00  0.00    -0.245 NA
BRANCH   7   8
ATOM      8  C   UNL d   1     -51.904  24.758  33.367  0.00  0.00     0.081 A 
ATOM      9  C   UNL d   1     -52.702  24.593  33.409  0.00  0.00     0.018 A 
ATOM     10  C   UNL d   1     -52.974  23.812  33.408  0.00  0.00     0.002 A 
ATOM     11  C   UNL d   1     -53.232  25.209  33.453  0.00  0.00     0.002 C 
ATOM     12  C   UNL d   1     -53.766  23.648  33.449  0.00  0.00     0.000 C 
ATOM     13  C   UNL d   1     -52.415  23.196  33.362  0.00  0.00     0.000 A 
ATOM     14  C   UNL d   1     -51.617  23.361  33.320  0.00  0.00     0.002 A 
ATOM     15  C   UNL d   1     -51.340  24.150  33.322  0.00  0.00     0.019 A 
ENDBRANCH   7   8
ENDBRANCH   2   7
BRANCH   1  16
ATOM     16  C   UNL d   1     -51.141  27.060  33.800  0.00  0.00     0.212 C 
ATOM     17  O   UNL d   1     -51.707  26.963  34.388  0.00  0.00    -0.644 OA
ATOM     18  O   UNL d   1     -51.147  27.746  33.354  0.00  0.00    -0.644 OA
ENDBRANCH   1  16
TORSDOF 3
ENDMDL
MODEL 2
REMARK VINA RESULT:      23.8      1.334      3.141
REMARK  3 active torsions:
REMARK  status: ('A' for Active; 'I' for Inactive)
REMARK    1  A    between atoms: C_4  and  C_1 
REMARK    2  A    between atoms: N_2  and  C_3 
REMARK    3  A    between atoms: C_5  and  N_2 
ROOT
ATOM      1  C   UNL d   1     -52.174  24.103  33.602  0.00  0.00     0.082 A 
ATOM      2  C   UNL d   1     -51.686  24.763  33.449  0.00  0.00     0.087 A 
ATOM      3  C   UNL d   1     -51.853  23.348  33.615  0.00  0.00     0.008 A 
ATOM      4  C   UNL d   1     -50.881  24.647  33.312  0.00  0.00     0.019 A 
ATOM      5  C   UNL d   1     -51.038  23.237  33.475  0.00  0.00     0.000 A 
ATOM      6  C   UNL d   1     -50.560  23.892  33.324  0.00  0.00     0.002 A 
ENDROOT
BRANCH   2   7
ATOM      7  N   UNL d   1     -52.007  25.519  33.437  0.00  0.00    -0.245 NA
BRANCH   7   8
ATOM      8  C   UNL d   1     -51.521  26.192  33.443  0.00  0.00     0.081 A 
ATOM      9  C   UNL d   1     -51.837  26.942  33.383  0.00  0.00     0.018 A 
ATOM     10  C   UNL d   1     -51.350  27.610  33.390  0.00  0.00     0.002 A 
ATOM     11  C   UNL d   1     -52.644  27.027  33.317  0.00  0.00     0.002 C 
ATOM     12  C   UNL d   1     -51.664  28.354  33.331  0.00  0.00     0.000 C 
ATOM     13  C   UNL d   1     -50.527  27.501  33.459  0.00  0.00     0.000 A 
ATOM     14  C   UNL d   1     -50.210  26.752  33.519  0.00  0.00     0.002 A 
ATOM     15  C   UNL d   1     -50.702  26.075  33.512  0.00  0.00     0.019 A 
ENDBRANCH   7   8
ENDBRANCH   2   7
BRANCH   1  16
ATOM     16  C   UNL d   1     -52.980  24.219  33.740  0.00  0.00     0.212 C 
ATOM     17  O   UNL d   1     -53.374  24.854  33.401  0.00  0.00    -0.644 OA
ATOM     18  O   UNL d   1     -53.398  23.702  34.217  0.00  0.00    -0.644 OA
ENDBRANCH   1  16
TORSDOF 3
ENDMDL
