MODEL 1
REMARK VINA RESULT:      -3.5      0.000      0.000
REMARK  1 active torsions:
REMARK  status: ('A' for Active; 'I' for Inactive)
REMARK    1  A    between atoms: C_7  and  C_6 
ROOT
ATOM      1  C   UNL d   1      30.348  16.747 -24.107  0.00  0.00     0.045 A 
ATOM      2  C   UNL d   1      30.546  17.394 -24.580  0.00  0.00     0.196 A 
ATOM      3  C   UNL d   1      31.027  16.471 -23.727  0.00  0.00     0.003 A 
ATOM      4  C   UNL d   1      31.359  17.519 -24.490  0.00  0.00     0.039 A 
ATOM      5  C   UNL d   1      31.653  16.955 -23.969  0.00  0.00     0.003 A 
ATOM      6  C   UNL d   1      29.618  16.366 -23.971  0.00  0.00     0.068 A 
ATOM      7  O   UNL d   1      30.035  17.831 -25.050  0.00  0.00    -0.287 OA
ATOM      8  C   UNL d   1      30.985  15.828 -23.221  0.00  0.00     0.000 A 
ATOM      9  C   UNL d   1      31.871  18.079 -24.821  0.00  0.00     0.003 A 
ATOM     10  C   UNL d   1      32.458  16.951 -23.779  0.00  0.00     0.000 A 
ATOM     11  C   UNL d   1      29.578  15.720 -23.462  0.00  0.00     0.006 A 
ATOM     12  C   UNL d   1      30.271  15.453 -23.086  0.00  0.00     0.000 A 
ATOM     13  C   UNL d   1      32.668  18.072 -24.629  0.00  0.00     0.000 A 
ATOM     14  C   UNL d   1      32.962  17.508 -24.108  0.00  0.00     0.000 A 
ENDROOT
BRANCH   6  15
ATOM     15  C   UNL d   1      28.940  16.642 -24.351  0.00  0.00     0.211 C 
ATOM     16  O   UNL d   1      28.462  17.200 -23.973  0.00  0.00    -0.644 OA
ATOM     17  O   UNL d   1      28.741  16.365 -25.097  0.00  0.00    -0.644 OA
ENDBRANCH   6  15
TORSDOF 1
ENDMDL
MODEL 2
REMARK VINA RESULT:      -3.5      1.098      1.880
REMARK  1 active torsions:
REMARK  status: ('A' for Active; 'I' for Inactive)
REMARK    1  A    between atoms: C_7  and  C_6 
ROOT
ATOM      1  C   UNL d   1      29.823  16.553 -24.015  0.00  0.00     0.045 A 
ATOM      2  C   UNL d   1      30.171  15.989 -23.523  0.00  0.00     0.196 A 
ATOM      3  C   UNL d   1      30.415  16.976 -24.404  0.00  0.00     0.003 A 
ATOM      4  C   UNL d   1      30.990  16.066 -23.609  0.00  0.00     0.039 A 
ATOM      5  C   UNL d   1      31.139  16.669 -24.147  0.00  0.00     0.003 A 
ATOM      6  C   UNL d   1      29.023  16.738 -24.162  0.00  0.00     0.068 A 
ATOM      7  O   UNL d   1      29.780  15.453 -23.040  0.00  0.00    -0.287 OA
ATOM      8  C   UNL d   1      30.220  17.574 -24.929  0.00  0.00     0.000 A 
ATOM      9  C   UNL d   1      31.621  15.659 -23.262  0.00  0.00     0.003 A 
ATOM     10  C   UNL d   1      31.920  16.866 -24.338  0.00  0.00     0.000 A 
ATOM     11  C   UNL d   1      28.828  17.339 -24.691  0.00  0.00     0.006 A 
ATOM     12  C   UNL d   1      29.436  17.758 -25.075  0.00  0.00     0.000 A 
ATOM     13  C   UNL d   1      32.394  15.857 -23.454  0.00  0.00     0.000 A 
ATOM     14  C   UNL d   1      32.543  16.460 -23.992  0.00  0.00     0.000 A 
ENDROOT
BRANCH   6  15
ATOM     15  C   UNL d   1      28.431  16.315 -23.774  0.00  0.00     0.211 C 
ATOM     16  O   UNL d   1      28.114  16.612 -23.071  0.00  0.00    -0.644 OA
ATOM     17  O   UNL d   1      28.158  15.606 -24.084  0.00  0.00    -0.644 OA
ENDBRANCH   6  15
TORSDOF 1
ENDMDL
MODEL 3
REMARK VINA RESULT:      -3.5      1.525      3.278
REMARK  1 active torsions:
REMARK  status: ('A' for Active; 'I' for Inactive)
REMARK    1  A    between atoms: C_7  and  C_6 
ROOT
ATOM      1  C   UNL d   1      31.039  16.572 -23.979  0.00  0.00     0.045 A 
ATOM      2  C   UNL d   1      30.820  15.964 -23.466  0.00  0.00     0.196 A 
ATOM      3  C   UNL d   1      30.359  16.923 -24.291  0.00  0.00     0.003 A 
ATOM      4  C   UNL d   1      29.992  15.940 -23.460  0.00  0.00     0.039 A 
ATOM      5  C   UNL d   1      29.711  16.525 -23.964  0.00  0.00     0.003 A 
ATOM      6  C   UNL d   1      31.789  16.857 -24.208  0.00  0.00     0.068 A 
ATOM      7  O   UNL d   1      31.324  15.477 -23.041  0.00  0.00    -0.287 OA
ATOM      8  C   UNL d   1      30.420  17.545 -24.820  0.00  0.00     0.000 A 
ATOM      9  C   UNL d   1      29.458  15.454 -23.056  0.00  0.00     0.003 A 
ATOM     10  C   UNL d   1      28.896  16.625 -24.064  0.00  0.00     0.000 A 
ATOM     11  C   UNL d   1      31.848  17.484 -24.741  0.00  0.00     0.006 A 
ATOM     12  C   UNL d   1      31.154  17.827 -25.046  0.00  0.00     0.000 A 
ATOM     13  C   UNL d   1      28.651  15.555 -23.158  0.00  0.00     0.000 A 
ATOM     14  C   UNL d   1      28.370  16.141 -23.662  0.00  0.00     0.000 A 
ENDROOT
BRANCH   6  15
ATOM     15  C   UNL d   1      32.468  16.507 -23.897  0.00  0.00     0.211 C 
ATOM     16  O   UNL d   1      32.797  16.808 -23.201  0.00  0.00    -0.644 OA
ATOM     17  O   UNL d   1      32.813  15.867 -24.275  0.00  0.00    -0.644 OA
ENDBRANCH   6  15
TORSDOF 1
ENDMDL
MODEL 4
REMARK VINA RESULT:      -3.0      5.432      6.633
REMARK  1 active torsions:
REMARK  status: ('A' for Active; 'I' for Inactive)
REMARK    1  A    between atoms: C_7  and  C_6 
ROOT
ATOM      1  C   UNL d   1      32.619  22.384 -21.515  0.00  0.00     0.045 A 
ATOM      2  C   UNL d   1      32.547  21.771 -20.967  0.00  0.00     0.196 A 
ATOM      3  C   UNL d   1      32.869  22.075 -22.238  0.00  0.00     0.003 A 
ATOM      4  C   UNL d   1      32.757  21.073 -21.358  0.00  0.00     0.039 A 
ATOM      5  C   UNL d   1      32.954  21.258 -22.135  0.00  0.00     0.003 A 
ATOM      6  C   UNL d   1      32.484  23.205 -21.446  0.00  0.00     0.068 A 
ATOM      7  O   UNL d   1      32.314  21.840 -20.184  0.00  0.00    -0.287 OA
ATOM      8  C   UNL d   1      32.985  22.569 -22.882  0.00  0.00     0.000 A 
ATOM      9  C   UNL d   1      32.793  20.287 -21.102  0.00  0.00     0.003 A 
ATOM     10  C   UNL d   1      33.186  20.658 -22.654  0.00  0.00     0.000 A 
ATOM     11  C   UNL d   1      32.601  23.700 -22.094  0.00  0.00     0.006 A 
ATOM     12  C   UNL d   1      32.854  23.373 -22.817  0.00  0.00     0.000 A 
ATOM     13  C   UNL d   1      33.024  19.695 -21.620  0.00  0.00     0.000 A 
ATOM     14  C   UNL d   1      33.221  19.880 -22.396  0.00  0.00     0.000 A 
ENDROOT
BRANCH   6  15
ATOM     15  C   UNL d   1      32.234  23.515 -20.723  0.00  0.00     0.211 C 
ATOM     16  O   UNL d   1      32.795  23.700 -20.145  0.00  0.00    -0.644 OA
ATOM     17  O   UNL d   1      31.436  23.639 -20.580  0.00  0.00    -0.644 OA
ENDBRANCH   6  15
TORSDOF 1
ENDMDL
MODEL 5
REMARK VINA RESULT:      -2.8      5.772      6.616
REMARK  1 active torsions:
REMARK  status: ('A' for Active; 'I' for Inactive)
REMARK    1  A    between atoms: C_7  and  C_6 
ROOT
ATOM      1  C   UNL d   1      32.665  22.307 -21.770  0.00  0.00     0.045 A 
ATOM      2  C   UNL d   1      32.889  21.826 -22.402  0.00  0.00     0.196 A 
ATOM      3  C   UNL d   1      32.615  23.089 -22.029  0.00  0.00     0.003 A 
ATOM      4  C   UNL d   1      32.979  22.319 -23.060  0.00  0.00     0.039 A 
ATOM      5  C   UNL d   1      32.812  23.090 -22.832  0.00  0.00     0.003 A 
ATOM      6  C   UNL d   1      32.496  22.127 -20.973  0.00  0.00     0.068 A 
ATOM      7  O   UNL d   1      33.002  21.014 -22.383  0.00  0.00    -0.287 OA
ATOM      8  C   UNL d   1      32.401  23.685 -21.508  0.00  0.00     0.000 A 
ATOM      9  C   UNL d   1      33.194  22.159 -23.843  0.00  0.00     0.003 A 
ATOM     10  C   UNL d   1      32.859  23.702 -23.387  0.00  0.00     0.000 A 
ATOM     11  C   UNL d   1      32.281  22.727 -20.450  0.00  0.00     0.006 A 
ATOM     12  C   UNL d   1      32.235  23.511 -20.726  0.00  0.00     0.000 A 
ATOM     13  C   UNL d   1      33.240  22.768 -24.391  0.00  0.00     0.000 A 
ATOM     14  C   UNL d   1      33.073  23.540 -24.163  0.00  0.00     0.000 A 
ENDROOT
BRANCH   6  15
ATOM     15  C   UNL d   1      32.545  21.346 -20.714  0.00  0.00     0.211 C 
ATOM     16  O   UNL d   1      31.900  20.841 -20.823  0.00  0.00    -0.644 OA
ATOM     17  O   UNL d   1      33.229  21.072 -20.352  0.00  0.00    -0.644 OA
ENDBRANCH   6  15
TORSDOF 1
ENDMDL
MODEL 6
REMARK VINA RESULT:      -2.8      1.318      2.683
REMARK  1 active torsions:
REMARK  status: ('A' for Active; 'I' for Inactive)
REMARK    1  A    between atoms: C_7  and  C_6 
ROOT
ATOM      1  C   UNL d   1      31.090  16.724 -23.992  0.00  0.00     0.045 A 
ATOM      2  C   UNL d   1      30.947  17.342 -24.520  0.00  0.00     0.196 A 
ATOM      3  C   UNL d   1      30.372  16.380 -23.776  0.00  0.00     0.003 A 
ATOM      4  C   UNL d   1      30.128  17.380 -24.631  0.00  0.00     0.039 A 
ATOM      5  C   UNL d   1      29.777  16.792 -24.177  0.00  0.00     0.003 A 
ATOM      6  C   UNL d   1      31.800  16.424 -23.673  0.00  0.00     0.068 A 
ATOM      7  O   UNL d   1      31.509  17.828 -24.868  0.00  0.00    -0.287 OA
ATOM      8  C   UNL d   1      30.356  15.749 -23.253  0.00  0.00     0.000 A 
ATOM      9  C   UNL d   1      29.657  17.880 -25.092  0.00  0.00     0.003 A 
ATOM     10  C   UNL d   1      28.954  16.704 -24.184  0.00  0.00     0.000 A 
ATOM     11  C   UNL d   1      31.782  15.789 -23.148  0.00  0.00     0.006 A 
ATOM     12  C   UNL d   1      31.050  15.453 -22.940  0.00  0.00     0.000 A 
ATOM     13  C   UNL d   1      28.842  17.789 -25.097  0.00  0.00     0.000 A 
ATOM     14  C   UNL d   1      28.490  17.201 -24.643  0.00  0.00     0.000 A 
ENDROOT
BRANCH   6  15
ATOM     15  C   UNL d   1      32.518  16.767 -23.889  0.00  0.00     0.211 C 
ATOM     16  O   UNL d   1      32.823  17.389 -23.436  0.00  0.00    -0.644 OA
ATOM     17  O   UNL d   1      32.927  16.495 -24.546  0.00  0.00    -0.644 OA
ENDBRANCH   6  15
TORSDOF 1
ENDMDL
MODEL 7
REMARK VINA RESULT:      -1.9      1.225      1.913
REMARK  1 active torsions:
REMARK  status: ('A' for Active; 'I' for Inactive)
REMARK    1  A    between atoms: C_7  and  C_6 
ROOT
ATOM      1  C   UNL d   1      29.455  16.830 -24.270  0.00  0.00     0.045 A 
ATOM      2  C   UNL d   1      30.044  16.265 -24.394  0.00  0.00     0.196 A 
ATOM      3  C   UNL d   1      29.761  17.580 -24.429  0.00  0.00     0.003 A 
ATOM      4  C   UNL d   1      30.723  16.673 -24.634  0.00  0.00     0.039 A 
ATOM      5  C   UNL d   1      30.550  17.476 -24.655  0.00  0.00     0.003 A 
ATOM      6  C   UNL d   1      28.661  16.754 -24.025  0.00  0.00     0.068 A 
ATOM      7  O   UNL d   1      29.972  15.454 -24.299  0.00  0.00    -0.287 OA
ATOM      8  C   UNL d   1      29.288  18.245 -24.348  0.00  0.00     0.000 A 
ATOM      9  C   UNL d   1      31.481  16.410 -24.837  0.00  0.00     0.003 A 
ATOM     10  C   UNL d   1      31.135  18.017 -24.879  0.00  0.00     0.000 A 
ATOM     11  C   UNL d   1      28.188  17.424 -23.944  0.00  0.00     0.006 A 
ATOM     12  C   UNL d   1      28.510  18.174 -24.108  0.00  0.00     0.000 A 
ATOM     13  C   UNL d   1      32.058  16.950 -25.058  0.00  0.00     0.000 A 
ATOM     14  C   UNL d   1      31.885  17.753 -25.079  0.00  0.00     0.000 A 
ENDROOT
BRANCH   6  15
ATOM     15  C   UNL d   1      28.355  16.005 -23.866  0.00  0.00     0.211 C 
ATOM     16  O   UNL d   1      27.942  15.602 -24.458  0.00  0.00    -0.644 OA
ATOM     17  O   UNL d   1      28.460  15.663 -23.128  0.00  0.00    -0.644 OA
ENDBRANCH   6  15
TORSDOF 1
ENDMDL
MODEL 8
REMARK VINA RESULT:      -1.7      1.643      3.140
REMARK  1 active torsions:
REMARK  status: ('A' for Active; 'I' for Inactive)
REMARK    1  A    between atoms: C_7  and  C_6 
ROOT
ATOM      1  C   UNL d   1      32.305  18.086 -23.811  0.00  0.00     0.045 A 
ATOM      2  C   UNL d   1      31.818  18.085 -24.477  0.00  0.00     0.196 A 
ATOM      3  C   UNL d   1      32.242  17.357 -23.428  0.00  0.00     0.003 A 
ATOM      4  C   UNL d   1      31.449  17.345 -24.506  0.00  0.00     0.039 A 
ATOM      5  C   UNL d   1      31.708  16.900 -23.865  0.00  0.00     0.003 A 
ATOM      6  C   UNL d   1      32.810  18.671 -23.497  0.00  0.00     0.068 A 
ATOM      7  O   UNL d   1      31.717  18.700 -25.010  0.00  0.00    -0.287 OA
ATOM      8  C   UNL d   1      32.672  17.210 -22.746  0.00  0.00     0.000 A 
ATOM      9  C   UNL d   1      30.906  17.020 -25.039  0.00  0.00     0.003 A 
ATOM     10  C   UNL d   1      31.425  16.130 -23.757  0.00  0.00     0.000 A 
ATOM     11  C   UNL d   1      33.241  18.521 -22.811  0.00  0.00     0.006 A 
ATOM     12  C   UNL d   1      33.167  17.782 -22.436  0.00  0.00     0.000 A 
ATOM     13  C   UNL d   1      30.628  16.256 -24.929  0.00  0.00     0.000 A 
ATOM     14  C   UNL d   1      30.887  15.811 -24.288  0.00  0.00     0.000 A 
ENDROOT
BRANCH   6  15
ATOM     15  C   UNL d   1      32.873  19.399 -23.879  0.00  0.00     0.211 C 
ATOM     16  O   UNL d   1      32.564  20.075 -23.517  0.00  0.00    -0.644 OA
ATOM     17  O   UNL d   1      33.238  19.452 -24.612  0.00  0.00    -0.644 OA
ENDBRANCH   6  15
TORSDOF 1
ENDMDL
