MODEL 1
REMARK VINA RESULT:      -7.3      0.000      0.000
REMARK  5 active torsions:
REMARK  status: ('A' for Active; 'I' for Inactive)
REMARK    1  A    between atoms: S_4  and  N_1 
REMARK    2  A    between atoms: C_2  and  C_5 
REMARK    3  A    between atoms: C_12  and  C_7 
REMARK    4  A    between atoms: O_26  and  C_24 
REMARK    5  A    between atoms: C_27  and  O_26 
ROOT
ATOM      1  C   UNL d   1      51.235  33.833  52.798  0.00  0.00     0.076 A 
ATOM      2  C   UNL d   1      51.158  34.027  52.004  0.00  0.00     0.281 A 
ATOM      3  C   UNL d   1      50.677  34.101  53.344  0.00  0.00     0.008 A 
ATOM      4  N   UNL d   1      50.522  34.490  51.750  0.00  0.00    -0.208 NA
ATOM      5  C   UNL d   1      49.959  34.760  52.298  0.00  0.00     0.087 A 
ATOM      6  C   UNL d   1      50.036  34.566  53.093  0.00  0.00     0.018 A 
ATOM      7  C   UNL d   1      49.323  35.223  52.045  0.00  0.00     0.044 A 
ATOM      8  O   UNL d   1      51.432  33.988  51.222  0.00  0.00    -0.265 OA
ATOM      9  C   UNL d   1      49.477  34.834  53.639  0.00  0.00     0.004 A 
ATOM     10  C   UNL d   1      48.813  35.460  52.580  0.00  0.00     0.102 A 
ATOM     11  C   UNL d   1      48.890  35.267  53.374  0.00  0.00     0.025 A 
ENDROOT
BRANCH   1  12
ATOM     12  C   UNL d   1      51.871  33.371  53.051  0.00  0.00     0.101 A 
ATOM     13  N   UNL d   1      52.528  33.634  53.445  0.00  0.00    -0.155 N 
ATOM     14  N   UNL d   1      53.021  32.995  53.589  0.00  0.00    -0.153 NA
ATOM     15  C   UNL d   1      52.656  32.333  53.278  0.00  0.00     0.126 A 
ATOM     16  C   UNL d   1      51.941  32.555  52.940  0.00  0.00     0.043 A 
BRANCH  13  17
ATOM     17  S   UNL d   1      52.674  34.411  53.661  0.00  0.00     0.266 S 
ATOM     18  O   UNL d   1      52.337  34.266  54.420  0.00  0.00    -0.203 OA
ATOM     19  O   UNL d   1      53.009  34.579  52.927  0.00  0.00    -0.203 OA
ATOM     20  C   UNL d   1      52.817  35.211  53.904  0.00  0.00     0.165 C 
ENDBRANCH  13  17
BRANCH  15  21
ATOM     21  C   UNL d   1      52.950  31.573  53.296  0.00  0.00     0.119 A 
ATOM     22  O   UNL d   1      53.635  31.320  53.693  0.00  0.00    -0.304 OA
ATOM     23  C   UNL d   1      53.720  30.518  53.562  0.00  0.00     0.123 A 
ATOM     24  C   UNL d   1      53.085  30.251  53.076  0.00  0.00     0.029 A 
ATOM     25  C   UNL d   1      52.621  30.923  52.925  0.00  0.00     0.028 A 
ENDBRANCH  15  21
ENDBRANCH   1  12
BRANCH  10  26
ATOM     26  O   UNL d   1      48.179  35.918  52.351  0.00  0.00    -0.305 OA
BRANCH  26  27
ATOM     27  C   UNL d   1      47.543  35.201  51.711  0.00  0.00     0.123 C 
ATOM     28  C   UNL d   1      46.814  35.448  51.380  0.00  0.00     0.029 C 
ENDBRANCH  26  27
ENDBRANCH  10  26
TORSDOF 5
ENDMDL
MODEL 2
REMARK VINA RESULT:      -6.7      1.628      2.276
REMARK  5 active torsions:
REMARK  status: ('A' for Active; 'I' for Inactive)
REMARK    1  A    between atoms: S_4  and  N_1 
REMARK    2  A    between atoms: C_2  and  C_5 
REMARK    3  A    between atoms: C_12  and  C_7 
REMARK    4  A    between atoms: O_26  and  C_24 
REMARK    5  A    between atoms: C_27  and  O_26 
ROOT
ATOM      1  C   UNL d   1      52.102  33.714  53.062  0.00  0.00     0.076 A 
ATOM      2  C   UNL d   1      52.222  34.129  52.363  0.00  0.00     0.281 A 
ATOM      3  C   UNL d   1      51.337  33.610  53.354  0.00  0.00     0.008 A 
ATOM      4  N   UNL d   1      51.577  34.441  51.951  0.00  0.00    -0.208 NA
ATOM      5  C   UNL d   1      50.806  34.337  52.244  0.00  0.00     0.087 A 
ATOM      6  C   UNL d   1      50.687  33.923  52.943  0.00  0.00     0.018 A 
ATOM      7  C   UNL d   1      50.161  34.649  51.833  0.00  0.00     0.044 A 
ATOM      8  O   UNL d   1      52.730  34.433  51.783  0.00  0.00    -0.265 OA
ATOM      9  C   UNL d   1      49.922  33.818  53.235  0.00  0.00     0.004 A 
ATOM     10  C   UNL d   1      49.453  34.536  52.131  0.00  0.00     0.102 A 
ATOM     11  C   UNL d   1      49.334  34.122  52.830  0.00  0.00     0.025 A 
ENDROOT
BRANCH   1  12
ATOM     12  C   UNL d   1      52.748  33.402  53.472  0.00  0.00     0.101 A 
ATOM     13  N   UNL d   1      52.980  32.626  53.481  0.00  0.00    -0.155 N 
ATOM     14  N   UNL d   1      53.644  32.557  53.956  0.00  0.00    -0.153 NA
ATOM     15  C   UNL d   1      53.819  33.304  54.240  0.00  0.00     0.126 A 
ATOM     16  C   UNL d   1      53.268  33.836  53.945  0.00  0.00     0.043 A 
BRANCH  13  17
ATOM     17  S   UNL d   1      52.610  32.014  53.082  0.00  0.00     0.266 S 
ATOM     18  O   UNL d   1      53.124  32.128  52.423  0.00  0.00    -0.203 OA
ATOM     19  O   UNL d   1      52.095  31.881  53.712  0.00  0.00    -0.203 OA
ATOM     20  C   UNL d   1      52.239  31.383  52.653  0.00  0.00     0.165 C 
ENDBRANCH  13  17
BRANCH  15  21
ATOM     21  C   UNL d   1      54.437  33.494  54.735  0.00  0.00     0.119 A 
ATOM     22  O   UNL d   1      55.203  33.718  54.503  0.00  0.00    -0.304 OA
ATOM     23  C   UNL d   1      55.641  33.857  55.177  0.00  0.00     0.123 A 
ATOM     24  C   UNL d   1      55.154  33.721  55.853  0.00  0.00     0.029 A 
ATOM     25  C   UNL d   1      54.412  33.497  55.552  0.00  0.00     0.028 A 
ENDBRANCH  15  21
ENDBRANCH   1  12
BRANCH  10  26
ATOM     26  O   UNL d   1      48.804  34.836  51.741  0.00  0.00    -0.305 OA
BRANCH  26  27
ATOM     27  C   UNL d   1      48.364  35.595  52.487  0.00  0.00     0.123 C 
ATOM     28  C   UNL d   1      47.692  36.055  52.290  0.00  0.00     0.029 C 
ENDBRANCH  26  27
ENDBRANCH  10  26
TORSDOF 5
ENDMDL
MODEL 3
REMARK VINA RESULT:      -6.3      1.007      4.816
REMARK  5 active torsions:
REMARK  status: ('A' for Active; 'I' for Inactive)
REMARK    1  A    between atoms: S_4  and  N_1 
REMARK    2  A    between atoms: C_2  and  C_5 
REMARK    3  A    between atoms: C_12  and  C_7 
REMARK    4  A    between atoms: O_26  and  C_24 
REMARK    5  A    between atoms: C_27  and  O_26 
ROOT
ATOM      1  C   UNL d   1      51.960  33.209  53.185  0.00  0.00     0.076 A 
ATOM      2  C   UNL d   1      52.006  32.760  52.499  0.00  0.00     0.281 A 
ATOM      3  C   UNL d   1      52.360  32.966  53.865  0.00  0.00     0.008 A 
ATOM      4  N   UNL d   1      52.451  32.065  52.489  0.00  0.00    -0.208 NA
ATOM      5  C   UNL d   1      52.855  31.818  53.172  0.00  0.00     0.087 A 
ATOM      6  C   UNL d   1      52.809  32.267  53.858  0.00  0.00     0.018 A 
ATOM      7  C   UNL d   1      53.300  31.122  53.162  0.00  0.00     0.044 A 
ATOM      8  O   UNL d   1      51.804  32.635  51.705  0.00  0.00    -0.265 OA
ATOM      9  C   UNL d   1      53.209  32.023  54.539  0.00  0.00     0.004 A 
ATOM     10  C   UNL d   1      53.666  30.917  53.816  0.00  0.00     0.102 A 
ATOM     11  C   UNL d   1      53.620  31.366  54.501  0.00  0.00     0.025 A 
ENDROOT
BRANCH   1  12
ATOM     12  C   UNL d   1      51.514  33.905  53.195  0.00  0.00     0.101 A 
ATOM     13  N   UNL d   1      51.800  34.656  53.298  0.00  0.00    -0.155 N 
ATOM     14  N   UNL d   1      51.172  35.181  53.270  0.00  0.00    -0.153 NA
ATOM     15  C   UNL d   1      50.493  34.742  53.147  0.00  0.00     0.126 A 
ATOM     16  C   UNL d   1      50.695  33.947  53.099  0.00  0.00     0.043 A 
BRANCH  13  17
ATOM     17  S   UNL d   1      52.586  34.854  53.412  0.00  0.00     0.266 S 
ATOM     18  O   UNL d   1      52.477  34.823  54.248  0.00  0.00    -0.203 OA
ATOM     19  O   UNL d   1      52.720  34.892  52.599  0.00  0.00    -0.203 OA
ATOM     20  C   UNL d   1      53.398  35.059  53.550  0.00  0.00     0.165 C 
ENDBRANCH  13  17
BRANCH  15  21
ATOM     21  C   UNL d   1      49.737  35.039  53.082  0.00  0.00     0.119 A 
ATOM     22  O   UNL d   1      49.358  35.542  53.624  0.00  0.00    -0.304 OA
ATOM     23  C   UNL d   1      48.609  35.701  53.339  0.00  0.00     0.123 A 
ATOM     24  C   UNL d   1      48.503  35.296  52.607  0.00  0.00     0.029 A 
ATOM     25  C   UNL d   1      49.216  34.892  52.469  0.00  0.00     0.028 A 
ENDBRANCH  15  21
ENDBRANCH   1  12
BRANCH  10  26
ATOM     26  O   UNL d   1      54.111  30.235  53.826  0.00  0.00    -0.305 OA
BRANCH  26  27
ATOM     27  C   UNL d   1      53.375  29.435  54.208  0.00  0.00     0.123 C 
ATOM     28  C   UNL d   1      53.643  28.676  54.438  0.00  0.00     0.029 C 
ENDBRANCH  26  27
ENDBRANCH  10  26
TORSDOF 5
ENDMDL
MODEL 4
REMARK VINA RESULT:      -6.2      1.306      1.880
REMARK  5 active torsions:
REMARK  status: ('A' for Active; 'I' for Inactive)
REMARK    1  A    between atoms: S_4  and  N_1 
REMARK    2  A    between atoms: C_2  and  C_5 
REMARK    3  A    between atoms: C_12  and  C_7 
REMARK    4  A    between atoms: O_26  and  C_24 
REMARK    5  A    between atoms: C_27  and  O_26 
ROOT
ATOM      1  C   UNL d   1      52.339  32.614  53.295  0.00  0.00     0.076 A 
ATOM      2  C   UNL d   1      52.543  32.855  52.538  0.00  0.00     0.281 A 
ATOM      3  C   UNL d   1      51.670  32.928  53.663  0.00  0.00     0.008 A 
ATOM      4  N   UNL d   1      52.079  33.412  52.142  0.00  0.00    -0.208 NA
ATOM      5  C   UNL d   1      51.405  33.729  52.510  0.00  0.00     0.087 A 
ATOM      6  C   UNL d   1      51.201  33.488  53.268  0.00  0.00     0.018 A 
ATOM      7  C   UNL d   1      50.940  34.287  52.114  0.00  0.00     0.044 A 
ATOM      8  O   UNL d   1      53.046  32.817  51.880  0.00  0.00    -0.265 OA
ATOM      9  C   UNL d   1      50.531  33.803  53.635  0.00  0.00     0.004 A 
ATOM     10  C   UNL d   1      50.317  34.565  52.483  0.00  0.00     0.102 A 
ATOM     11  C   UNL d   1      50.113  34.324  53.241  0.00  0.00     0.025 A 
ENDROOT
BRANCH   1  12
ATOM     12  C   UNL d   1      52.804  32.056  53.691  0.00  0.00     0.101 A 
ATOM     13  N   UNL d   1      53.437  32.215  54.170  0.00  0.00    -0.155 N 
ATOM     14  N   UNL d   1      53.739  31.505  54.449  0.00  0.00    -0.153 NA
ATOM     15  C   UNL d   1      53.281  30.906  54.132  0.00  0.00     0.126 A 
ATOM     16  C   UNL d   1      52.697  31.238  53.659  0.00  0.00     0.043 A 
BRANCH  13  17
ATOM     17  S   UNL d   1      53.726  32.961  54.347  0.00  0.00     0.266 S 
ATOM     18  O   UNL d   1      54.279  32.901  53.713  0.00  0.00    -0.203 OA
ATOM     19  O   UNL d   1      53.196  33.045  54.973  0.00  0.00    -0.203 OA
ATOM     20  C   UNL d   1      54.038  33.731  54.515  0.00  0.00     0.165 C 
ENDBRANCH  13  17
BRANCH  15  21
ATOM     21  C   UNL d   1      53.383  30.109  54.261  0.00  0.00     0.119 A 
ATOM     22  O   UNL d   1      53.261  29.706  54.978  0.00  0.00    -0.304 OA
ATOM     23  C   UNL d   1      53.429  28.917  54.856  0.00  0.00     0.123 A 
ATOM     24  C   UNL d   1      53.661  28.807  54.053  0.00  0.00     0.029 A 
ATOM     25  C   UNL d   1      53.625  29.560  53.705  0.00  0.00     0.028 A 
ENDBRANCH  15  21
ENDBRANCH   1  12
BRANCH  10  26
ATOM     26  O   UNL d   1      49.846  35.116  52.110  0.00  0.00    -0.305 OA
BRANCH  26  27
ATOM     27  C   UNL d   1      49.094  34.475  51.518  0.00  0.00     0.123 C 
ATOM     28  C   UNL d   1      48.512  34.831  51.032  0.00  0.00     0.029 C 
ENDBRANCH  26  27
ENDBRANCH  10  26
TORSDOF 5
ENDMDL
MODEL 5
REMARK VINA RESULT:      -4.7      2.147      5.033
REMARK  5 active torsions:
REMARK  status: ('A' for Active; 'I' for Inactive)
REMARK    1  A    between atoms: S_4  and  N_1 
REMARK    2  A    between atoms: C_2  and  C_5 
REMARK    3  A    between atoms: C_12  and  C_7 
REMARK    4  A    between atoms: O_26  and  C_24 
REMARK    5  A    between atoms: C_27  and  O_26 
ROOT
ATOM      1  C   UNL d   1      52.950  32.873  53.501  0.00  0.00     0.076 A 
ATOM      2  C   UNL d   1      53.716  32.647  53.308  0.00  0.00     0.281 A 
ATOM      3  C   UNL d   1      52.371  32.300  53.634  0.00  0.00     0.008 A 
ATOM      4  N   UNL d   1      53.908  31.846  53.247  0.00  0.00    -0.208 NA
ATOM      5  C   UNL d   1      53.326  31.267  53.381  0.00  0.00     0.087 A 
ATOM      6  C   UNL d   1      52.561  31.493  53.573  0.00  0.00     0.018 A 
ATOM      7  C   UNL d   1      53.518  30.466  53.319  0.00  0.00     0.044 A 
ATOM      8  O   UNL d   1      54.499  32.842  53.118  0.00  0.00    -0.265 OA
ATOM      9  C   UNL d   1      51.981  30.920  53.706  0.00  0.00     0.004 A 
ATOM     10  C   UNL d   1      52.953  29.948  53.450  0.00  0.00     0.102 A 
ATOM     11  C   UNL d   1      52.188  30.175  53.642  0.00  0.00     0.025 A 
ENDROOT
BRANCH   1  12
ATOM     12  C   UNL d   1      52.760  33.675  53.562  0.00  0.00     0.101 A 
ATOM     13  N   UNL d   1      52.204  34.070  53.123  0.00  0.00    -0.155 N 
ATOM     14  N   UNL d   1      52.193  34.854  53.361  0.00  0.00    -0.153 NA
ATOM     15  C   UNL d   1      52.751  34.937  53.953  0.00  0.00     0.126 A 
ATOM     16  C   UNL d   1      53.109  34.210  54.085  0.00  0.00     0.043 A 
BRANCH  13  17
ATOM     17  S   UNL d   1      51.734  33.738  52.541  0.00  0.00     0.266 S 
ATOM     18  O   UNL d   1      52.308  33.939  51.957  0.00  0.00    -0.203 OA
ATOM     19  O   UNL d   1      51.156  33.530  53.091  0.00  0.00    -0.203 OA
ATOM     20  C   UNL d   1      51.260  33.400  51.924  0.00  0.00     0.165 C 
ENDBRANCH  13  17
BRANCH  15  21
ATOM     21  C   UNL d   1      52.927  35.626  54.350  0.00  0.00     0.119 A 
ATOM     22  O   UNL d   1      52.424  36.039  54.867  0.00  0.00    -0.304 OA
ATOM     23  C   UNL d   1      52.826  36.696  55.138  0.00  0.00     0.123 A 
ATOM     24  C   UNL d   1      53.595  36.709  54.793  0.00  0.00     0.029 A 
ATOM     25  C   UNL d   1      53.634  36.035  54.308  0.00  0.00     0.028 A 
ENDBRANCH  15  21
ENDBRANCH   1  12
BRANCH  10  26
ATOM     26  O   UNL d   1      53.122  29.153  53.394  0.00  0.00    -0.305 OA
BRANCH  26  27
ATOM     27  C   UNL d   1      53.319  28.839  54.485  0.00  0.00     0.123 C 
ATOM     28  C   UNL d   1      53.706  28.118  54.664  0.00  0.00     0.029 C 
ENDBRANCH  26  27
ENDBRANCH  10  26
TORSDOF 5
ENDMDL
MODEL 6
REMARK VINA RESULT:      -4.7      1.713      5.166
REMARK  5 active torsions:
REMARK  status: ('A' for Active; 'I' for Inactive)
REMARK    1  A    between atoms: S_4  and  N_1 
REMARK    2  A    between atoms: C_2  and  C_5 
REMARK    3  A    between atoms: C_12  and  C_7 
REMARK    4  A    between atoms: O_26  and  C_24 
REMARK    5  A    between atoms: C_27  and  O_26 
ROOT
ATOM      1  C   UNL d   1      50.426  34.401  53.016  0.00  0.00     0.076 A 
ATOM      2  C   UNL d   1      50.414  33.630  53.299  0.00  0.00     0.281 A 
ATOM      3  C   UNL d   1      51.147  34.789  52.906  0.00  0.00     0.008 A 
ATOM      4  N   UNL d   1      51.122  33.242  53.473  0.00  0.00    -0.208 NA
ATOM      5  C   UNL d   1      51.849  33.631  53.363  0.00  0.00     0.087 A 
ATOM      6  C   UNL d   1      51.861  34.402  53.080  0.00  0.00     0.018 A 
ATOM      7  C   UNL d   1      52.557  33.243  53.537  0.00  0.00     0.044 A 
ATOM      8  O   UNL d   1      49.995  32.953  53.529  0.00  0.00    -0.265 OA
ATOM      9  C   UNL d   1      52.581  34.790  52.969  0.00  0.00     0.004 A 
ATOM     10  C   UNL d   1      53.219  33.631  53.423  0.00  0.00     0.102 A 
ATOM     11  C   UNL d   1      53.232  34.402  53.141  0.00  0.00     0.025 A 
ENDROOT
BRANCH   1  12
ATOM     12  C   UNL d   1      49.717  34.788  52.842  0.00  0.00     0.101 A 
ATOM     13  N   UNL d   1      49.342  34.801  52.124  0.00  0.00    -0.155 N 
ATOM     14  N   UNL d   1      48.658  35.247  52.194  0.00  0.00    -0.153 NA
ATOM     15  C   UNL d   1      48.618  35.510  52.967  0.00  0.00     0.126 A 
ATOM     16  C   UNL d   1      49.272  35.231  53.378  0.00  0.00     0.043 A 
BRANCH  13  17
ATOM     17  S   UNL d   1      49.604  34.428  51.444  0.00  0.00     0.266 S 
ATOM     18  O   UNL d   1      49.090  33.778  51.597  0.00  0.00    -0.203 OA
ATOM     19  O   UNL d   1      50.116  35.051  51.270  0.00  0.00    -0.203 OA
ATOM     20  C   UNL d   1      49.863  34.027  50.743  0.00  0.00     0.165 C 
ENDBRANCH  13  17
BRANCH  15  21
ATOM     21  C   UNL d   1      48.028  35.975  53.283  0.00  0.00     0.119 A 
ATOM     22  O   UNL d   1      47.368  36.276  52.878  0.00  0.00    -0.304 OA
ATOM     23  C   UNL d   1      46.923  36.709  53.408  0.00  0.00     0.123 A 
ATOM     24  C   UNL d   1      47.299  36.689  54.162  0.00  0.00     0.029 A 
ATOM     25  C   UNL d   1      47.982  36.228  54.060  0.00  0.00     0.028 A 
ENDBRANCH  15  21
ENDBRANCH   1  12
BRANCH  10  26
ATOM     26  O   UNL d   1      53.929  33.267  53.589  0.00  0.00    -0.305 OA
BRANCH  26  27
ATOM     27  C   UNL d   1      54.154  33.587  54.672  0.00  0.00     0.123 C 
ATOM     28  C   UNL d   1      54.870  33.368  55.048  0.00  0.00     0.029 C 
ENDBRANCH  26  27
ENDBRANCH  10  26
TORSDOF 5
ENDMDL
