MODEL 1
REMARK VINA RESULT:     102.2      0.000      0.000
REMARK  2 active torsions:
REMARK  status: ('A' for Active; 'I' for Inactive)
REMARK    1  A    between atoms: C_6  and  C_1 
REMARK    2  A    between atoms: C_9  and  C_2 
ROOT
ATOM      1  C   UNL d   1      59.944  49.636  51.996  0.00  0.00     0.039 A 
ATOM      2  C   UNL d   1      60.606  49.607  52.479  0.00  0.00     0.120 A 
ATOM      3  N   UNL d   1      60.354  49.613  53.267  0.00  0.00    -0.164 NA
ATOM      4  N   UNL d   1      59.536  49.646  53.261  0.00  0.00    -0.228 N 
ATOM      5  C   UNL d   1      59.280  49.661  52.476  0.00  0.00     0.085 A 
ATOM      6  C   UNL d   1      58.864  49.670  53.746  0.00  0.00     0.101 A 
ATOM      7  C   UNL d   1      58.448  49.694  52.479  0.00  0.00     0.021 A 
ATOM      8  C   UNL d   1      58.197  49.700  53.262  0.00  0.00     0.022 A 
ENDROOT
BRANCH   1   9
ATOM      9  C   UNL d   1      59.941  49.641  51.172  0.00  0.00     0.006 A 
ATOM     10  C   UNL d   1      59.236  49.654  50.762  0.00  0.00     0.018 A 
ATOM     11  C   UNL d   1      59.233  49.659  49.938  0.00  0.00     0.085 A 
ATOM     12  C   UNL d   1      58.518  49.663  51.176  0.00  0.00     0.005 A 
ATOM     13  C   UNL d   1      58.513  49.672  49.520  0.00  0.00     0.061 A 
ATOM     14  N   UNL d   1      59.948  49.651  49.524  0.00  0.00    -0.244 NA
ATOM     15  C   UNL d   1      57.802  49.681  49.943  0.00  0.00     0.197 A 
ATOM     16  C   UNL d   1      57.805  49.676  50.759  0.00  0.00     0.042 A 
ATOM     17  O   UNL d   1      57.090  49.694  49.525  0.00  0.00    -0.286 OA
ATOM     18  C   UNL d   1      60.660  49.637  49.933  0.00  0.00     0.099 A 
ATOM     19  C   UNL d   1      60.659  49.633  50.761  0.00  0.00     0.021 A 
ENDBRANCH   1   9
BRANCH   2  20
ATOM     20  C   UNL d   1      61.390  49.576  52.228  0.00  0.00     0.101 A 
ATOM     21  N   UNL d   1      62.001  49.706  52.763  0.00  0.00    -0.242 NA
ATOM     22  C   UNL d   1      62.777  49.677  52.519  0.00  0.00     0.099 A 
ATOM     23  C   UNL d   1      62.956  49.515  51.723  0.00  0.00     0.021 A 
ATOM     24  C   UNL d   1      62.342  49.384  51.183  0.00  0.00     0.003 A 
ATOM     25  C   UNL d   1      61.562  49.417  51.444  0.00  0.00     0.021 A 
ENDBRANCH   2  20
TORSDOF 2
ENDMDL
