MODEL 1
REMARK VINA RESULT:      60.9      0.000      0.000
REMARK  8 active torsions:
REMARK  status: ('A' for Active; 'I' for Inactive)
REMARK    1  A    between atoms: C_6  and  N_1 
REMARK    2  A    between atoms: C_7  and  C_2 
REMARK    3  A    between atoms: C_8  and  C_6 
REMARK    4  A    between atoms: O_14  and  C_8 
REMARK    5  A    between atoms: O_15  and  C_8 
REMARK    6  A    between atoms: O_18  and  C_11 
REMARK    7  A    between atoms: C_20  and  O_14 
REMARK    8  A    between atoms: C_19  and  O_15 
ROOT
ATOM      1  N   UNL d   1      60.348  49.284  51.187  0.00  0.00    -0.286 N 
ATOM      2  C   UNL d   1      59.596  49.507  51.450  0.00  0.00     0.148 A 
ATOM      3  N   UNL d   1      59.683  49.700  52.247  0.00  0.00    -0.227 NA
ATOM      4  C   UNL d   1      60.868  49.341  51.799  0.00  0.00     0.083 A 
ATOM      5  C   UNL d   1      60.452  49.601  52.463  0.00  0.00     0.099 A 
ATOM      6  C   UNL d   1      61.680  49.189  51.849  0.00  0.00     0.019 A 
ATOM      7  C   UNL d   1      60.859  49.703  53.158  0.00  0.00     0.021 A 
ATOM      8  C   UNL d   1      62.049  49.301  52.555  0.00  0.00     0.002 A 
ATOM      9  C   UNL d   1      61.633  49.562  53.219  0.00  0.00     0.002 A 
ENDROOT
BRANCH   1  10
ATOM     10  C   UNL d   1      60.525  49.049  50.434  0.00  0.00     0.133 C 
BRANCH  10  11
ATOM     11  C   UNL d   1      60.880  48.301  50.327  0.00  0.00     0.222 C 
BRANCH  11  12
ATOM     12  O   UNL d   1      61.336  48.140  49.655  0.00  0.00    -0.282 OA
BRANCH  12  13
ATOM     13  C   UNL d   1      61.926  47.718  49.283  0.00  0.00     0.125 C 
ATOM     14  C   UNL d   1      62.606  47.507  49.709  0.00  0.00     0.029 C 
ENDBRANCH  12  13
ENDBRANCH  11  12
BRANCH  11  15
ATOM     15  O   UNL d   1      60.781  47.689  50.905  0.00  0.00    -0.282 OA
BRANCH  15  16
ATOM     16  C   UNL d   1      60.937  46.884  50.963  0.00  0.00     0.125 C 
ATOM     17  C   UNL d   1      60.470  46.337  50.562  0.00  0.00     0.029 C 
ENDBRANCH  15  16
ENDBRANCH  11  15
ENDBRANCH  10  11
ENDBRANCH   1  10
BRANCH   2  18
ATOM     18  C   UNL d   1      58.901  49.530  51.005  0.00  0.00     0.035 A 
ATOM     19  C   UNL d   1      58.167  49.456  51.383  0.00  0.00     0.005 A 
ATOM     20  C   UNL d   1      57.473  49.479  50.938  0.00  0.00     0.024 A 
ATOM     21  C   UNL d   1      57.512  49.576  50.116  0.00  0.00     0.094 A 
ATOM     22  C   UNL d   1      58.244  49.649  49.742  0.00  0.00     0.024 A 
ATOM     23  C   UNL d   1      58.939  49.626  50.187  0.00  0.00     0.005 A 
BRANCH  21  24
ATOM     24  O   UNL d   1      56.818  49.600  49.671  0.00  0.00    -0.328 OA
ATOM     25  C   UNL d   1      56.857  49.701  48.849  0.00  0.00     0.181 C 
ENDBRANCH  21  24
ENDBRANCH   2  18
TORSDOF 8
ENDMDL
