MODEL 1
REMARK VINA RESULT:      -1.9      0.000      0.000
REMARK  5 active torsions:
REMARK  status: ('A' for Active; 'I' for Inactive)
REMARK    1  A    between atoms: C_11  and  C_5 
REMARK    2  A    between atoms: C_25  and  N_6 
REMARK    3  A    between atoms: N_14  and  C_27 
REMARK    4  A    between atoms: C_26  and  C_25 
REMARK    5  A    between atoms: C_27  and  C_26 
ROOT
ATOM      1  C   UNL d   1      58.883  -0.678  30.152  0.00  0.00     0.082 A 
ATOM      2  C   UNL d   1      58.198  -1.030  30.452  0.00  0.00     0.267 A 
ATOM      3  C   UNL d   1      59.055   0.116  30.313  0.00  0.00     0.108 A 
ATOM      4  C   UNL d   1      60.092  -0.779  29.381  0.00  0.00     0.113 A 
ATOM      5  C   UNL d   1      59.402  -1.134  29.682  0.00  0.00     0.043 A 
ATOM      6  N   UNL d   1      57.687  -0.574  30.917  0.00  0.00    -0.273 N 
ATOM      7  C   UNL d   1      60.259   0.011  29.543  0.00  0.00     0.213 A 
ATOM      8  O   UNL d   1      59.739   0.460  30.011  0.00  0.00    -0.287 OA
ATOM      9  C   UNL d   1      58.542   0.559  30.775  0.00  0.00     0.043 A 
ATOM     10  C   UNL d   1      57.859   0.219  31.078  0.00  0.00     0.069 A 
ATOM     11  C   UNL d   1      60.604  -1.227  28.918  0.00  0.00     0.105 C 
ATOM     12  N   UNL d   1      61.117  -1.673  28.455  0.00  0.00    -0.191 NA
ATOM     13  O   UNL d   1      58.026  -1.824  30.291  0.00  0.00    -0.267 OA
ATOM     14  N   UNL d   1      60.945   0.363  29.243  0.00  0.00    -0.120 N 
ATOM     15  C   UNL d   1      57.335   0.668  31.548  0.00  0.00     0.019 C 
ENDROOT
BRANCH   5  16
ATOM     16  C   UNL d   1      59.234  -1.925  29.520  0.00  0.00     0.101 A 
ATOM     17  O   UNL d   1      59.464  -2.569  29.967  0.00  0.00    -0.305 OA
ATOM     18  C   UNL d   1      59.178  -3.253  29.603  0.00  0.00     0.123 A 
ATOM     19  C   UNL d   1      58.768  -3.022  28.925  0.00  0.00     0.029 A 
ATOM     20  C   UNL d   1      58.799  -2.203  28.867  0.00  0.00     0.027 A 
ENDBRANCH   5  16
BRANCH   6  21
ATOM     21  C   UNL d   1      56.990  -0.925  31.224  0.00  0.00     0.085 C 
BRANCH  21  22
ATOM     22  C   UNL d   1      56.715  -0.708  31.972  0.00  0.00     0.038 C 
BRANCH  22  23
ATOM     23  C   UNL d   1      56.170  -1.188  32.363  0.00  0.00     0.083 C 
BRANCH  23  24
ATOM     24  N   UNL d   1      55.779  -0.914  33.038  0.00  0.00    -0.285 N 
ATOM     25  C   UNL d   1      55.783  -1.266  33.781  0.00  0.00     0.183 A 
ATOM     26  N   UNL d   1      55.322  -0.805  34.283  0.00  0.00    -0.222 NA
ATOM     27  C   UNL d   1      55.031  -0.167  33.853  0.00  0.00     0.120 A 
ATOM     28  C   UNL d   1      55.310  -0.231  33.090  0.00  0.00     0.102 A 
ENDBRANCH  23  24
ENDBRANCH  22  23
ENDBRANCH  21  22
ENDBRANCH   6  21
TORSDOF 5
ENDMDL
