MODEL 1
REMARK VINA RESULT:      -3.2      0.000      0.000
REMARK  6 active torsions:
REMARK  status: ('A' for Active; 'I' for Inactive)
REMARK    1  A    between atoms: N_5  and  C_1 
REMARK       I    between atoms: C_9  and  N_5 
REMARK    2  A    between atoms: C_20  and  C_6 
REMARK    3  A    between atoms: C_17  and  C_9 
REMARK    4  A    between atoms: C_12  and  C_10 
REMARK    5  A    between atoms: C_11  and  S_13 
REMARK    6  A    between atoms: S_13  and  C_17 
ROOT
ATOM      1  N   UNL d   1      32.633  20.971 -20.955  0.00  0.00    -0.148 NA
ATOM      2  N   UNL d   1      32.746  20.340 -21.473  0.00  0.00    -0.141 NA
ATOM      3  C   UNL d   1      32.825  21.742 -21.191  0.00  0.00     0.104 A 
ATOM      4  C   UNL d   1      33.048  20.466 -22.224  0.00  0.00     0.133 A 
ATOM      5  C   UNL d   1      33.129  21.873 -21.949  0.00  0.00     0.023 A 
ATOM      6  C   UNL d   1      33.241  21.241 -22.464  0.00  0.00     0.029 A 
ENDROOT
BRANCH   4   7
ATOM      7  S   UNL d   1      33.161  19.834 -22.743  0.00  0.00    -0.061 SA
BRANCH   7   8
ATOM      8  C   UNL d   1      32.978  19.069 -22.511  0.00  0.00     0.099 C 
BRANCH   8   9
ATOM      9  C   UNL d   1      32.922  18.472 -23.081  0.00  0.00     0.288 C 
ATOM     10  N   UNL d   1      32.547  17.763 -22.895  0.00  0.00    -0.181 NA
ATOM     11  O   UNL d   1      33.238  18.585 -23.830  0.00  0.00    -0.265 OA
BRANCH  10  12
ATOM     12  C   UNL d   1      32.489  17.171 -23.456  0.00  0.00     0.219 A 
ATOM     13  S   UNL d   1      31.797  16.935 -23.847  0.00  0.00    -0.026 SA
ATOM     14  C   UNL d   1      31.991  16.329 -24.358  0.00  0.00     0.135 A 
ATOM     15  N   UNL d   1      32.798  16.185 -24.288  0.00  0.00    -0.139 NA
ATOM     16  N   UNL d   1      33.099  16.703 -23.734  0.00  0.00    -0.121 NA
BRANCH  14  17
ATOM     17  C   UNL d   1      31.468  15.929 -24.858  0.00  0.00     0.028 C 
ATOM     18  C   UNL d   1      30.834  15.512 -24.549  0.00  0.00     0.002 C 
ENDBRANCH  14  17
ENDBRANCH  10  12
ENDBRANCH   8   9
ENDBRANCH   7   8
ENDBRANCH   4   7
BRANCH   3  19
ATOM     19  C   UNL d   1      32.711  22.374 -20.673  0.00  0.00     0.039 A 
ATOM     20  C   UNL d   1      33.118  22.395 -19.968  0.00  0.00     0.101 A 
ATOM     21  N   UNL d   1      33.009  23.019 -19.450  0.00  0.00    -0.242 NA
ATOM     22  C   UNL d   1      32.481  23.632 -19.647  0.00  0.00     0.099 A 
ATOM     23  C   UNL d   1      32.075  23.607 -20.356  0.00  0.00     0.021 A 
ATOM     24  C   UNL d   1      32.182  22.978 -20.882  0.00  0.00     0.005 A 
ENDBRANCH   3  19
TORSDOF 6
ENDMDL
MODEL 2
REMARK VINA RESULT:      -2.3      1.104      1.472
REMARK  6 active torsions:
REMARK  status: ('A' for Active; 'I' for Inactive)
REMARK    1  A    between atoms: N_5  and  C_1 
REMARK       I    between atoms: C_9  and  N_5 
REMARK    2  A    between atoms: C_20  and  C_6 
REMARK    3  A    between atoms: C_17  and  C_9 
REMARK    4  A    between atoms: C_12  and  C_10 
REMARK    5  A    between atoms: C_11  and  S_13 
REMARK    6  A    between atoms: S_13  and  C_17 
ROOT
ATOM      1  N   UNL d   1      32.506  20.255 -21.466  0.00  0.00    -0.148 NA
ATOM      2  N   UNL d   1      32.554  19.530 -21.856  0.00  0.00    -0.141 NA
ATOM      3  C   UNL d   1      32.828  20.936 -21.813  0.00  0.00     0.104 A 
ATOM      4  C   UNL d   1      32.917  19.474 -22.588  0.00  0.00     0.133 A 
ATOM      5  C   UNL d   1      33.195  20.883 -22.552  0.00  0.00     0.023 A 
ATOM      6  C   UNL d   1      33.241  20.158 -22.939  0.00  0.00     0.029 A 
ENDROOT
BRANCH   4   7
ATOM      7  S   UNL d   1      32.965  18.749 -22.979  0.00  0.00    -0.061 SA
BRANCH   7   8
ATOM      8  C   UNL d   1      32.565  18.631 -23.686  0.00  0.00     0.099 C 
BRANCH   8   9
ATOM      9  C   UNL d   1      32.233  17.892 -23.849  0.00  0.00     0.288 C 
ATOM     10  N   UNL d   1      31.552  17.841 -24.307  0.00  0.00    -0.181 NA
ATOM     11  O   UNL d   1      32.582  17.209 -23.555  0.00  0.00    -0.265 OA
BRANCH  10  12
ATOM     12  C   UNL d   1      31.221  17.111 -24.470  0.00  0.00     0.219 A 
ATOM     13  S   UNL d   1      30.436  16.887 -24.325  0.00  0.00    -0.026 SA
ATOM     14  C   UNL d   1      30.345  16.115 -24.571  0.00  0.00     0.135 A 
ATOM     15  N   UNL d   1      31.067  15.855 -24.870  0.00  0.00    -0.139 NA
ATOM     16  N   UNL d   1      31.600  16.469 -24.806  0.00  0.00    -0.121 NA
BRANCH  14  17
ATOM     17  C   UNL d   1      29.649  15.670 -24.529  0.00  0.00     0.028 C 
ATOM     18  C   UNL d   1      29.338  15.453 -23.803  0.00  0.00     0.002 C 
ENDBRANCH  14  17
ENDBRANCH  10  12
ENDBRANCH   8   9
ENDBRANCH   7   8
ENDBRANCH   4   7
BRANCH   3  19
ATOM     19  C   UNL d   1      32.780  21.661 -21.422  0.00  0.00     0.039 A 
ATOM     20  C   UNL d   1      32.520  22.320 -21.824  0.00  0.00     0.101 A 
ATOM     21  N   UNL d   1      32.471  23.041 -21.441  0.00  0.00    -0.242 NA
ATOM     22  C   UNL d   1      32.688  23.099 -20.639  0.00  0.00     0.099 A 
ATOM     23  C   UNL d   1      32.948  22.434 -20.239  0.00  0.00     0.021 A 
ATOM     24  C   UNL d   1      32.999  21.704 -20.622  0.00  0.00     0.005 A 
ENDBRANCH   3  19
TORSDOF 6
ENDMDL
MODEL 3
REMARK VINA RESULT:      -1.5      1.462      2.196
REMARK  6 active torsions:
REMARK  status: ('A' for Active; 'I' for Inactive)
REMARK    1  A    between atoms: N_5  and  C_1 
REMARK       I    between atoms: C_9  and  N_5 
REMARK    2  A    between atoms: C_20  and  C_6 
REMARK    3  A    between atoms: C_17  and  C_9 
REMARK    4  A    between atoms: C_12  and  C_10 
REMARK    5  A    between atoms: C_11  and  S_13 
REMARK    6  A    between atoms: S_13  and  C_17 
ROOT
ATOM      1  N   UNL d   1      32.322  21.777 -19.419  0.00  0.00    -0.148 NA
ATOM      2  N   UNL d   1      32.394  21.382 -20.140  0.00  0.00    -0.141 NA
ATOM      3  C   UNL d   1      32.673  22.521 -19.316  0.00  0.00     0.104 A 
ATOM      4  C   UNL d   1      32.810  21.718 -20.759  0.00  0.00     0.133 A 
ATOM      5  C   UNL d   1      33.095  22.863 -19.940  0.00  0.00     0.023 A 
ATOM      6  C   UNL d   1      33.164  22.466 -20.658  0.00  0.00     0.029 A 
ENDROOT
BRANCH   4   7
ATOM      7  S   UNL d   1      32.882  21.323 -21.480  0.00  0.00    -0.061 SA
BRANCH   7   8
ATOM      8  C   UNL d   1      33.073  20.525 -21.499  0.00  0.00     0.099 C 
BRANCH   8   9
ATOM      9  C   UNL d   1      33.099  20.129 -22.225  0.00  0.00     0.288 C 
ATOM     10  N   UNL d   1      32.990  19.314 -22.250  0.00  0.00    -0.181 NA
ATOM     11  O   UNL d   1      33.233  20.547 -22.919  0.00  0.00    -0.265 OA
BRANCH  10  12
ATOM     12  C   UNL d   1      33.015  18.919 -22.966  0.00  0.00     0.219 A 
ATOM     13  S   UNL d   1      33.096  18.100 -23.069  0.00  0.00    -0.026 SA
ATOM     14  C   UNL d   1      33.095  17.947 -23.870  0.00  0.00     0.135 A 
ATOM     15  N   UNL d   1      33.013  18.663 -24.268  0.00  0.00    -0.139 NA
ATOM     16  N   UNL d   1      32.965  19.256 -23.709  0.00  0.00    -0.121 NA
BRANCH  14  17
ATOM     17  C   UNL d   1      33.164  17.201 -24.222  0.00  0.00     0.028 C 
ATOM     18  C   UNL d   1      32.560  16.906 -24.691  0.00  0.00     0.002 C 
ENDBRANCH  14  17
ENDBRANCH  10  12
ENDBRANCH   8   9
ENDBRANCH   7   8
ENDBRANCH   4   7
BRANCH   3  19
ATOM     19  C   UNL d   1      32.602  22.916 -18.595  0.00  0.00     0.039 A 
ATOM     20  C   UNL d   1      31.910  23.305 -18.416  0.00  0.00     0.101 A 
ATOM     21  N   UNL d   1      31.834  23.698 -17.702  0.00  0.00    -0.242 NA
ATOM     22  C   UNL d   1      32.466  23.698 -17.161  0.00  0.00     0.099 A 
ATOM     23  C   UNL d   1      33.160  23.306 -17.346  0.00  0.00     0.021 A 
ATOM     24  C   UNL d   1      33.241  22.908 -18.065  0.00  0.00     0.005 A 
ENDBRANCH   3  19
TORSDOF 6
ENDMDL
