MODEL 1
REMARK VINA RESULT:      -8.2      0.000      0.000
REMARK  3 active torsions:
REMARK  status: ('A' for Active; 'I' for Inactive)
REMARK    1  A    between atoms: O_3  and  C_1 
REMARK    2  A    between atoms: C_4  and  O_3 
REMARK    3  A    between atoms: C_8  and  C_4 
ROOT
ATOM      1  C   UNL d   1     -47.691  13.809  23.050  0.00  0.00     0.131 A 
ATOM      2  C   UNL d   1     -47.539  13.014  23.219  0.00  0.00     0.106 A 
ATOM      3  C   UNL d   1     -46.792  12.693  23.083  0.00  0.00     0.030 A 
ATOM      4  C   UNL d   1     -47.088  14.286  22.740  0.00  0.00     0.083 A 
ATOM      5  C   UNL d   1     -46.188  13.171  22.773  0.00  0.00     0.060 A 
ATOM      6  C   UNL d   1     -46.334  13.962  22.603  0.00  0.00     0.025 A 
ATOM      7  N   UNL d   1     -48.141  12.540  23.528  0.00  0.00    -0.242 NA
ATOM      8 CL   UNL d   1     -47.225  15.078  22.567  0.00  0.00    -0.080 Cl
ATOM      9 CL   UNL d   1     -45.442  12.850  22.637  0.00  0.00    -0.082 Cl
ATOM     10  C   UNL d   1     -46.644  11.910  23.251  0.00  0.00     0.004 A 
ATOM     11  C   UNL d   1     -47.995  11.750  23.698  0.00  0.00     0.099 A 
ATOM     12  C   UNL d   1     -47.244  11.431  23.560  0.00  0.00     0.021 A 
ENDROOT
BRANCH   1  13
ATOM     13  O   UNL d   1     -48.428  14.134  23.182  0.00  0.00    -0.269 OA
BRANCH  13  14
ATOM     14  C   UNL d   1     -48.946  14.265  22.554  0.00  0.00     0.323 C 
ATOM     15  O   UNL d   1     -48.697  14.114  21.785  0.00  0.00    -0.257 OA
BRANCH  14  16
ATOM     16  C   UNL d   1     -49.708  14.544  22.692  0.00  0.00     0.163 A 
ATOM     17  O   UNL d   1     -49.953  14.996  23.343  0.00  0.00    -0.300 OA
ATOM     18  C   UNL d   1     -50.749  15.152  23.259  0.00  0.00     0.123 A 
ATOM     19  C   UNL d   1     -51.010  14.795  22.549  0.00  0.00     0.029 A 
ATOM     20  C   UNL d   1     -50.360  14.423  22.207  0.00  0.00     0.032 A 
ENDBRANCH  14  16
ENDBRANCH  13  14
ENDBRANCH   1  13
TORSDOF 3
ENDMDL
MODEL 2
REMARK VINA RESULT:      -7.5      1.454      3.629
REMARK  3 active torsions:
REMARK  status: ('A' for Active; 'I' for Inactive)
REMARK    1  A    between atoms: O_3  and  C_1 
REMARK    2  A    between atoms: C_4  and  O_3 
REMARK    3  A    between atoms: C_8  and  C_4 
ROOT
ATOM      1  C   UNL d   1     -48.720  14.172  22.155  0.00  0.00     0.131 A 
ATOM      2  C   UNL d   1     -49.348  13.661  21.990  0.00  0.00     0.106 A 
ATOM      3  C   UNL d   1     -50.128  13.914  22.073  0.00  0.00     0.030 A 
ATOM      4  C   UNL d   1     -48.877  14.947  22.407  0.00  0.00     0.083 A 
ATOM      5  C   UNL d   1     -50.284  14.689  22.325  0.00  0.00     0.060 A 
ATOM      6  C   UNL d   1     -49.664  15.203  22.492  0.00  0.00     0.025 A 
ATOM      7  N   UNL d   1     -49.191  12.890  21.739  0.00  0.00    -0.242 NA
ATOM      8 CL   UNL d   1     -48.263  15.467  22.576  0.00  0.00    -0.080 Cl
ATOM      9 CL   UNL d   1     -51.064  14.943  22.409  0.00  0.00    -0.082 Cl
ATOM     10  C   UNL d   1     -50.745  13.409  21.909  0.00  0.00     0.004 A 
ATOM     11  C   UNL d   1     -49.811  12.377  21.573  0.00  0.00     0.099 A 
ATOM     12  C   UNL d   1     -50.593  12.635  21.658  0.00  0.00     0.021 A 
ENDROOT
BRANCH   1  13
ATOM     13  O   UNL d   1     -47.946  13.928  22.075  0.00  0.00    -0.269 OA
BRANCH  13  14
ATOM     14  C   UNL d   1     -47.492  13.751  22.741  0.00  0.00     0.323 C 
ATOM     15  O   UNL d   1     -47.800  13.892  23.490  0.00  0.00    -0.257 OA
BRANCH  14  16
ATOM     16  C   UNL d   1     -46.737  13.434  22.659  0.00  0.00     0.163 A 
ATOM     17  O   UNL d   1     -46.150  13.697  22.135  0.00  0.00    -0.300 OA
ATOM     18  C   UNL d   1     -45.490  13.229  22.237  0.00  0.00     0.123 A 
ATOM     19  C   UNL d   1     -45.661  12.665  22.831  0.00  0.00     0.029 A 
ATOM     20  C   UNL d   1     -46.433  12.800  23.085  0.00  0.00     0.032 A 
ENDBRANCH  14  16
ENDBRANCH  13  14
ENDBRANCH   1  13
TORSDOF 3
ENDMDL
MODEL 3
REMARK VINA RESULT:      -7.5      1.695      3.884
REMARK  3 active torsions:
REMARK  status: ('A' for Active; 'I' for Inactive)
REMARK    1  A    between atoms: O_3  and  C_1 
REMARK    2  A    between atoms: C_4  and  O_3 
REMARK    3  A    between atoms: C_8  and  C_4 
ROOT
ATOM      1  C   UNL d   1     -48.602  13.693  21.922  0.00  0.00     0.131 A 
ATOM      2  C   UNL d   1     -49.060  14.265  22.305  0.00  0.00     0.106 A 
ATOM      3  C   UNL d   1     -49.878  14.277  22.210  0.00  0.00     0.030 A 
ATOM      4  C   UNL d   1     -48.969  13.127  21.439  0.00  0.00     0.083 A 
ATOM      5  C   UNL d   1     -50.246  13.711  21.728  0.00  0.00     0.060 A 
ATOM      6  C   UNL d   1     -49.796  13.140  21.344  0.00  0.00     0.025 A 
ATOM      7  N   UNL d   1     -48.692  14.827  22.785  0.00  0.00    -0.242 NA
ATOM      8 CL   UNL d   1     -48.527  12.553  21.052  0.00  0.00    -0.080 Cl
ATOM      9 CL   UNL d   1     -51.064  13.724  21.633  0.00  0.00    -0.082 Cl
ATOM     10  C   UNL d   1     -50.328  14.841  22.589  0.00  0.00     0.004 A 
ATOM     11  C   UNL d   1     -49.142  15.398  23.168  0.00  0.00     0.099 A 
ATOM     12  C   UNL d   1     -49.964  15.407  23.071  0.00  0.00     0.021 A 
ENDROOT
BRANCH   1  13
ATOM     13  O   UNL d   1     -47.791  13.674  22.010  0.00  0.00    -0.269 OA
BRANCH  13  14
ATOM     14  C   UNL d   1     -47.435  13.103  22.488  0.00  0.00     0.323 C 
ATOM     15  O   UNL d   1     -47.906  12.593  22.928  0.00  0.00    -0.257 OA
BRANCH  14  16
ATOM     16  C   UNL d   1     -46.615  13.042  22.526  0.00  0.00     0.163 A 
ATOM     17  O   UNL d   1     -46.071  13.482  22.081  0.00  0.00    -0.300 OA
ATOM     18  C   UNL d   1     -45.320  13.245  22.293  0.00  0.00     0.123 A 
ATOM     19  C   UNL d   1     -45.390  12.650  22.876  0.00  0.00     0.029 A 
ATOM     20  C   UNL d   1     -46.193  12.532  23.012  0.00  0.00     0.032 A 
ENDBRANCH  14  16
ENDBRANCH  13  14
ENDBRANCH   1  13
TORSDOF 3
ENDMDL
MODEL 4
REMARK VINA RESULT:      -6.0      8.390      9.764
REMARK  3 active torsions:
REMARK  status: ('A' for Active; 'I' for Inactive)
REMARK    1  A    between atoms: O_3  and  C_1 
REMARK    2  A    between atoms: C_4  and  O_3 
REMARK    3  A    between atoms: C_8  and  C_4 
ROOT
ATOM      1  C   UNL d   1     -39.828  15.025  19.285  0.00  0.00     0.131 A 
ATOM      2  C   UNL d   1     -39.726  14.816  20.078  0.00  0.00     0.106 A 
ATOM      3  C   UNL d   1     -40.231  15.113  20.658  0.00  0.00     0.030 A 
ATOM      4  C   UNL d   1     -40.445  15.537  19.071  0.00  0.00     0.083 A 
ATOM      5  C   UNL d   1     -40.847  15.625  20.444  0.00  0.00     0.060 A 
ATOM      6  C   UNL d   1     -40.955  15.837  19.656  0.00  0.00     0.025 A 
ATOM      7  N   UNL d   1     -39.111  14.306  20.289  0.00  0.00    -0.242 NA
ATOM      8 CL   UNL d   1     -40.559  15.754  18.286  0.00  0.00    -0.080 Cl
ATOM      9 CL   UNL d   1     -41.353  15.921  21.024  0.00  0.00    -0.082 Cl
ATOM     10  C   UNL d   1     -40.128  14.905  21.439  0.00  0.00     0.004 A 
ATOM     11  C   UNL d   1     -39.005  14.094  21.076  0.00  0.00     0.099 A 
ATOM     12  C   UNL d   1     -39.514  14.394  21.655  0.00  0.00     0.021 A 
ENDROOT
BRANCH   1  13
ATOM     13  O   UNL d   1     -39.332  14.735  18.705  0.00  0.00    -0.269 OA
BRANCH  13  14
ATOM     14  C   UNL d   1     -39.578  14.120  18.214  0.00  0.00     0.323 C 
ATOM     15  O   UNL d   1     -40.354  13.852  18.257  0.00  0.00    -0.257 OA
BRANCH  14  16
ATOM     16  C   UNL d   1     -39.051  13.774  17.684  0.00  0.00     0.163 A 
ATOM     17  O   UNL d   1     -38.564  14.175  17.146  0.00  0.00    -0.300 OA
ATOM     18  C   UNL d   1     -38.134  13.621  16.730  0.00  0.00     0.123 A 
ATOM     19  C   UNL d   1     -38.352  12.862  17.008  0.00  0.00     0.029 A 
ATOM     20  C   UNL d   1     -38.918  12.968  17.595  0.00  0.00     0.032 A 
ENDBRANCH  14  16
ENDBRANCH  13  14
ENDBRANCH   1  13
TORSDOF 3
ENDMDL
MODEL 5
REMARK VINA RESULT:      -5.8      8.453      9.800
REMARK  3 active torsions:
REMARK  status: ('A' for Active; 'I' for Inactive)
REMARK    1  A    between atoms: O_3  and  C_1 
REMARK    2  A    between atoms: C_4  and  O_3 
REMARK    3  A    between atoms: C_8  and  C_4 
ROOT
ATOM      1  C   UNL d   1     -39.855  14.397  17.964  0.00  0.00     0.131 A 
ATOM      2  C   UNL d   1     -39.214  13.877  17.908  0.00  0.00     0.106 A 
ATOM      3  C   UNL d   1     -38.810  13.785  17.196  0.00  0.00     0.030 A 
ATOM      4  C   UNL d   1     -40.092  14.829  17.296  0.00  0.00     0.083 A 
ATOM      5  C   UNL d   1     -39.047  14.217  16.529  0.00  0.00     0.060 A 
ATOM      6  C   UNL d   1     -39.684  14.736  16.577  0.00  0.00     0.025 A 
ATOM      7  N   UNL d   1     -38.979  13.448  18.574  0.00  0.00    -0.242 NA
ATOM      8 CL   UNL d   1     -40.727  15.349  17.336  0.00  0.00    -0.080 Cl
ATOM      9 CL   UNL d   1     -38.643  14.124  15.817  0.00  0.00    -0.082 Cl
ATOM     10  C   UNL d   1     -38.179  13.272  17.144  0.00  0.00     0.004 A 
ATOM     11  C   UNL d   1     -38.343  12.929  18.525  0.00  0.00     0.099 A 
ATOM     12  C   UNL d   1     -37.940  12.839  17.808  0.00  0.00     0.021 A 
ENDROOT
BRANCH   1  13
ATOM     13  O   UNL d   1     -40.259  14.493  18.666  0.00  0.00    -0.269 OA
BRANCH  13  14
ATOM     14  C   UNL d   1     -40.132  15.161  19.133  0.00  0.00     0.323 C 
ATOM     15  O   UNL d   1     -39.618  15.747  18.872  0.00  0.00    -0.257 OA
BRANCH  14  16
ATOM     16  C   UNL d   1     -40.516  15.243  19.857  0.00  0.00     0.163 A 
ATOM     17  O   UNL d   1     -40.959  14.659  20.244  0.00  0.00    -0.300 OA
ATOM     18  C   UNL d   1     -41.240  14.975  20.942  0.00  0.00     0.123 A 
ATOM     19  C   UNL d   1     -40.971  15.766  20.996  0.00  0.00     0.029 A 
ATOM     20  C   UNL d   1     -40.526  15.921  20.321  0.00  0.00     0.032 A 
ENDBRANCH  14  16
ENDBRANCH  13  14
ENDBRANCH   1  13
TORSDOF 3
ENDMDL
MODEL 6
REMARK VINA RESULT:      -5.7      8.665      9.546
REMARK  3 active torsions:
REMARK  status: ('A' for Active; 'I' for Inactive)
REMARK    1  A    between atoms: O_3  and  C_1 
REMARK    2  A    between atoms: C_4  and  O_3 
REMARK    3  A    between atoms: C_8  and  C_4 
ROOT
ATOM      1  C   UNL d   1     -39.833  14.907  19.294  0.00  0.00     0.131 A 
ATOM      2  C   UNL d   1     -39.578  14.422  18.675  0.00  0.00     0.106 A 
ATOM      3  C   UNL d   1     -39.943  14.457  17.938  0.00  0.00     0.030 A 
ATOM      4  C   UNL d   1     -40.462  15.433  19.170  0.00  0.00     0.083 A 
ATOM      5  C   UNL d   1     -40.572  14.983  17.814  0.00  0.00     0.060 A 
ATOM      6  C   UNL d   1     -40.831  15.468  18.426  0.00  0.00     0.025 A 
ATOM      7  N   UNL d   1     -38.951  13.898  18.800  0.00  0.00    -0.242 NA
ATOM      8 CL   UNL d   1     -40.727  15.922  19.776  0.00  0.00    -0.080 Cl
ATOM      9 CL   UNL d   1     -40.938  15.017  17.076  0.00  0.00    -0.082 Cl
ATOM     10  C   UNL d   1     -39.690  13.977  17.329  0.00  0.00     0.004 A 
ATOM     11  C   UNL d   1     -38.692  13.414  18.189  0.00  0.00     0.099 A 
ATOM     12  C   UNL d   1     -39.062  13.451  17.449  0.00  0.00     0.021 A 
ENDROOT
BRANCH   1  13
ATOM     13  O   UNL d   1     -39.476  14.878  20.027  0.00  0.00    -0.269 OA
BRANCH  13  14
ATOM     14  C   UNL d   1     -39.848  14.500  20.659  0.00  0.00     0.323 C 
ATOM     15  O   UNL d   1     -40.619  14.227  20.571  0.00  0.00    -0.257 OA
BRANCH  14  16
ATOM     16  C   UNL d   1     -39.454  14.396  21.374  0.00  0.00     0.163 A 
ATOM     17  O   UNL d   1     -38.921  14.927  21.721  0.00  0.00    -0.300 OA
ATOM     18  C   UNL d   1     -38.662  14.605  22.424  0.00  0.00     0.123 A 
ATOM     19  C   UNL d   1     -39.034  13.862  22.522  0.00  0.00     0.029 A 
ATOM     20  C   UNL d   1     -39.521  13.743  21.868  0.00  0.00     0.032 A 
ENDBRANCH  14  16
ENDBRANCH  13  14
ENDBRANCH   1  13
TORSDOF 3
ENDMDL
MODEL 7
REMARK VINA RESULT:      -5.3      8.947     10.001
REMARK  3 active torsions:
REMARK  status: ('A' for Active; 'I' for Inactive)
REMARK    1  A    between atoms: O_3  and  C_1 
REMARK    2  A    between atoms: C_4  and  O_3 
REMARK    3  A    between atoms: C_8  and  C_4 
ROOT
ATOM      1  C   UNL d   1     -39.502  14.483  18.600  0.00  0.00     0.131 A 
ATOM      2  C   UNL d   1     -39.952  14.884  18.034  0.00  0.00     0.106 A 
ATOM      3  C   UNL d   1     -39.808  14.775  17.230  0.00  0.00     0.030 A 
ATOM      4  C   UNL d   1     -38.900  13.967  18.355  0.00  0.00     0.083 A 
ATOM      5  C   UNL d   1     -39.205  14.260  16.986  0.00  0.00     0.060 A 
ATOM      6  C   UNL d   1     -38.754  13.858  17.544  0.00  0.00     0.025 A 
ATOM      7  N   UNL d   1     -40.552  15.397  18.279  0.00  0.00    -0.242 NA
ATOM      8 CL   UNL d   1     -38.444  13.562  18.906  0.00  0.00    -0.080 Cl
ATOM      9 CL   UNL d   1     -39.060  14.151  16.182  0.00  0.00    -0.082 Cl
ATOM     10  C   UNL d   1     -40.253  15.171  16.674  0.00  0.00     0.004 A 
ATOM     11  C   UNL d   1     -41.003  15.798  17.721  0.00  0.00     0.099 A 
ATOM     12  C   UNL d   1     -40.854  15.686  16.914  0.00  0.00     0.021 A 
ENDROOT
BRANCH   1  13
ATOM     13  O   UNL d   1     -39.640  14.585  19.397  0.00  0.00    -0.269 OA
BRANCH  13  14
ATOM     14  C   UNL d   1     -39.145  15.067  19.848  0.00  0.00     0.323 C 
ATOM     15  O   UNL d   1     -38.462  15.376  19.511  0.00  0.00    -0.257 OA
BRANCH  14  16
ATOM     16  C   UNL d   1     -39.331  15.239  20.632  0.00  0.00     0.163 A 
ATOM     17  O   UNL d   1     -39.763  14.757  21.149  0.00  0.00    -0.300 OA
ATOM     18  C   UNL d   1     -39.817  15.140  21.868  0.00  0.00     0.123 A 
ATOM     19  C   UNL d   1     -39.415  15.871  21.803  0.00  0.00     0.029 A 
ATOM     20  C   UNL d   1     -39.119  15.922  21.037  0.00  0.00     0.032 A 
ENDBRANCH  14  16
ENDBRANCH  13  14
ENDBRANCH   1  13
TORSDOF 3
ENDMDL
