MODEL 1
REMARK VINA RESULT:      -2.8      0.000      0.000
REMARK  1 active torsions:
REMARK  status: ('A' for Active; 'I' for Inactive)
REMARK    1  A    between atoms: C_2  and  N_1 
ROOT
ATOM      1  C   UNL d   1      30.520  17.056 -24.413  0.00  0.00     0.129 A 
ATOM      2  C   UNL d   1      30.192  16.521 -23.877  0.00  0.00     0.043 A 
ATOM      3  C   UNL d   1      29.373  16.515 -23.749  0.00  0.00     0.123 A 
ATOM      4  C   UNL d   1      28.890  17.044 -24.159  0.00  0.00     0.224 A 
ATOM      5  C   UNL d   1      30.038  17.578 -24.817  0.00  0.00     0.038 A 
ATOM      6  C   UNL d   1      29.219  17.572 -24.690  0.00  0.00     0.100 A 
ATOM      7  N   UNL d   1      29.045  15.984 -23.216  0.00  0.00    -0.241 NA
ATOM      8  O   UNL d   1      28.079  17.038 -24.033  0.00  0.00    -0.284 OA
ATOM      9 CL   UNL d   1      28.736  18.097 -25.096  0.00  0.00    -0.079 Cl
ATOM     10  C   UNL d   1      30.675  15.996 -23.470  0.00  0.00     0.005 A 
ATOM     11  C   UNL d   1      29.528  15.453 -22.804  0.00  0.00     0.099 A 
ATOM     12  C   UNL d   1      30.347  15.459 -22.931  0.00  0.00     0.021 A 
ENDROOT
BRANCH   1  13
ATOM     13  N   UNL d   1      31.331  17.062 -24.540  0.00  0.00    -0.114 N 
ATOM     14  O   UNL d   1      31.668  16.558 -25.096  0.00  0.00    -0.532 OA
ATOM     15  O   UNL d   1      31.810  17.573 -24.110  0.00  0.00    -0.532 OA
ENDBRANCH   1  13
TORSDOF 1
ENDMDL
MODEL 2
REMARK VINA RESULT:      -2.8      1.322      2.045
REMARK  1 active torsions:
REMARK  status: ('A' for Active; 'I' for Inactive)
REMARK    1  A    between atoms: C_2  and  N_1 
ROOT
ATOM      1  C   UNL d   1      30.323  16.158 -23.666  0.00  0.00     0.129 A 
ATOM      2  C   UNL d   1      29.975  16.757 -24.115  0.00  0.00     0.043 A 
ATOM      3  C   UNL d   1      29.166  16.919 -24.031  0.00  0.00     0.123 A 
ATOM      4  C   UNL d   1      28.713  16.480 -23.498  0.00  0.00     0.224 A 
ATOM      5  C   UNL d   1      29.869  15.726 -23.139  0.00  0.00     0.038 A 
ATOM      6  C   UNL d   1      29.061  15.888 -23.055  0.00  0.00     0.100 A 
ATOM      7  N   UNL d   1      28.819  17.514 -24.476  0.00  0.00    -0.241 NA
ATOM      8  O   UNL d   1      27.912  16.641 -23.415  0.00  0.00    -0.284 OA
ATOM      9 CL   UNL d   1      28.608  15.453 -22.526  0.00  0.00    -0.079 Cl
ATOM     10  C   UNL d   1      30.428  17.191 -24.644  0.00  0.00     0.005 A 
ATOM     11  C   UNL d   1      29.272  17.955 -25.012  0.00  0.00     0.099 A 
ATOM     12  C   UNL d   1      30.080  17.793 -25.096  0.00  0.00     0.021 A 
ENDROOT
BRANCH   1  13
ATOM     13  N   UNL d   1      31.122  15.997 -23.749  0.00  0.00    -0.114 N 
ATOM     14  O   UNL d   1      31.380  15.453 -24.310  0.00  0.00    -0.532 OA
ATOM     15  O   UNL d   1      31.670  16.380 -23.271  0.00  0.00    -0.532 OA
ENDBRANCH   1  13
TORSDOF 1
ENDMDL
MODEL 3
REMARK VINA RESULT:      -2.7      7.036      7.551
REMARK  1 active torsions:
REMARK  status: ('A' for Active; 'I' for Inactive)
REMARK    1  A    between atoms: C_2  and  N_1 
ROOT
ATOM      1  C   UNL d   1      32.489  23.147 -20.935  0.00  0.00     0.129 A 
ATOM      2  C   UNL d   1      32.651  22.337 -20.910  0.00  0.00     0.043 A 
ATOM      3  C   UNL d   1      32.884  21.985 -20.197  0.00  0.00     0.123 A 
ATOM      4  C   UNL d   1      32.954  22.445 -19.516  0.00  0.00     0.224 A 
ATOM      5  C   UNL d   1      32.559  23.598 -20.257  0.00  0.00     0.038 A 
ATOM      6  C   UNL d   1      32.793  23.246 -19.544  0.00  0.00     0.100 A 
ATOM      7  N   UNL d   1      33.046  21.181 -20.171  0.00  0.00    -0.241 NA
ATOM      8  O   UNL d   1      33.186  22.096 -18.810  0.00  0.00    -0.284 OA
ATOM      9 CL   UNL d   1      32.863  23.701 -18.865  0.00  0.00    -0.079 Cl
ATOM     10  C   UNL d   1      32.580  21.882 -21.590  0.00  0.00     0.005 A 
ATOM     11  C   UNL d   1      32.976  20.717 -20.854  0.00  0.00     0.099 A 
ATOM     12  C   UNL d   1      32.742  21.070 -21.567  0.00  0.00     0.021 A 
ENDROOT
BRANCH   1  13
ATOM     13  N   UNL d   1      32.257  23.495 -21.640  0.00  0.00    -0.114 N 
ATOM     14  O   UNL d   1      32.819  23.702 -22.204  0.00  0.00    -0.532 OA
ATOM     15  O   UNL d   1      31.462  23.639 -21.786  0.00  0.00    -0.532 OA
ENDBRANCH   1  13
TORSDOF 1
ENDMDL
MODEL 4
REMARK VINA RESULT:      -2.6      0.887      2.235
REMARK  1 active torsions:
REMARK  status: ('A' for Active; 'I' for Inactive)
REMARK    1  A    between atoms: C_2  and  N_1 
ROOT
ATOM      1  C   UNL d   1      29.019  16.527 -23.968  0.00  0.00     0.129 A 
ATOM      2  C   UNL d   1      29.823  16.341 -23.981  0.00  0.00     0.043 A 
ATOM      3  C   UNL d   1      30.358  16.849 -24.360  0.00  0.00     0.123 A 
ATOM      4  C   UNL d   1      30.083  17.538 -24.722  0.00  0.00     0.224 A 
ATOM      5  C   UNL d   1      28.752  17.211 -24.327  0.00  0.00     0.038 A 
ATOM      6  C   UNL d   1      29.286  17.719 -24.706  0.00  0.00     0.100 A 
ATOM      7  N   UNL d   1      31.158  16.666 -24.375  0.00  0.00    -0.241 NA
ATOM      8  O   UNL d   1      30.612  18.041 -25.097  0.00  0.00    -0.284 OA
ATOM      9 CL   UNL d   1      29.015  18.405 -25.067  0.00  0.00    -0.079 Cl
ATOM     10  C   UNL d   1      30.094  15.655 -23.621  0.00  0.00     0.005 A 
ATOM     11  C   UNL d   1      31.436  15.974 -24.012  0.00  0.00     0.099 A 
ATOM     12  C   UNL d   1      30.901  15.466 -23.633  0.00  0.00     0.021 A 
ENDROOT
BRANCH   1  13
ATOM     13  N   UNL d   1      28.490  16.025 -23.593  0.00  0.00    -0.114 N 
ATOM     14  O   UNL d   1      28.358  16.091 -22.783  0.00  0.00    -0.532 OA
ATOM     15  O   UNL d   1      28.090  15.453 -24.025  0.00  0.00    -0.532 OA
ENDBRANCH   1  13
TORSDOF 1
ENDMDL
MODEL 5
REMARK VINA RESULT:      -2.6      1.349      2.936
REMARK  1 active torsions:
REMARK  status: ('A' for Active; 'I' for Inactive)
REMARK    1  A    between atoms: C_2  and  N_1 
ROOT
ATOM      1  C   UNL d   1      29.512  16.110 -23.709  0.00  0.00     0.129 A 
ATOM      2  C   UNL d   1      29.661  16.778 -24.171  0.00  0.00     0.043 A 
ATOM      3  C   UNL d   1      30.443  17.002 -24.332  0.00  0.00     0.123 A 
ATOM      4  C   UNL d   1      31.068  16.556 -24.030  0.00  0.00     0.224 A 
ATOM      5  C   UNL d   1      30.135  15.671 -23.412  0.00  0.00     0.038 A 
ATOM      6  C   UNL d   1      30.916  15.895 -23.573  0.00  0.00     0.100 A 
ATOM      7  N   UNL d   1      30.593  17.666 -24.791  0.00  0.00    -0.241 NA
ATOM      8  O   UNL d   1      31.842  16.778 -24.189  0.00  0.00    -0.284 OA
ATOM      9 CL   UNL d   1      31.540  15.453 -23.273  0.00  0.00    -0.079 Cl
ATOM     10  C   UNL d   1      29.037  17.220 -24.470  0.00  0.00     0.005 A 
ATOM     11  C   UNL d   1      29.967  18.115 -25.095  0.00  0.00     0.099 A 
ATOM     12  C   UNL d   1      29.185  17.891 -24.934  0.00  0.00     0.021 A 
ENDROOT
BRANCH   1  13
ATOM     13  N   UNL d   1      28.739  15.888 -23.550  0.00  0.00    -0.114 N 
ATOM     14  O   UNL d   1      28.310  15.453 -24.102  0.00  0.00    -0.532 OA
ATOM     15  O   UNL d   1      28.388  16.100 -22.838  0.00  0.00    -0.532 OA
ENDBRANCH   1  13
TORSDOF 1
ENDMDL
MODEL 6
REMARK VINA RESULT:      -2.4      6.217      7.068
REMARK  1 active torsions:
REMARK  status: ('A' for Active; 'I' for Inactive)
REMARK    1  A    between atoms: C_2  and  N_1 
ROOT
ATOM      1  C   UNL d   1      32.696  22.111 -20.905  0.00  0.00     0.129 A 
ATOM      2  C   UNL d   1      32.875  22.451 -21.635  0.00  0.00     0.043 A 
ATOM      3  C   UNL d   1      33.058  21.966 -22.282  0.00  0.00     0.123 A 
ATOM      4  C   UNL d   1      33.060  21.146 -22.192  0.00  0.00     0.224 A 
ATOM      5  C   UNL d   1      32.699  21.298 -20.821  0.00  0.00     0.038 A 
ATOM      6  C   UNL d   1      32.882  20.813 -21.468  0.00  0.00     0.100 A 
ATOM      7  N   UNL d   1      33.236  22.302 -23.009  0.00  0.00    -0.241 NA
ATOM      8  O   UNL d   1      33.241  20.666 -22.833  0.00  0.00    -0.284 OA
ATOM      9 CL   UNL d   1      32.884  19.996 -21.381  0.00  0.00    -0.079 Cl
ATOM     10  C   UNL d   1      32.872  23.268 -21.722  0.00  0.00     0.005 A 
ATOM     11  C   UNL d   1      33.235  23.126 -23.102  0.00  0.00     0.099 A 
ATOM     12  C   UNL d   1      33.052  23.611 -22.455  0.00  0.00     0.021 A 
ENDROOT
BRANCH   1  13
ATOM     13  N   UNL d   1      32.515  22.591 -20.265  0.00  0.00    -0.114 N 
ATOM     14  O   UNL d   1      33.107  22.831 -19.745  0.00  0.00    -0.532 OA
ATOM     15  O   UNL d   1      31.741  22.834 -20.139  0.00  0.00    -0.532 OA
ENDBRANCH   1  13
TORSDOF 1
ENDMDL
MODEL 7
REMARK VINA RESULT:      -2.4      6.198      6.837
REMARK  1 active torsions:
REMARK  status: ('A' for Active; 'I' for Inactive)
REMARK    1  A    between atoms: C_2  and  N_1 
ROOT
ATOM      1  C   UNL d   1      32.776  22.550 -21.083  0.00  0.00     0.129 A 
ATOM      2  C   UNL d   1      32.925  21.788 -21.364  0.00  0.00     0.043 A 
ATOM      3  C   UNL d   1      33.081  21.668 -22.169  0.00  0.00     0.123 A 
ATOM      4  C   UNL d   1      33.086  22.311 -22.686  0.00  0.00     0.224 A 
ATOM      5  C   UNL d   1      32.782  23.184 -21.600  0.00  0.00     0.038 A 
ATOM      6  C   UNL d   1      32.938  23.064 -22.405  0.00  0.00     0.100 A 
ATOM      7  N   UNL d   1      33.229  20.911 -22.450  0.00  0.00    -0.241 NA
ATOM      8  O   UNL d   1      33.240  22.192 -23.484  0.00  0.00    -0.284 OA
ATOM      9 CL   UNL d   1      32.944  23.702 -22.921  0.00  0.00    -0.079 Cl
ATOM     10  C   UNL d   1      32.919  21.150 -20.847  0.00  0.00     0.005 A 
ATOM     11  C   UNL d   1      33.224  20.264 -21.932  0.00  0.00     0.099 A 
ATOM     12  C   UNL d   1      33.068  20.384 -21.127  0.00  0.00     0.021 A 
ENDROOT
BRANCH   1  13
ATOM     13  N   UNL d   1      32.622  22.669 -20.287  0.00  0.00    -0.114 N 
ATOM     14  O   UNL d   1      33.239  22.812 -19.761  0.00  0.00    -0.532 OA
ATOM     15  O   UNL d   1      31.849  22.646 -20.010  0.00  0.00    -0.532 OA
ENDBRANCH   1  13
TORSDOF 1
ENDMDL
MODEL 8
REMARK VINA RESULT:      -2.4      1.690      2.570
REMARK  1 active torsions:
REMARK  status: ('A' for Active; 'I' for Inactive)
REMARK    1  A    between atoms: C_2  and  N_1 
ROOT
ATOM      1  C   UNL d   1      31.934  16.145 -23.698  0.00  0.00     0.129 A 
ATOM      2  C   UNL d   1      31.742  16.798 -24.164  0.00  0.00     0.043 A 
ATOM      3  C   UNL d   1      30.947  17.001 -24.282  0.00  0.00     0.123 A 
ATOM      4  C   UNL d   1      30.352  16.548 -23.933  0.00  0.00     0.224 A 
ATOM      5  C   UNL d   1      31.341  15.699 -23.354  0.00  0.00     0.038 A 
ATOM      6  C   UNL d   1      30.546  15.901 -23.472  0.00  0.00     0.100 A 
ATOM      7  N   UNL d   1      30.753  17.650 -24.745  0.00  0.00    -0.241 NA
ATOM      8  O   UNL d   1      29.564  16.748 -24.050  0.00  0.00    -0.284 OA
ATOM      9 CL   UNL d   1      29.953  15.453 -23.126  0.00  0.00    -0.079 Cl
ATOM     10  C   UNL d   1      32.336  17.247 -24.510  0.00  0.00     0.005 A 
ATOM     11  C   UNL d   1      31.349  18.106 -25.097  0.00  0.00     0.099 A 
ATOM     12  C   UNL d   1      32.144  17.903 -24.979  0.00  0.00     0.021 A 
ENDROOT
BRANCH   1  13
ATOM     13  N   UNL d   1      32.721  15.944 -23.581  0.00  0.00    -0.114 N 
ATOM     14  O   UNL d   1      33.128  16.227 -22.923  0.00  0.00    -0.532 OA
ATOM     15  O   UNL d   1      33.106  15.460 -24.120  0.00  0.00    -0.532 OA
ENDBRANCH   1  13
TORSDOF 1
ENDMDL
MODEL 9
REMARK VINA RESULT:      -2.3      1.743      2.254
REMARK  1 active torsions:
REMARK  status: ('A' for Active; 'I' for Inactive)
REMARK    1  A    between atoms: C_2  and  N_1 
ROOT
ATOM      1  C   UNL d   1      32.398  16.692 -23.934  0.00  0.00     0.129 A 
ATOM      2  C   UNL d   1      31.595  16.507 -23.877  0.00  0.00     0.043 A 
ATOM      3  C   UNL d   1      31.031  17.001 -24.229  0.00  0.00     0.123 A 
ATOM      4  C   UNL d   1      31.275  17.676 -24.636  0.00  0.00     0.224 A 
ATOM      5  C   UNL d   1      32.634  17.363 -24.338  0.00  0.00     0.038 A 
ATOM      6  C   UNL d   1      32.070  17.857 -24.691  0.00  0.00     0.100 A 
ATOM      7  N   UNL d   1      30.233  16.818 -24.173  0.00  0.00    -0.241 NA
ATOM      8  O   UNL d   1      30.716  18.166 -24.985  0.00  0.00    -0.284 OA
ATOM      9 CL   UNL d   1      32.309  18.530 -25.096  0.00  0.00    -0.079 Cl
ATOM     10  C   UNL d   1      31.356  15.834 -23.471  0.00  0.00     0.005 A 
ATOM     11  C   UNL d   1      29.987  16.140 -23.765  0.00  0.00     0.099 A 
ATOM     12  C   UNL d   1      30.551  15.645 -23.413  0.00  0.00     0.021 A 
ENDROOT
BRANCH   1  13
ATOM     13  N   UNL d   1      32.956  16.203 -23.585  0.00  0.00    -0.114 N 
ATOM     14  O   UNL d   1      33.233  16.364 -22.827  0.00  0.00    -0.532 OA
ATOM     15  O   UNL d   1      33.241  15.549 -23.992  0.00  0.00    -0.532 OA
ENDBRANCH   1  13
TORSDOF 1
ENDMDL
