MODEL 1
REMARK VINA RESULT:      -3.2      0.000      0.000
REMARK  3 active torsions:
REMARK  status: ('A' for Active; 'I' for Inactive)
REMARK       I    between atoms: N_3  and  C_8 
REMARK    1  A    between atoms: S_12  and  C_6 
REMARK    2  A    between atoms: C_8  and  C_14 
REMARK    3  A    between atoms: C_14  and  S_12 
ROOT
ATOM      1  S   UNL d   1     -42.189-122.606 -51.974  0.00  0.00    -0.060 SA
ENDROOT
BRANCH   1   2
ATOM      2  C   UNL d   1     -41.930-122.311 -51.251  0.00  0.00     0.137 A 
ATOM      3  C   UNL d   1     -42.205-122.629 -50.550  0.00  0.00     0.141 A 
ATOM      4  O   UNL d   1     -42.735-123.239 -50.391  0.00  0.00    -0.303 OA
ATOM      5  C   UNL d   1     -41.939-122.325 -49.834  0.00  0.00     0.110 A 
ATOM      6  C   UNL d   1     -42.792-123.307 -49.576  0.00  0.00     0.102 A 
ATOM      7  C   UNL d   1     -43.234-123.817 -49.089  0.00  0.00     0.025 A 
ATOM      8  C   UNL d   1     -42.303-122.746 -49.234  0.00  0.00     0.043 A 
ATOM      9  C   UNL d   1     -43.180-123.757 -48.274  0.00  0.00     0.002 A 
ATOM     10  C   UNL d   1     -42.690-123.196 -47.933  0.00  0.00     0.000 A 
ATOM     11  C   UNL d   1     -42.250-122.688 -48.410  0.00  0.00     0.004 A 
ATOM     12  N   UNL d   1     -41.400-121.706 -49.820  0.00  0.00    -0.222 NA
ATOM     13  C   UNL d   1     -41.126-121.389 -50.520  0.00  0.00     0.200 A 
ATOM     14  N   UNL d   1     -41.385-121.684 -51.244  0.00  0.00    -0.215 NA
ENDBRANCH   1   2
BRANCH   1  15
ATOM     15  C   UNL d   1     -41.743-122.500 -52.645  0.00  0.00     0.098 C 
BRANCH  15  16
ATOM     16  C   UNL d   1     -41.436-123.152 -53.058  0.00  0.00     0.271 C 
ATOM     17  N   UNL d   1     -41.438-123.161 -53.887  0.00  0.00    -0.273 N 
ATOM     18  C   UNL d   1     -41.744-122.527 -54.304  0.00  0.00     0.067 A 
ATOM     19  C   UNL d   1     -41.129-123.816 -54.299  0.00  0.00     0.083 A 
ATOM     20  C   UNL d   1     -41.748-122.532 -55.130  0.00  0.00     0.016 A 
ATOM     21  C   UNL d   1     -42.050-121.878 -53.895  0.00  0.00     0.018 A 
ATOM     22  C   UNL d   1     -42.057-121.891 -55.560  0.00  0.00     0.001 A 
ATOM     23  C   UNL d   1     -41.442-123.181 -55.539  0.00  0.00     0.003 A 
ATOM     24  C   UNL d   1     -42.363-121.244 -55.140  0.00  0.00     0.000 A 
ATOM     25  C   UNL d   1     -42.361-121.235 -54.316  0.00  0.00     0.002 A 
ATOM     26  C   UNL d   1     -41.135-123.817 -55.126  0.00  0.00     0.019 A 
ATOM     27  O   UNL d   1     -41.126-123.794 -52.637  0.00  0.00    -0.266 OA
ENDBRANCH  15  16
ENDBRANCH   1  15
TORSDOF 3
ENDMDL
