MODEL 1
REMARK VINA RESULT:      -2.9      0.000      0.000
REMARK  5 active torsions:
REMARK  status: ('A' for Active; 'I' for Inactive)
REMARK    1  A    between atoms: C_2  and  C_1 
REMARK    2  A    between atoms: C_6  and  C_2 
REMARK    3  A    between atoms: C_3  and  O_5 
REMARK    4  A    between atoms: C_11  and  C_3 
REMARK    5  A    between atoms: O_5  and  C_6 
ROOT
ATOM      1  O   UNL d   1     -42.198-122.860 -50.457  0.00  0.00    -0.268 OA
ENDROOT
BRANCH   1   2
ATOM      2  C   UNL d   1     -41.603-123.114 -50.977  0.00  0.00     0.300 C 
ATOM      3  O   UNL d   1     -41.123-123.731 -50.757  0.00  0.00    -0.259 OA
BRANCH   2   4
ATOM      4  C   UNL d   1     -41.499-122.749 -51.702  0.00  0.00     0.064 A 
ATOM      5  C   UNL d   1     -41.226-121.980 -51.745  0.00  0.00     0.005 A 
ATOM      6  C   UNL d   1     -41.123-121.618 -52.469  0.00  0.00     0.000 A 
ATOM      7  C   UNL d   1     -41.292-122.021 -53.160  0.00  0.00     0.000 A 
ATOM      8  C   UNL d   1     -41.568-122.797 -53.123  0.00  0.00     0.000 A 
ATOM      9  C   UNL d   1     -41.673-123.166 -52.394  0.00  0.00     0.005 A 
ENDBRANCH   2   4
ENDBRANCH   1   2
BRANCH   1  10
ATOM     10  C   UNL d   1     -42.277-123.237 -49.712  0.00  0.00     0.168 C 
BRANCH  10  11
ATOM     11  C   UNL d   1     -42.648-122.864 -49.084  0.00  0.00     0.226 C 
ATOM     12  O   UNL d   1     -43.164-122.229 -49.193  0.00  0.00    -0.284 OA
BRANCH  11  13
ATOM     13  C   UNL d   1     -42.480-123.161 -48.290  0.00  0.00     0.070 A 
ATOM     14  S   UNL d   1     -42.995-123.652 -47.811  0.00  0.00    -0.083 SA
ATOM     15  C   UNL d   1     -42.597-123.812 -47.059  0.00  0.00     0.035 A 
ATOM     16  C   UNL d   1     -41.829-123.416 -47.074  0.00  0.00     0.008 A 
ATOM     17  C   UNL d   1     -41.753-123.012 -47.832  0.00  0.00     0.010 A 
ENDBRANCH  11  13
ENDBRANCH  10  11
ENDBRANCH   1  10
TORSDOF 5
ENDMDL
MODEL 2
REMARK VINA RESULT:      -2.8      2.385      4.878
REMARK  5 active torsions:
REMARK  status: ('A' for Active; 'I' for Inactive)
REMARK    1  A    between atoms: C_2  and  C_1 
REMARK    2  A    between atoms: C_6  and  C_2 
REMARK    3  A    between atoms: C_3  and  O_5 
REMARK    4  A    between atoms: C_11  and  C_3 
REMARK    5  A    between atoms: O_5  and  C_6 
ROOT
ATOM      1  O   UNL d   1     -41.870-122.286 -52.318  0.00  0.00    -0.268 OA
ENDROOT
BRANCH   1   2
ATOM      2  C   UNL d   1     -41.596-121.890 -51.642  0.00  0.00     0.300 C 
ATOM      3  O   UNL d   1     -41.225-121.172 -51.728  0.00  0.00    -0.259 OA
BRANCH   2   4
ATOM      4  C   UNL d   1     -41.698-122.215 -50.897  0.00  0.00     0.064 A 
ATOM      5  C   UNL d   1     -41.188-122.792 -50.623  0.00  0.00     0.005 A 
ATOM      6  C   UNL d   1     -41.291-123.114 -49.880  0.00  0.00     0.000 A 
ATOM      7  C   UNL d   1     -41.905-122.864 -49.403  0.00  0.00     0.000 A 
ATOM      8  C   UNL d   1     -42.422-122.283 -49.675  0.00  0.00     0.000 A 
ATOM      9  C   UNL d   1     -42.322-121.954 -50.423  0.00  0.00     0.005 A 
ENDBRANCH   2   4
ENDBRANCH   1   2
BRANCH   1  10
ATOM     10  C   UNL d   1     -41.339-122.426 -52.951  0.00  0.00     0.168 C 
BRANCH  10  11
ATOM     11  C   UNL d   1     -41.540-122.919 -53.573  0.00  0.00     0.226 C 
ATOM     12  O   UNL d   1     -41.546-123.741 -53.498  0.00  0.00    -0.284 OA
BRANCH  11  13
ATOM     13  C   UNL d   1     -41.750-122.547 -54.325  0.00  0.00     0.070 A 
ATOM     14  S   UNL d   1     -41.219-122.118 -54.846  0.00  0.00    -0.083 SA
ATOM     15  C   UNL d   1     -41.672-121.844 -55.530  0.00  0.00     0.035 A 
ATOM     16  C   UNL d   1     -42.490-122.105 -55.432  0.00  0.00     0.008 A 
ATOM     17  C   UNL d   1     -42.542-122.540 -54.688  0.00  0.00     0.010 A 
ENDBRANCH  11  13
ENDBRANCH  10  11
ENDBRANCH   1  10
TORSDOF 5
ENDMDL
MODEL 3
REMARK VINA RESULT:      -0.7      2.013      3.098
REMARK  5 active torsions:
REMARK  status: ('A' for Active; 'I' for Inactive)
REMARK    1  A    between atoms: C_2  and  C_1 
REMARK    2  A    between atoms: C_6  and  C_2 
REMARK    3  A    between atoms: C_3  and  O_5 
REMARK    4  A    between atoms: C_11  and  C_3 
REMARK    5  A    between atoms: O_5  and  C_6 
ROOT
ATOM      1  O   UNL d   1     -41.856-121.857 -53.180  0.00  0.00    -0.268 OA
ENDROOT
BRANCH   1   2
ATOM      2  C   UNL d   1     -42.285-122.122 -53.840  0.00  0.00     0.300 C 
ATOM      3  O   UNL d   1     -43.095-122.052 -53.839  0.00  0.00    -0.259 OA
BRANCH   2   4
ATOM      4  C   UNL d   1     -41.900-122.450 -54.484  0.00  0.00     0.064 A 
ATOM      5  C   UNL d   1     -41.526-121.972 -55.032  0.00  0.00     0.005 A 
ATOM      6  C   UNL d   1     -41.143-122.301 -55.673  0.00  0.00     0.000 A 
ATOM      7  C   UNL d   1     -41.130-123.112 -55.775  0.00  0.00     0.000 A 
ATOM      8  C   UNL d   1     -41.506-123.598 -55.226  0.00  0.00     0.000 A 
ATOM      9  C   UNL d   1     -41.894-123.271 -54.578  0.00  0.00     0.005 A 
ENDBRANCH   2   4
ENDBRANCH   1   2
BRANCH   1  10
ATOM     10  C   UNL d   1     -41.948-122.254 -52.448  0.00  0.00     0.168 C 
BRANCH  10  11
ATOM     11  C   UNL d   1     -41.526-122.025 -51.785  0.00  0.00     0.226 C 
ATOM     12  O   UNL d   1     -41.131-121.302 -51.743  0.00  0.00    -0.284 OA
BRANCH  11  13
ATOM     13  C   UNL d   1     -41.505-122.575 -51.118  0.00  0.00     0.070 A 
ATOM     14  S   UNL d   1     -41.294-122.384 -50.308  0.00  0.00    -0.083 SA
ATOM     15  C   UNL d   1     -41.352-123.106 -49.834  0.00  0.00     0.035 A 
ATOM     16  C   UNL d   1     -41.601-123.749 -50.356  0.00  0.00     0.008 A 
ATOM     17  C   UNL d   1     -41.697-123.424 -51.149  0.00  0.00     0.010 A 
ENDBRANCH  11  13
ENDBRANCH  10  11
ENDBRANCH   1  10
TORSDOF 5
ENDMDL
MODEL 4
REMARK VINA RESULT:      -0.3      1.803      2.685
REMARK  5 active torsions:
REMARK  status: ('A' for Active; 'I' for Inactive)
REMARK    1  A    between atoms: C_2  and  C_1 
REMARK    2  A    between atoms: C_6  and  C_2 
REMARK    3  A    between atoms: C_3  and  O_5 
REMARK    4  A    between atoms: C_11  and  C_3 
REMARK    5  A    between atoms: O_5  and  C_6 
ROOT
ATOM      1  O   UNL d   1     -42.444-122.600 -52.938  0.00  0.00    -0.268 OA
ENDROOT
BRANCH   1   2
ATOM      2  C   UNL d   1     -41.838-122.706 -53.494  0.00  0.00     0.300 C 
ATOM      3  O   UNL d   1     -41.125-123.010 -53.249  0.00  0.00    -0.259 OA
BRANCH   2   4
ATOM      4  C   UNL d   1     -41.954-122.510 -54.281  0.00  0.00     0.064 A 
ATOM      5  C   UNL d   1     -41.625-122.965 -54.875  0.00  0.00     0.005 A 
ATOM      6  C   UNL d   1     -41.742-122.767 -55.658  0.00  0.00     0.000 A 
ATOM      7  C   UNL d   1     -42.188-122.111 -55.857  0.00  0.00     0.000 A 
ATOM      8  C   UNL d   1     -42.521-121.649 -55.261  0.00  0.00     0.000 A 
ATOM      9  C   UNL d   1     -42.406-121.845 -54.470  0.00  0.00     0.005 A 
ENDBRANCH   2   4
ENDBRANCH   1   2
BRANCH   1  10
ATOM     10  C   UNL d   1     -42.331-122.874 -52.154  0.00  0.00     0.168 C 
BRANCH  10  11
ATOM     11  C   UNL d   1     -42.682-122.498 -51.517  0.00  0.00     0.226 C 
ATOM     12  O   UNL d   1     -43.091-121.786 -51.598  0.00  0.00    -0.284 OA
BRANCH  11  13
ATOM     13  C   UNL d   1     -42.611-122.876 -50.743  0.00  0.00     0.070 A 
ATOM     14  S   UNL d   1     -42.880-122.557 -49.993  0.00  0.00    -0.083 SA
ATOM     15  C   UNL d   1     -42.691-123.127 -49.370  0.00  0.00     0.035 A 
ATOM     16  C   UNL d   1     -42.302-123.806 -49.738  0.00  0.00     0.008 A 
ATOM     17  C   UNL d   1     -42.250-123.654 -50.586  0.00  0.00     0.010 A 
ENDBRANCH  11  13
ENDBRANCH  10  11
ENDBRANCH   1  10
TORSDOF 5
ENDMDL
