MODEL 1
REMARK VINA RESULT:     127.7      0.000      0.000
REMARK  6 active torsions:
REMARK  status: ('A' for Active; 'I' for Inactive)
REMARK    1  A    between atoms: N_15  and  C_1 
REMARK    2  A    between atoms: C_21  and  N_6 
REMARK    3  A    between atoms: C_16  and  C_8 
REMARK    4  A    between atoms: C_9  and  S_17 
REMARK       I    between atoms: C_20  and  N_15 
REMARK    5  A    between atoms: S_17  and  C_23 
REMARK    6  A    between atoms: C_23  and  C_20 
ROOT
ATOM      1  C   UNL d   1      60.755  48.414  49.532  0.00  0.00     0.099 C 
ENDROOT
BRANCH   1   2
ATOM      2  S   UNL d   1      60.643  49.098  50.084  0.00  0.00    -0.064 SA
BRANCH   2   3
ATOM      3  C   UNL d   1      60.127  49.255  50.752  0.00  0.00     0.096 A 
ATOM      4  N   UNL d   1      59.320  49.362  50.625  0.00  0.00    -0.285 N 
ATOM      5  C   UNL d   1      58.814  49.515  51.280  0.00  0.00     0.150 A 
ATOM      6  C   UNL d   1      58.179  49.429  49.740  0.00  0.00     0.084 A 
ATOM      7  N   UNL d   1      57.996  49.625  51.160  0.00  0.00    -0.227 NA
ATOM      8  C   UNL d   1      59.130  49.557  52.040  0.00  0.00     0.056 A 
ATOM      9  C   UNL d   1      57.673  49.583  50.394  0.00  0.00     0.099 A 
ATOM     10  C   UNL d   1      56.866  49.690  50.267  0.00  0.00     0.021 A 
ATOM     11  C   UNL d   1      56.550  49.648  49.506  0.00  0.00     0.002 A 
ATOM     12  C   UNL d   1      57.049  49.497  48.862  0.00  0.00     0.002 A 
ATOM     13  C   UNL d   1      57.863  49.387  48.978  0.00  0.00     0.019 A 
ATOM     14  C   UNL d   1      59.951  49.448  52.163  0.00  0.00     0.006 A 
ATOM     15  C   UNL d   1      60.443  49.297  51.514  0.00  0.00     0.025 A 
ATOM     16  C   UNL d   1      60.261  49.490  52.918  0.00  0.00     0.000 C 
BRANCH   8  17
ATOM     17  C   UNL d   1      58.639  49.708  52.690  0.00  0.00     0.125 C 
ATOM     18  N   UNL d   1      57.832  49.545  52.599  0.00  0.00    -0.146 N 
ENDBRANCH   8  17
ENDBRANCH   2   3
ENDBRANCH   1   2
BRANCH   1  19
ATOM     19  C   UNL d   1      61.078  47.657  49.840  0.00  0.00     0.286 C 
ATOM     20  N   UNL d   1      60.593  46.921  49.789  0.00  0.00    -0.201 NA
ATOM     21  O   UNL d   1      61.883  47.627  50.202  0.00  0.00    -0.265 OA
BRANCH  20  22
ATOM     22  C   UNL d   1      60.913  46.155  50.098  0.00  0.00     0.160 A 
ATOM     23  C   UNL d   1      61.183  45.473  49.759  0.00  0.00     0.298 A 
ATOM     24  N   UNL d   1      61.442  44.868  50.232  0.00  0.00    -0.209 N 
ATOM     25  O   UNL d   1      61.192  45.397  48.963  0.00  0.00    -0.263 OA
ATOM     26  N   UNL d   1      61.434  44.940  51.029  0.00  0.00    -0.238 N 
ATOM     27  C   UNL d   1      61.163  45.626  51.367  0.00  0.00     0.104 A 
ATOM     28  C   UNL d   1      61.691  44.341  51.497  0.00  0.00     0.120 C 
ATOM     29  C   UNL d   1      61.069  45.913  52.193  0.00  0.00     0.022 C 
BRANCH  24  30
ATOM     30  C   UNL d   1      61.712  44.185  49.892  0.00  0.00     0.085 A 
ATOM     31  C   UNL d   1      62.229  43.719  50.295  0.00  0.00     0.019 A 
ATOM     32  C   UNL d   1      62.498  43.037  49.955  0.00  0.00     0.002 A 
ATOM     33  C   UNL d   1      62.243  42.831  49.215  0.00  0.00     0.000 A 
ATOM     34  C   UNL d   1      61.726  43.308  48.828  0.00  0.00     0.002 A 
ATOM     35  C   UNL d   1      61.462  43.984  49.168  0.00  0.00     0.019 A 
ENDBRANCH  24  30
ENDBRANCH  20  22
ENDBRANCH   1  19
TORSDOF 6
ENDMDL
