MODEL 1
REMARK VINA RESULT:      -4.7      0.000      0.000
REMARK  3 active torsions:
REMARK  status: ('A' for Active; 'I' for Inactive)
REMARK    1  A    between atoms: C_8  and  C_3 
REMARK    2  A    between atoms: O_18  and  C_12 
REMARK    3  A    between atoms: O_19  and  C_13 
ROOT
ATOM      1  S   UNL d   1     -41.588-123.148 -51.747  0.00  0.00     0.211 S 
ATOM      2  C   UNL d   1     -41.452-123.057 -52.606  0.00  0.00     0.103 A 
ATOM      3  C   UNL d   1     -41.567-122.542 -51.147  0.00  0.00     0.093 A 
ATOM      4  N   UNL d   1     -41.208-121.705 -52.671  0.00  0.00    -0.321 N 
ATOM      5  C   UNL d   1     -41.273-121.435 -51.877  0.00  0.00     0.258 A 
ATOM      6  C   UNL d   1     -41.277-122.355 -52.988  0.00  0.00     0.070 A 
ATOM      7  C   UNL d   1     -41.414-121.751 -51.259  0.00  0.00     0.072 A 
ATOM      8  O   UNL d   1     -41.763-123.765 -51.255  0.00  0.00    -0.217 OA
ATOM      9  O   UNL d   1     -41.616-123.786 -52.332  0.00  0.00    -0.217 OA
ATOM     10  O   UNL d   1     -41.128-120.530 -51.791  0.00  0.00    -0.267 OA
ATOM     11  C   UNL d   1     -41.513-123.757 -53.030  0.00  0.00     0.013 A 
ATOM     12  C   UNL d   1     -41.163-122.349 -53.795  0.00  0.00     0.018 A 
ATOM     13  C   UNL d   1     -41.398-123.756 -53.851  0.00  0.00     0.001 A 
ATOM     14  C   UNL d   1     -41.222-123.040 -54.222  0.00  0.00     0.002 A 
ATOM     15  H   UNL d   1     -41.029-121.094 -53.199  0.00  0.00     0.169 HD
ENDROOT
BRANCH   3  16
ATOM     16  C   UNL d   1     -41.718-122.784 -50.367  0.00  0.00     0.013 A 
ATOM     17  C   UNL d   1     -42.449-122.623 -50.016  0.00  0.00     0.027 A 
ATOM     18  C   UNL d   1     -42.591-122.867 -49.240  0.00  0.00     0.116 A 
ATOM     19  C   UNL d   1     -42.019-123.264 -48.821  0.00  0.00     0.116 A 
ATOM     20  C   UNL d   1     -41.281-123.430 -49.168  0.00  0.00     0.026 A 
ATOM     21  C   UNL d   1     -41.127-123.190 -49.944  0.00  0.00     0.003 A 
BRANCH  18  22
ATOM     22  O   UNL d   1     -43.324-122.706 -48.888  0.00  0.00    -0.326 OA
ATOM     23  C   UNL d   1     -43.862-122.200 -49.253  0.00  0.00     0.181 C 
ENDBRANCH  18  22
BRANCH  19  24
ATOM     24  O   UNL d   1     -42.167-123.508 -48.040  0.00  0.00    -0.326 OA
ATOM     25  C   UNL d   1     -41.555-123.783 -47.572  0.00  0.00     0.181 C 
ENDBRANCH  19  24
ENDBRANCH   3  16
TORSDOF 3
ENDMDL
MODEL 2
REMARK VINA RESULT:      -3.1      1.324      4.117
REMARK  3 active torsions:
REMARK  status: ('A' for Active; 'I' for Inactive)
REMARK    1  A    between atoms: C_8  and  C_3 
REMARK    2  A    between atoms: O_18  and  C_12 
REMARK    3  A    between atoms: O_19  and  C_13 
ROOT
ATOM      1  S   UNL d   1     -41.747-123.152 -49.755  0.00  0.00     0.211 S 
ATOM      2  C   UNL d   1     -41.897-123.138 -48.894  0.00  0.00     0.103 A 
ATOM      3  C   UNL d   1     -42.279-122.928 -50.382  0.00  0.00     0.093 A 
ATOM      4  N   UNL d   1     -43.188-122.666 -48.880  0.00  0.00    -0.321 N 
ATOM      5  C   UNL d   1     -43.386-122.556 -49.690  0.00  0.00     0.258 A 
ATOM      6  C   UNL d   1     -42.592-122.900 -48.535  0.00  0.00     0.070 A 
ATOM      7  C   UNL d   1     -43.040-122.654 -50.300  0.00  0.00     0.072 A 
ATOM      8  O   UNL d   1     -41.123-123.358 -50.226  0.00  0.00    -0.217 OA
ATOM      9  O   UNL d   1     -41.182-123.387 -49.141  0.00  0.00    -0.217 OA
ATOM     10  O   UNL d   1     -44.242-122.238 -49.811  0.00  0.00    -0.267 OA
ATOM     11  C   UNL d   1     -41.261-123.391 -48.440  0.00  0.00     0.013 A 
ATOM     12  C   UNL d   1     -42.657-122.915 -47.723  0.00  0.00     0.018 A 
ATOM     13  C   UNL d   1     -41.323-123.407 -47.613  0.00  0.00     0.001 A 
ATOM     14  C   UNL d   1     -42.031-123.165 -47.267  0.00  0.00     0.002 A 
ATOM     15  H   UNL d   1     -43.808-122.464 -48.371  0.00  0.00     0.169 HD
ENDROOT
BRANCH   3  16
ATOM     16  C   UNL d   1     -41.991-122.997 -51.158  0.00  0.00     0.013 A 
ATOM     17  C   UNL d   1     -41.758-122.323 -51.577  0.00  0.00     0.027 A 
ATOM     18  C   UNL d   1     -41.473-122.400 -52.348  0.00  0.00     0.116 A 
ATOM     19  C   UNL d   1     -41.420-123.132 -52.697  0.00  0.00     0.116 A 
ATOM     20  C   UNL d   1     -41.653-123.815 -52.282  0.00  0.00     0.026 A 
ATOM     21  C   UNL d   1     -41.940-123.750 -51.509  0.00  0.00     0.003 A 
BRANCH  18  22
ATOM     22  O   UNL d   1     -41.239-121.725 -52.767  0.00  0.00    -0.326 OA
ATOM     23  C   UNL d   1     -41.166-120.998 -52.385  0.00  0.00     0.181 C 
ENDBRANCH  18  22
BRANCH  19  24
ATOM     24  O   UNL d   1     -41.132-123.205 -53.474  0.00  0.00    -0.326 OA
ATOM     25  C   UNL d   1     -41.427-123.784 -53.969  0.00  0.00     0.181 C 
ENDBRANCH  19  24
ENDBRANCH   3  16
TORSDOF 3
ENDMDL
MODEL 3
REMARK VINA RESULT:      -1.9      1.266      4.030
REMARK  3 active torsions:
REMARK  status: ('A' for Active; 'I' for Inactive)
REMARK    1  A    between atoms: C_8  and  C_3 
REMARK    2  A    between atoms: O_18  and  C_12 
REMARK    3  A    between atoms: O_19  and  C_13 
ROOT
ATOM      1  S   UNL d   1     -41.830-123.028 -51.472  0.00  0.00     0.211 S 
ATOM      2  C   UNL d   1     -41.910-123.000 -50.603  0.00  0.00     0.103 A 
ATOM      3  C   UNL d   1     -41.592-122.399 -51.997  0.00  0.00     0.093 A 
ATOM      4  N   UNL d   1     -41.551-121.694 -50.368  0.00  0.00    -0.321 N 
ATOM      5  C   UNL d   1     -41.380-121.377 -51.128  0.00  0.00     0.258 A 
ATOM      6  C   UNL d   1     -41.766-122.347 -50.132  0.00  0.00     0.070 A 
ATOM      7  C   UNL d   1     -41.391-121.639 -51.785  0.00  0.00     0.072 A 
ATOM      8  O   UNL d   1     -41.938-123.592 -52.042  0.00  0.00    -0.217 OA
ATOM      9  O   UNL d   1     -42.075-123.688 -50.968  0.00  0.00    -0.217 OA
ATOM     10  O   UNL d   1     -41.124-120.493 -51.100  0.00  0.00    -0.267 OA
ATOM     11  C   UNL d   1     -42.152-123.709 -50.266  0.00  0.00     0.013 A 
ATOM     12  C   UNL d   1     -41.863-122.398 -49.325  0.00  0.00     0.018 A 
ATOM     13  C   UNL d   1     -42.252-123.766 -49.446  0.00  0.00     0.001 A 
ATOM     14  C   UNL d   1     -42.103-123.098 -48.984  0.00  0.00     0.002 A 
ATOM     15  H   UNL d   1     -41.449-121.139 -49.762  0.00  0.00     0.169 HD
ENDROOT
BRANCH   3  16
ATOM     16  C   UNL d   1     -41.563-122.579 -52.807  0.00  0.00     0.013 A 
ATOM     17  C   UNL d   1     -41.877-122.052 -53.362  0.00  0.00     0.027 A 
ATOM     18  C   UNL d   1     -41.844-122.239 -54.165  0.00  0.00     0.116 A 
ATOM     19  C   UNL d   1     -41.505-122.934 -54.414  0.00  0.00     0.116 A 
ATOM     20  C   UNL d   1     -41.187-123.469 -53.861  0.00  0.00     0.026 A 
ATOM     21  C   UNL d   1     -41.215-123.293 -53.053  0.00  0.00     0.003 A 
BRANCH  18  22
ATOM     22  O   UNL d   1     -42.158-121.711 -54.721  0.00  0.00    -0.326 OA
ATOM     23  C   UNL d   1     -42.974-121.640 -54.818  0.00  0.00     0.181 C 
ENDBRANCH  18  22
BRANCH  19  24
ATOM     24  O   UNL d   1     -41.474-123.118 -55.224  0.00  0.00    -0.326 OA
ATOM     25  C   UNL d   1     -41.126-123.813 -55.475  0.00  0.00     0.181 C 
ENDBRANCH  19  24
ENDBRANCH   3  16
TORSDOF 3
ENDMDL
