MODEL 1
REMARK VINA RESULT:      35.7      0.000      0.000
REMARK  0 active torsions:
REMARK  status: ('A' for Active; 'I' for Inactive)
ROOT
ATOM      1  C   UNL d   1      14.609  14.288  -1.839  0.00  0.00     0.191 A 
ATOM      2  S   UNL d   1      15.286  14.860  -0.698  0.00  0.00     0.289 S 
ATOM      3  N   UNL d   1      14.947  14.941  -1.457  0.00  0.00    -0.134 NA
ATOM      4  N   UNL d   1      14.611  13.556  -1.456  0.00  0.00    -0.284 N 
ATOM      5  S   UNL d   1      14.247  14.194  -2.557  0.00  0.00    -0.048 SA
ATOM      6  C   UNL d   1      14.022  13.409  -2.629  0.00  0.00     0.048 A 
ATOM      7  C   UNL d   1      14.250  13.013  -1.942  0.00  0.00     0.072 A 
ATOM      8  C   UNL d   1      15.283  14.122  -0.324  0.00  0.00     0.137 A 
ATOM      9  C   UNL d   1      13.639  12.988  -3.223  0.00  0.00     0.007 A 
ATOM     10  C   UNL d   1      14.950  13.470  -0.695  0.00  0.00     0.096 A 
ATOM     11  O   UNL d   1      15.375  15.646  -0.914  0.00  0.00    -0.198 OA
ATOM     12  O   UNL d   1      15.658  15.064  -0.014  0.00  0.00    -0.198 OA
ATOM     13  C   UNL d   1      14.080  12.168  -1.866  0.00  0.00     0.018 A 
ATOM     14  C   UNL d   1      13.476  12.175  -3.150  0.00  0.00     0.001 A 
ATOM     15  C   UNL d   1      13.694  11.779  -2.484  0.00  0.00     0.002 A 
ATOM     16  C   UNL d   1      13.416  13.416  -3.918  0.00  0.00     0.001 A 
ATOM     17  C   UNL d   1      13.088  11.786  -3.772  0.00  0.00     0.000 A 
ATOM     18  C   UNL d   1      13.030  13.027  -4.534  0.00  0.00     0.000 A 
ATOM     19  C   UNL d   1      12.860  12.182  -4.459  0.00  0.00     0.000 A 
ENDROOT
TORSDOF 0
ENDMDL
MODEL 2
REMARK VINA RESULT:      36.8      2.408      3.750
REMARK  0 active torsions:
REMARK  status: ('A' for Active; 'I' for Inactive)
ROOT
ATOM      1  C   UNL d   1      13.964  12.599  -3.635  0.00  0.00     0.191 A 
ATOM      2  S   UNL d   1      13.351  12.326  -4.915  0.00  0.00     0.289 S 
ATOM      3  N   UNL d   1      13.950  12.689  -4.458  0.00  0.00    -0.134 NA
ATOM      4  N   UNL d   1      13.377  12.145  -3.273  0.00  0.00    -0.284 N 
ATOM      5  S   UNL d   1      14.460  12.875  -3.057  0.00  0.00    -0.048 SA
ATOM      6  C   UNL d   1      14.189  12.599  -2.335  0.00  0.00     0.048 A 
ATOM      7  C   UNL d   1      13.514  12.144  -2.471  0.00  0.00     0.072 A 
ATOM      8  C   UNL d   1      12.769  11.874  -4.541  0.00  0.00     0.137 A 
ATOM      9  C   UNL d   1      14.457  12.692  -1.563  0.00  0.00     0.007 A 
ATOM     10  C   UNL d   1      12.775  11.779  -3.726  0.00  0.00     0.096 A 
ATOM     11  O   UNL d   1      13.837  12.729  -5.439  0.00  0.00    -0.198 OA
ATOM     12  O   UNL d   1      12.927  12.108  -5.563  0.00  0.00    -0.198 OA
ATOM     13  C   UNL d   1      13.109  11.779  -1.799  0.00  0.00     0.018 A 
ATOM     14  C   UNL d   1      14.067  12.341  -0.916  0.00  0.00     0.001 A 
ATOM     15  C   UNL d   1      13.408  11.895  -1.039  0.00  0.00     0.002 A 
ATOM     16  C   UNL d   1      15.151  13.163  -1.449  0.00  0.00     0.001 A 
ATOM     17  C   UNL d   1      14.369  12.460  -0.153  0.00  0.00     0.000 A 
ATOM     18  C   UNL d   1      15.448  13.279  -0.689  0.00  0.00     0.000 A 
ATOM     19  C   UNL d   1      15.043  12.915  -0.017  0.00  0.00     0.000 A 
ENDROOT
TORSDOF 0
ENDMDL
