MODEL 1
REMARK VINA RESULT:      -7.7      0.000      0.000
REMARK  5 active torsions:
REMARK  status: ('A' for Active; 'I' for Inactive)
REMARK    1  A    between atoms: N_6  and  C_1 
REMARK    2  A    between atoms: C_11  and  N_2 
REMARK    3  A    between atoms: S_3  and  C_10 
REMARK    4  A    between atoms: N_8  and  S_3 
REMARK       I    between atoms: C_9  and  N_6 
REMARK    5  A    between atoms: C_15  and  C_9 
ROOT
ATOM      1  N   UNL d   1     -48.804  13.328  22.876  0.00  0.00    -0.189 NA
ATOM      2  C   UNL d   1     -48.078  13.477  22.610  0.00  0.00     0.281 C 
ATOM      3  O   UNL d   1     -48.009  14.164  22.165  0.00  0.00    -0.265 OA
ENDROOT
BRANCH   2   4
ATOM      4  C   UNL d   1     -47.416  12.993  22.757  0.00  0.00     0.058 A 
ATOM      5  C   UNL d   1     -47.386  12.552  23.348  0.00  0.00     0.005 A 
ATOM      6  C   UNL d   1     -46.767  12.093  23.494  0.00  0.00     0.013 A 
ATOM      7  C   UNL d   1     -46.129  12.112  22.957  0.00  0.00     0.104 A 
ATOM      8  C   UNL d   1     -46.224  12.595  22.359  0.00  0.00     0.013 A 
ATOM      9  C   UNL d   1     -46.851  13.049  22.227  0.00  0.00     0.005 A 
BRANCH   7  10
ATOM     10  S   UNL d   1     -45.463  11.621  23.109  0.00  0.00     0.271 S 
ATOM     11  O   UNL d   1     -45.916  11.024  23.329  0.00  0.00    -0.200 OA
ATOM     12  O   UNL d   1     -44.951  12.264  22.872  0.00  0.00    -0.200 OA
BRANCH  10  13
ATOM     13  N   UNL d   1     -44.860  11.096  23.275  0.00  0.00    -0.229 N 
ATOM     14  C   UNL d   1     -44.084  11.216  23.074  0.00  0.00     0.092 A 
ATOM     15  C   UNL d   1     -43.665  10.530  23.356  0.00  0.00     0.021 A 
ATOM     16  C   UNL d   1     -44.170  10.046  23.698  0.00  0.00     0.021 A 
ATOM     17  C   UNL d   1     -44.921  10.370  23.663  0.00  0.00     0.092 A 
ENDBRANCH  10  13
ENDBRANCH   7  10
ENDBRANCH   2   4
BRANCH   1  18
ATOM     18  C   UNL d   1     -49.507  13.740  22.784  0.00  0.00     0.165 A 
ATOM     19  N   UNL d   1     -50.207  13.624  22.436  0.00  0.00    -0.238 N 
ATOM     20  N   UNL d   1     -50.727  14.184  22.493  0.00  0.00    -0.168 NA
ATOM     21  C   UNL d   1     -50.361  14.770  22.932  0.00  0.00     0.111 A 
ATOM     22  C   UNL d   1     -49.609  14.517  23.122  0.00  0.00     0.062 A 
ATOM     23  C   UNL d   1     -50.437  15.537  23.276  0.00  0.00     0.056 A 
ATOM     24  C   UNL d   1     -49.213  15.112  23.578  0.00  0.00     0.040 A 
ATOM     25  S   UNL d   1     -49.746  15.753  23.670  0.00  0.00    -0.084 SA
BRANCH  19  26
ATOM     26  C   UNL d   1     -50.421  12.937  22.010  0.00  0.00     0.088 C 
ATOM     27  C   UNL d   1     -50.225  13.311  21.275  0.00  0.00     0.025 C 
ATOM     28  C   UNL d   1     -50.624  12.546  22.754  0.00  0.00     0.025 C 
ATOM     29  C   UNL d   1     -50.653  12.203  21.595  0.00  0.00     0.025 C 
ENDBRANCH  19  26
ENDBRANCH   1  18
TORSDOF 5
ENDMDL
