MODEL 1
REMARK VINA RESULT:      39.7      0.000      0.000
REMARK  8 active torsions:
REMARK  status: ('A' for Active; 'I' for Inactive)
REMARK    1  A    between atoms: C_9  and  C_2 
REMARK    2  A    between atoms: S_7  and  C_4 
REMARK    3  A    between atoms: C_6  and  C_13 
REMARK       I    between atoms: N_10  and  C_6 
REMARK    4  A    between atoms: C_13  and  S_7 
REMARK    5  A    between atoms: C_8  and  C_14 
REMARK    6  A    between atoms: O_15  and  C_8 
REMARK    7  A    between atoms: C_14  and  N_10 
REMARK    8  A    between atoms: C_18  and  O_15 
ROOT
ATOM      1  N   UNL d   1      58.999  49.691  50.437  0.00  0.00    -0.212 NA
ATOM      2  C   UNL d   1      58.239  49.662  50.739  0.00  0.00     0.171 A 
ATOM      3  N   UNL d   1      58.290  49.624  51.564  0.00  0.00    -0.188 NA
ATOM      4  C   UNL d   1      59.533  49.672  51.065  0.00  0.00     0.160 A 
ATOM      5  S   UNL d   1      59.090  49.631  51.765  0.00  0.00     0.041 SA
ENDROOT
BRANCH   4   6
ATOM      6  S   UNL d   1      60.357  49.691  51.015  0.00  0.00    -0.054 SA
BRANCH   6   7
ATOM      7  C   UNL d   1      60.749  49.172  50.521  0.00  0.00     0.100 C 
BRANCH   7   8
ATOM      8  C   UNL d   1      61.061  48.461  50.815  0.00  0.00     0.286 C 
ATOM      9  N   UNL d   1      61.222  47.840  50.299  0.00  0.00    -0.200 NA
ATOM     10  O   UNL d   1      61.205  48.387  51.621  0.00  0.00    -0.265 OA
BRANCH   9  11
ATOM     11  C   UNL d   1      61.532  47.138  50.600  0.00  0.00     0.171 C 
BRANCH  11  12
ATOM     12  C   UNL d   1      61.213  46.413  50.344  0.00  0.00     0.320 C 
ATOM     13  O   UNL d   1      61.197  46.228  49.538  0.00  0.00    -0.257 OA
BRANCH  12  14
ATOM     14  O   UNL d   1      60.913  45.881  50.907  0.00  0.00    -0.270 OA
BRANCH  14  15
ATOM     15  C   UNL d   1      61.400  45.264  51.182  0.00  0.00     0.126 C 
ATOM     16  C   UNL d   1      61.083  44.520  51.296  0.00  0.00     0.029 C 
ENDBRANCH  14  15
ENDBRANCH  12  14
ENDBRANCH  11  12
ENDBRANCH   9  11
ENDBRANCH   7   8
ENDBRANCH   6   7
ENDBRANCH   4   6
BRANCH   2  17
ATOM     17  C   UNL d   1      57.537  49.668  50.305  0.00  0.00     0.036 A 
ATOM     18  C   UNL d   1      56.797  49.702  50.686  0.00  0.00     0.003 A 
ATOM     19  C   UNL d   1      56.107  49.708  50.254  0.00  0.00     0.000 A 
ATOM     20  C   UNL d   1      56.140  49.680  49.434  0.00  0.00     0.000 A 
ATOM     21  C   UNL d   1      56.873  49.646  49.048  0.00  0.00     0.000 A 
ATOM     22  C   UNL d   1      57.561  49.641  49.491  0.00  0.00     0.003 A 
ENDBRANCH   2  17
TORSDOF 8
ENDMDL
