MODEL 1
REMARK VINA RESULT:      -3.7      0.000      0.000
REMARK  1 active torsions:
REMARK  status: ('A' for Active; 'I' for Inactive)
REMARK    1  A    between atoms: C_11  and  C_3 
ROOT
ATOM      1  C   UNL d   1      56.347   0.263  33.636  0.00  0.00     0.052 A 
ATOM      2  C   UNL d   1      55.568   0.139  33.914  0.00  0.00     0.115 A 
ATOM      3  C   UNL d   1      56.375   0.079  32.839  0.00  0.00     0.011 A 
ATOM      4  C   UNL d   1      56.953   0.542  34.181  0.00  0.00     0.139 A 
ATOM      5  N   UNL d   1      55.382   0.291  34.741  0.00  0.00    -0.217 NA
ATOM      6  S   UNL d   1      55.106  -0.123  33.291  0.00  0.00    -0.067 SA
ATOM      7  C   UNL d   1      55.611  -0.160  32.619  0.00  0.00     0.037 A 
ATOM      8  N   UNL d   1      56.755   0.682  34.970  0.00  0.00    -0.213 NA
ATOM      9  C   UNL d   1      55.946   0.553  35.258  0.00  0.00     0.200 A 
ATOM     10  S   UNL d   1      57.748   0.676  33.932  0.00  0.00    -0.057 SA
ENDROOT
BRANCH   3  11
ATOM     11  C   UNL d   1      56.762   0.008  32.147  0.00  0.00     0.001 A 
ATOM     12  C   UNL d   1      56.995  -0.725  31.850  0.00  0.00     0.000 A 
ATOM     13  C   UNL d   1      57.399  -0.786  31.126  0.00  0.00     0.000 A 
ATOM     14  C   UNL d   1      57.567  -0.099  30.702  0.00  0.00     0.000 A 
ATOM     15  C   UNL d   1      57.333   0.634  31.000  0.00  0.00     0.000 A 
ATOM     16  C   UNL d   1      56.932   0.681  31.721  0.00  0.00     0.000 A 
ENDBRANCH   3  11
TORSDOF 1
ENDMDL
MODEL 2
REMARK VINA RESULT:      -2.8      3.092      4.434
REMARK  1 active torsions:
REMARK  status: ('A' for Active; 'I' for Inactive)
REMARK    1  A    between atoms: C_11  and  C_3 
ROOT
ATOM      1  C   UNL d   1      59.062   0.262  29.963  0.00  0.00     0.052 A 
ATOM      2  C   UNL d   1      59.104   0.132  29.139  0.00  0.00     0.115 A 
ATOM      3  C   UNL d   1      58.306   0.083  30.219  0.00  0.00     0.011 A 
ATOM      4  C   UNL d   1      59.759   0.541  30.386  0.00  0.00     0.139 A 
ATOM      5  N   UNL d   1      59.844   0.278  28.722  0.00  0.00    -0.217 NA
ATOM      6  S   UNL d   1      58.374  -0.129  28.876  0.00  0.00    -0.067 SA
ATOM      7  C   UNL d   1      57.875  -0.160  29.552  0.00  0.00     0.037 A 
ATOM      8  N   UNL d   1      60.458   0.676  29.969  0.00  0.00    -0.213 NA
ATOM      9  C   UNL d   1      60.502   0.540  29.112  0.00  0.00     0.200 A 
ATOM     10  S   UNL d   1      59.748   0.682  31.217  0.00  0.00    -0.057 SA
ENDROOT
BRANCH   3  11
ATOM     11  C   UNL d   1      57.753   0.018  30.789  0.00  0.00     0.001 A 
ATOM     12  C   UNL d   1      57.402   0.681  31.135  0.00  0.00     0.000 A 
ATOM     13  C   UNL d   1      56.827   0.600  31.728  0.00  0.00     0.000 A 
ATOM     14  C   UNL d   1      56.606  -0.157  31.973  0.00  0.00     0.000 A 
ATOM     15  C   UNL d   1      56.957  -0.818  31.627  0.00  0.00     0.000 A 
ATOM     16  C   UNL d   1      57.529  -0.724  31.037  0.00  0.00     0.000 A 
ENDBRANCH   3  11
TORSDOF 1
ENDMDL
MODEL 3
REMARK VINA RESULT:      -2.6      1.893      2.968
REMARK  1 active torsions:
REMARK  status: ('A' for Active; 'I' for Inactive)
REMARK    1  A    between atoms: C_11  and  C_3 
ROOT
ATOM      1  C   UNL d   1      57.768   0.317  32.026  0.00  0.00     0.052 A 
ATOM      2  C   UNL d   1      57.906   0.261  31.204  0.00  0.00     0.115 A 
ATOM      3  C   UNL d   1      56.983   0.143  32.174  0.00  0.00     0.011 A 
ATOM      4  C   UNL d   1      58.416   0.532  32.552  0.00  0.00     0.139 A 
ATOM      5  N   UNL d   1      58.693   0.418  30.893  0.00  0.00    -0.217 NA
ATOM      6  S   UNL d   1      57.207   0.051  30.834  0.00  0.00    -0.067 SA
ATOM      7  C   UNL d   1      56.629  -0.023  31.441  0.00  0.00     0.037 A 
ATOM      8  N   UNL d   1      59.164   0.678  32.235  0.00  0.00    -0.213 NA
ATOM      9  C   UNL d   1      59.306   0.620  31.379  0.00  0.00     0.200 A 
ATOM     10  S   UNL d   1      58.309   0.597  33.386  0.00  0.00    -0.057 SA
ENDROOT
BRANCH   3  11
ATOM     11  C   UNL d   1      56.364   0.046  32.667  0.00  0.00     0.001 A 
ATOM     12  C   UNL d   1      56.204  -0.677  33.030  0.00  0.00     0.000 A 
ATOM     13  C   UNL d   1      55.556  -0.765  33.542  0.00  0.00     0.000 A 
ATOM     14  C   UNL d   1      55.068  -0.115  33.686  0.00  0.00     0.000 A 
ATOM     15  C   UNL d   1      55.228   0.607  33.322  0.00  0.00     0.000 A 
ATOM     16  C   UNL d   1      55.877   0.682  32.814  0.00  0.00     0.000 A 
ENDBRANCH   3  11
TORSDOF 1
ENDMDL
MODEL 4
REMARK VINA RESULT:      -2.5      4.795      5.848
REMARK  1 active torsions:
REMARK  status: ('A' for Active; 'I' for Inactive)
REMARK    1  A    between atoms: C_11  and  C_3 
ROOT
ATOM      1  C   UNL d   1      59.790  -2.342  28.982  0.00  0.00     0.052 A 
ATOM      2  C   UNL d   1      59.476  -3.105  28.846  0.00  0.00     0.115 A 
ATOM      3  C   UNL d   1      59.174  -1.804  29.004  0.00  0.00     0.011 A 
ATOM      4  C   UNL d   1      60.641  -2.243  29.071  0.00  0.00     0.139 A 
ATOM      5  N   UNL d   1      60.007  -3.781  28.797  0.00  0.00    -0.217 NA
ATOM      6  S   UNL d   1      58.662  -3.047  28.783  0.00  0.00    -0.067 SA
ATOM      7  C   UNL d   1      58.473  -2.232  28.882  0.00  0.00     0.037 A 
ATOM      8  N   UNL d   1      61.133  -2.902  29.021  0.00  0.00    -0.213 NA
ATOM      9  C   UNL d   1      60.807  -3.695  28.880  0.00  0.00     0.200 A 
ATOM     10  S   UNL d   1      60.988  -1.486  29.209  0.00  0.00    -0.057 SA
ENDROOT
BRANCH   3  11
ATOM     11  C   UNL d   1      58.888  -1.065  29.083  0.00  0.00     0.001 A 
ATOM     12  C   UNL d   1      58.880  -0.530  28.455  0.00  0.00     0.000 A 
ATOM     13  C   UNL d   1      58.579   0.239  28.551  0.00  0.00     0.000 A 
ATOM     14  C   UNL d   1      58.285   0.465  29.288  0.00  0.00     0.000 A 
ATOM     15  C   UNL d   1      58.294  -0.070  29.915  0.00  0.00     0.000 A 
ATOM     16  C   UNL d   1      58.596  -0.832  29.807  0.00  0.00     0.000 A 
ENDBRANCH   3  11
TORSDOF 1
ENDMDL
MODEL 5
REMARK VINA RESULT:      -2.4      0.818      1.081
REMARK  1 active torsions:
REMARK  status: ('A' for Active; 'I' for Inactive)
REMARK    1  A    between atoms: C_11  and  C_3 
ROOT
ATOM      1  C   UNL d   1      56.988   0.066  32.801  0.00  0.00     0.052 A 
ATOM      2  C   UNL d   1      56.243  -0.122  33.130  0.00  0.00     0.115 A 
ATOM      3  C   UNL d   1      57.010  -0.203  32.028  0.00  0.00     0.011 A 
ATOM      4  C   UNL d   1      57.572   0.478  33.280  0.00  0.00     0.139 A 
ATOM      5  N   UNL d   1      56.070   0.099  33.944  0.00  0.00    -0.217 NA
ATOM      6  S   UNL d   1      55.796  -0.509  32.564  0.00  0.00    -0.067 SA
ATOM      7  C   UNL d   1      56.276  -0.560  31.874  0.00  0.00     0.037 A 
ATOM      8  N   UNL d   1      57.388   0.682  34.058  0.00  0.00    -0.213 NA
ATOM      9  C   UNL d   1      56.613   0.486  34.400  0.00  0.00     0.200 A 
ATOM     10  S   UNL d   1      58.333   0.682  32.977  0.00  0.00    -0.057 SA
ENDROOT
BRANCH   3  11
ATOM     11  C   UNL d   1      57.377  -0.304  31.328  0.00  0.00     0.001 A 
ATOM     12  C   UNL d   1      57.614  -1.048  31.062  0.00  0.00     0.000 A 
ATOM     13  C   UNL d   1      57.996  -1.140  30.330  0.00  0.00     0.000 A 
ATOM     14  C   UNL d   1      58.138  -0.473  29.866  0.00  0.00     0.000 A 
ATOM     15  C   UNL d   1      57.901   0.271  30.133  0.00  0.00     0.000 A 
ATOM     16  C   UNL d   1      57.521   0.349  30.863  0.00  0.00     0.000 A 
ENDBRANCH   3  11
TORSDOF 1
ENDMDL
MODEL 6
REMARK VINA RESULT:      -2.2      5.374      6.227
REMARK  1 active torsions:
REMARK  status: ('A' for Active; 'I' for Inactive)
REMARK    1  A    between atoms: C_11  and  C_3 
ROOT
ATOM      1  C   UNL d   1      59.836  -2.255  28.956  0.00  0.00     0.052 A 
ATOM      2  C   UNL d   1      60.192  -2.975  28.725  0.00  0.00     0.115 A 
ATOM      3  C   UNL d   1      60.409  -1.671  28.971  0.00  0.00     0.011 A 
ATOM      4  C   UNL d   1      58.993  -2.234  29.130  0.00  0.00     0.139 A 
ATOM      5  N   UNL d   1      59.711  -3.687  28.664  0.00  0.00    -0.217 NA
ATOM      6  S   UNL d   1      60.990  -2.845  28.595  0.00  0.00    -0.067 SA
ATOM      7  C   UNL d   1      61.125  -2.028  28.749  0.00  0.00     0.037 A 
ATOM      8  N   UNL d   1      58.549  -2.927  29.065  0.00  0.00    -0.213 NA
ATOM      9  C   UNL d   1      58.919  -3.675  28.825  0.00  0.00     0.200 A 
ATOM     10  S   UNL d   1      58.605  -1.523  29.365  0.00  0.00    -0.057 SA
ENDROOT
BRANCH   3  11
ATOM     11  C   UNL d   1      60.645  -0.920  29.091  0.00  0.00     0.001 A 
ATOM     12  C   UNL d   1      60.890  -0.652  29.832  0.00  0.00     0.000 A 
ATOM     13  C   UNL d   1      61.133   0.135  29.944  0.00  0.00     0.000 A 
ATOM     14  C   UNL d   1      61.129   0.651  29.300  0.00  0.00     0.000 A 
ATOM     15  C   UNL d   1      60.884   0.382  28.560  0.00  0.00     0.000 A 
ATOM     16  C   UNL d   1      60.644  -0.403  28.462  0.00  0.00     0.000 A 
ENDBRANCH   3  11
TORSDOF 1
ENDMDL
MODEL 7
REMARK VINA RESULT:      -2.2      3.778      5.161
REMARK  1 active torsions:
REMARK  status: ('A' for Active; 'I' for Inactive)
REMARK    1  A    between atoms: C_11  and  C_3 
ROOT
ATOM      1  C   UNL d   1      58.735  -0.802  29.402  0.00  0.00     0.052 A 
ATOM      2  C   UNL d   1      58.968  -0.084  29.043  0.00  0.00     0.115 A 
ATOM      3  C   UNL d   1      59.135  -1.418  29.042  0.00  0.00     0.011 A 
ATOM      4  C   UNL d   1      58.158  -0.789  30.041  0.00  0.00     0.139 A 
ATOM      5  N   UNL d   1      58.628   0.659  29.317  0.00  0.00    -0.217 NA
ATOM      6  S   UNL d   1      59.515  -0.248  28.457  0.00  0.00    -0.067 SA
ATOM      7  C   UNL d   1      59.620  -1.083  28.457  0.00  0.00     0.037 A 
ATOM      8  N   UNL d   1      57.844  -0.068  30.290  0.00  0.00    -0.213 NA
ATOM      9  C   UNL d   1      58.086   0.678  29.917  0.00  0.00     0.200 A 
ATOM     10  S   UNL d   1      57.902  -1.497  30.423  0.00  0.00    -0.057 SA
ENDROOT
BRANCH   3  11
ATOM     11  C   UNL d   1      59.307  -2.191  28.958  0.00  0.00     0.001 A 
ATOM     12  C   UNL d   1      58.812  -2.706  28.546  0.00  0.00     0.000 A 
ATOM     13  C   UNL d   1      59.003  -3.511  28.465  0.00  0.00     0.000 A 
ATOM     14  C   UNL d   1      59.699  -3.794  28.805  0.00  0.00     0.000 A 
ATOM     15  C   UNL d   1      60.194  -3.278  29.217  0.00  0.00     0.000 A 
ATOM     16  C   UNL d   1      59.993  -2.479  29.290  0.00  0.00     0.000 A 
ENDBRANCH   3  11
TORSDOF 1
ENDMDL
MODEL 8
REMARK VINA RESULT:      -1.3      2.914      4.029
REMARK  1 active torsions:
REMARK  status: ('A' for Active; 'I' for Inactive)
REMARK    1  A    between atoms: C_11  and  C_3 
ROOT
ATOM      1  C   UNL d   1      58.265  -0.634  30.401  0.00  0.00     0.052 A 
ATOM      2  C   UNL d   1      57.897  -1.381  30.323  0.00  0.00     0.115 A 
ATOM      3  C   UNL d   1      58.870  -0.580  29.852  0.00  0.00     0.011 A 
ATOM      4  C   UNL d   1      57.979  -0.079  30.994  0.00  0.00     0.139 A 
ATOM      5  N   UNL d   1      57.238  -1.585  30.838  0.00  0.00    -0.217 NA
ATOM      6  S   UNL d   1      58.271  -1.797  29.726  0.00  0.00    -0.067 SA
ATOM      7  C   UNL d   1      58.879  -1.296  29.431  0.00  0.00     0.037 A 
ATOM      8  N   UNL d   1      57.346  -0.293  31.477  0.00  0.00    -0.213 NA
ATOM      9  C   UNL d   1      56.964  -1.069  31.397  0.00  0.00     0.200 A 
ATOM     10  S   UNL d   1      58.329   0.682  31.096  0.00  0.00    -0.057 SA
ENDROOT
BRANCH   3  11
ATOM     11  C   UNL d   1      59.469  -0.190  29.502  0.00  0.00     0.001 A 
ATOM     12  C   UNL d   1      60.243  -0.234  29.784  0.00  0.00     0.000 A 
ATOM     13  C   UNL d   1      60.860   0.177  29.410  0.00  0.00     0.000 A 
ATOM     14  C   UNL d   1      60.691   0.636  28.746  0.00  0.00     0.000 A 
ATOM     15  C   UNL d   1      59.917   0.680  28.464  0.00  0.00     0.000 A 
ATOM     16  C   UNL d   1      59.312   0.265  28.845  0.00  0.00     0.000 A 
ENDBRANCH   3  11
TORSDOF 1
ENDMDL
