MODEL 1
REMARK VINA RESULT:      29.5      0.000      0.000
REMARK  4 active torsions:
REMARK  status: ('A' for Active; 'I' for Inactive)
REMARK    1  A    between atoms: N_7  and  C_1 
REMARK    2  A    between atoms: C_8  and  C_2 
REMARK    3  A    between atoms: C_11  and  N_7 
REMARK    4  A    between atoms: C_19  and  C_12 
ROOT
ATOM      1  C   UNL d   1     -57.843 -98.773 -44.624  0.00  0.00     0.189 A 
ATOM      2  C   UNL d   1     -58.522 -98.781 -45.093  0.00  0.00     0.119 A 
ATOM      3  C   UNL d   1     -59.267 -98.797 -44.738  0.00  0.00     0.204 A 
ATOM      4  O   UNL d   1     -57.912 -98.781 -43.802  0.00  0.00    -0.289 OA
ATOM      5  C   UNL d   1     -59.331 -98.805 -43.922  0.00  0.00     0.067 A 
ATOM      6  C   UNL d   1     -58.653 -98.797 -43.453  0.00  0.00     0.105 A 
ATOM      7  O   UNL d   1     -59.948 -98.805 -45.209  0.00  0.00    -0.286 OA
ATOM      8  C   UNL d   1     -58.702 -98.806 -42.618  0.00  0.00     0.027 C 
ENDROOT
BRANCH   1   9
ATOM      9  N   UNL d   1     -57.069 -98.756 -44.982  0.00  0.00    -0.222 NA
BRANCH   9  10
ATOM     10  C   UNL d   1     -56.485 -99.279 -44.738  0.00  0.00     0.084 A 
ATOM     11  C   UNL d   1     -55.766 -98.994 -44.439  0.00  0.00     0.019 A 
ATOM     12  C   UNL d   1     -55.179 -99.519 -44.194  0.00  0.00     0.002 A 
ATOM     13  C   UNL d   1     -55.308-100.333 -44.246  0.00  0.00     0.000 A 
ATOM     14  C   UNL d   1     -56.017-100.617 -44.541  0.00  0.00     0.002 A 
ATOM     15  C   UNL d   1     -56.604-100.091 -44.787  0.00  0.00     0.019 A 
BRANCH  13  16
ATOM     16  C   UNL d   1     -54.719-100.861 -44.000  0.00  0.00     0.000 C 
ATOM     17  C   UNL d   1     -54.729-101.637 -44.260  0.00  0.00     0.000 C 
ENDBRANCH  13  16
ENDBRANCH   9  10
ENDBRANCH   1   9
BRANCH   2  18
ATOM     18  C   UNL d   1     -58.442 -98.772 -45.932  0.00  0.00     0.202 C 
ATOM     19  O   UNL d   1     -57.685 -98.775 -46.266  0.00  0.00    -0.286 OA
ATOM     20  C   UNL d   1     -59.104 -98.760 -46.414  0.00  0.00     0.046 C 
ENDBRANCH   2  18
TORSDOF 4
ENDMDL
MODEL 2
REMARK VINA RESULT:      30.5      0.649      1.781
REMARK  4 active torsions:
REMARK  status: ('A' for Active; 'I' for Inactive)
REMARK    1  A    between atoms: N_7  and  C_1 
REMARK    2  A    between atoms: C_8  and  C_2 
REMARK    3  A    between atoms: C_11  and  N_7 
REMARK    4  A    between atoms: C_19  and  C_12 
ROOT
ATOM      1  C   UNL d   1     -57.827 -98.770 -44.376  0.00  0.00     0.189 A 
ATOM      2  C   UNL d   1     -58.530 -98.777 -43.946  0.00  0.00     0.119 A 
ATOM      3  C   UNL d   1     -59.254 -98.788 -44.342  0.00  0.00     0.204 A 
ATOM      4  O   UNL d   1     -57.850 -98.776 -45.201  0.00  0.00    -0.289 OA
ATOM      5  C   UNL d   1     -59.273 -98.793 -45.160  0.00  0.00     0.067 A 
ATOM      6  C   UNL d   1     -58.570 -98.787 -45.591  0.00  0.00     0.105 A 
ATOM      7  O   UNL d   1     -59.961 -98.794 -43.910  0.00  0.00    -0.286 OA
ATOM      8  C   UNL d   1     -58.573 -98.792 -46.427  0.00  0.00     0.027 C 
ENDROOT
BRANCH   1   9
ATOM      9  N   UNL d   1     -57.073 -98.759 -43.976  0.00  0.00    -0.222 NA
BRANCH   9  10
ATOM     10  C   UNL d   1     -56.497 -99.316 -44.153  0.00  0.00     0.084 A 
ATOM     11  C   UNL d   1     -55.722 -99.077 -44.323  0.00  0.00     0.019 A 
ATOM     12  C   UNL d   1     -55.143 -99.638 -44.501  0.00  0.00     0.002 A 
ATOM     13  C   UNL d   1     -55.337-100.440 -44.511  0.00  0.00     0.000 A 
ATOM     14  C   UNL d   1     -56.103-100.678 -44.344  0.00  0.00     0.002 A 
ATOM     15  C   UNL d   1     -56.681-100.118 -44.165  0.00  0.00     0.019 A 
BRANCH  13  16
ATOM     16  C   UNL d   1     -54.756-101.003 -44.690  0.00  0.00     0.000 C 
ATOM     17  C   UNL d   1     -54.972-101.771 -44.872  0.00  0.00     0.000 C 
ENDBRANCH  13  16
ENDBRANCH   9  10
ENDBRANCH   1   9
BRANCH   2  18
ATOM     18  C   UNL d   1     -58.497 -98.771 -43.104  0.00  0.00     0.202 C 
ATOM     19  O   UNL d   1     -57.759 -98.761 -42.729  0.00  0.00    -0.286 OA
ATOM     20  C   UNL d   1     -59.185 -98.775 -42.660  0.00  0.00     0.046 C 
ENDBRANCH   2  18
TORSDOF 4
ENDMDL
