MODEL 1
REMARK VINA RESULT:      -8.1      0.000      0.000
REMARK  3 active torsions:
REMARK  status: ('A' for Active; 'I' for Inactive)
REMARK    1  A    between atoms: N_3  and  C_2 
REMARK       I    between atoms: C_4  and  N_3 
REMARK    2  A    between atoms: C_10  and  N_3 
REMARK    3  A    between atoms: C_12  and  C_4 
ROOT
ATOM      1  N   UNL d   1     -48.609  13.293  22.709  0.00  0.00    -0.274 N 
ATOM      2  C   UNL d   1     -49.294  12.258  22.883  0.00  0.00     0.265 C 
ATOM      3  O   UNL d   1     -48.839  11.600  22.935  0.00  0.00    -0.267 OA
ENDROOT
BRANCH   1   4
ATOM      4  C   UNL d   1     -49.014  13.967  22.651  0.00  0.00     0.079 A 
ATOM      5  C   UNL d   1     -49.144  14.479  23.234  0.00  0.00     0.116 A 
ATOM      6  S   UNL d   1     -49.569  15.071  22.944  0.00  0.00     0.213 S 
ATOM      7  C   UNL d   1     -49.699  14.921  22.183  0.00  0.00     0.100 A 
ATOM      8  O   UNL d   1     -49.994  15.664  22.653  0.00  0.00    -0.217 OA
ATOM      9  O   UNL d   1     -49.458  15.252  23.695  0.00  0.00    -0.217 OA
ATOM     10  C   UNL d   1     -49.358  14.242  22.005  0.00  0.00     0.030 A 
ENDBRANCH   1   4
BRANCH   1  11
ATOM     11  C   UNL d   1     -47.785  13.267  22.658  0.00  0.00     0.067 A 
ATOM     12  C   UNL d   1     -47.431  13.235  21.920  0.00  0.00     0.020 A 
ATOM     13  C   UNL d   1     -46.589  13.209  21.862  0.00  0.00     0.031 A 
ATOM     14  C   UNL d   1     -46.130  13.216  22.552  0.00  0.00     0.140 A 
ATOM     15  C   UNL d   1     -46.492  13.249  23.291  0.00  0.00     0.031 A 
ATOM     16  F   UNL d   1     -45.310  13.191  22.501  0.00  0.00    -0.204 F 
ATOM     17  C   UNL d   1     -47.313  13.275  23.363  0.00  0.00     0.020 A 
ENDBRANCH   1  11
BRANCH   2  18
ATOM     18  C   UNL d   1     -50.121  12.259  22.937  0.00  0.00     0.057 C 
ATOM     19  C   UNL d   1     -50.594  12.270  22.245  0.00  0.00     0.005 C 
ATOM     20  C   UNL d   1     -50.490  12.248  23.697  0.00  0.00     0.005 C 
ENDBRANCH   2  18
TORSDOF 3
ENDMDL
MODEL 2
REMARK VINA RESULT:      -7.9      1.105      2.305
REMARK  3 active torsions:
REMARK  status: ('A' for Active; 'I' for Inactive)
REMARK    1  A    between atoms: N_3  and  C_2 
REMARK       I    between atoms: C_4  and  N_3 
REMARK    2  A    between atoms: C_10  and  N_3 
REMARK    3  A    between atoms: C_12  and  C_4 
ROOT
ATOM      1  N   UNL d   1     -48.368  13.515  22.725  0.00  0.00    -0.274 N 
ATOM      2  C   UNL d   1     -49.008  14.574  22.529  0.00  0.00     0.265 C 
ATOM      3  O   UNL d   1     -48.534  15.173  22.287  0.00  0.00    -0.267 OA
ENDROOT
BRANCH   1   4
ATOM      4  C   UNL d   1     -48.794  12.896  22.964  0.00  0.00     0.079 A 
ATOM      5  C   UNL d   1     -49.053  12.309  22.509  0.00  0.00     0.116 A 
ATOM      6  S   UNL d   1     -49.452  11.810  22.965  0.00  0.00     0.213 S 
ATOM      7  C   UNL d   1     -49.437  12.093  23.698  0.00  0.00     0.100 A 
ATOM      8  O   UNL d   1     -49.852  11.311  23.420  0.00  0.00    -0.217 OA
ATOM      9  O   UNL d   1     -49.487  11.502  22.248  0.00  0.00    -0.217 OA
ATOM     10  C   UNL d   1     -49.033  12.759  23.697  0.00  0.00     0.030 A 
ENDBRANCH   1   4
BRANCH   1  11
ATOM     11  C   UNL d   1     -47.551  13.470  22.608  0.00  0.00     0.067 A 
ATOM     12  C   UNL d   1     -47.264  13.273  21.867  0.00  0.00     0.020 A 
ATOM     13  C   UNL d   1     -46.430  13.226  21.743  0.00  0.00     0.031 A 
ATOM     14  C   UNL d   1     -45.912  13.380  22.371  0.00  0.00     0.140 A 
ATOM     15  C   UNL d   1     -46.208  13.578  23.114  0.00  0.00     0.031 A 
ATOM     16  F   UNL d   1     -45.099  13.336  22.255  0.00  0.00    -0.204 F 
ATOM     17  C   UNL d   1     -47.019  13.628  23.250  0.00  0.00     0.020 A 
ENDBRANCH   1  11
BRANCH   2  18
ATOM     18  C   UNL d   1     -49.826  14.643  22.639  0.00  0.00     0.057 C 
ATOM     19  C   UNL d   1     -50.356  14.488  22.008  0.00  0.00     0.005 C 
ATOM     20  C   UNL d   1     -50.130  14.872  23.394  0.00  0.00     0.005 C 
ENDBRANCH   2  18
TORSDOF 3
ENDMDL
MODEL 3
REMARK VINA RESULT:      -7.8      2.025      3.707
REMARK  3 active torsions:
REMARK  status: ('A' for Active; 'I' for Inactive)
REMARK    1  A    between atoms: N_3  and  C_2 
REMARK       I    between atoms: C_4  and  N_3 
REMARK    2  A    between atoms: C_10  and  N_3 
REMARK    3  A    between atoms: C_12  and  C_4 
ROOT
ATOM      1  N   UNL d   1     -48.428  13.669  22.898  0.00  0.00    -0.274 N 
ATOM      2  C   UNL d   1     -47.264  14.104  22.732  0.00  0.00     0.265 C 
ATOM      3  O   UNL d   1     -47.252  14.897  22.616  0.00  0.00    -0.267 OA
ENDROOT
BRANCH   1   4
ATOM      4  C   UNL d   1     -48.490  12.892  23.015  0.00  0.00     0.079 A 
ATOM      5  C   UNL d   1     -48.661  12.354  22.467  0.00  0.00     0.116 A 
ATOM      6  S   UNL d   1     -48.668  11.651  22.815  0.00  0.00     0.213 S 
ATOM      7  C   UNL d   1     -48.501  11.759  23.575  0.00  0.00     0.100 A 
ATOM      8  O   UNL d   1     -48.675  10.947  23.163  0.00  0.00    -0.217 OA
ATOM      9  O   UNL d   1     -48.836  11.508  22.066  0.00  0.00    -0.217 OA
ATOM     10  C   UNL d   1     -48.392  12.521  23.697  0.00  0.00     0.030 A 
ENDBRANCH   1   4
BRANCH   1  11
ATOM     11  C   UNL d   1     -49.086  14.168  22.884  0.00  0.00     0.067 A 
ATOM     12  C   UNL d   1     -49.360  14.488  23.587  0.00  0.00     0.020 A 
ATOM     13  C   UNL d   1     -50.033  14.998  23.579  0.00  0.00     0.031 A 
ATOM     14  C   UNL d   1     -50.408  15.170  22.861  0.00  0.00     0.140 A 
ATOM     15  C   UNL d   1     -50.129  14.845  22.157  0.00  0.00     0.031 A 
ATOM     16  F   UNL d   1     -51.064  15.666  22.847  0.00  0.00    -0.204 F 
ATOM     17  C   UNL d   1     -49.473  14.345  22.150  0.00  0.00     0.020 A 
ENDBRANCH   1  11
BRANCH   2  18
ATOM     18  C   UNL d   1     -46.589  13.624  22.741  0.00  0.00     0.057 C 
ATOM     19  C   UNL d   1     -46.208  13.437  23.465  0.00  0.00     0.005 C 
ATOM     20  C   UNL d   1     -46.281  13.321  22.016  0.00  0.00     0.005 C 
ENDBRANCH   2  18
TORSDOF 3
ENDMDL
MODEL 4
REMARK VINA RESULT:      -6.7      1.586      2.977
REMARK  3 active torsions:
REMARK  status: ('A' for Active; 'I' for Inactive)
REMARK    1  A    between atoms: N_3  and  C_2 
REMARK       I    between atoms: C_4  and  N_3 
REMARK    2  A    between atoms: C_10  and  N_3 
REMARK    3  A    between atoms: C_12  and  C_4 
ROOT
ATOM      1  N   UNL d   1     -48.349  13.227  22.731  0.00  0.00    -0.274 N 
ATOM      2  C   UNL d   1     -47.172  12.831  22.900  0.00  0.00     0.265 C 
ATOM      3  O   UNL d   1     -47.140  12.059  23.109  0.00  0.00    -0.267 OA
ENDROOT
BRANCH   1   4
ATOM      4  C   UNL d   1     -48.431  13.983  22.524  0.00  0.00     0.079 A 
ATOM      5  C   UNL d   1     -48.681  14.565  22.990  0.00  0.00     0.116 A 
ATOM      6  S   UNL d   1     -48.680  15.227  22.568  0.00  0.00     0.213 S 
ATOM      7  C   UNL d   1     -48.430  15.049  21.845  0.00  0.00     0.100 A 
ATOM      8  O   UNL d   1     -48.680  15.890  22.147  0.00  0.00    -0.217 OA
ATOM      9  O   UNL d   1     -48.933  15.439  23.276  0.00  0.00    -0.217 OA
ATOM     10  C   UNL d   1     -48.277  14.285  21.819  0.00  0.00     0.030 A 
ENDBRANCH   1   4
BRANCH   1  11
ATOM     11  C   UNL d   1     -48.997  12.724  22.832  0.00  0.00     0.067 A 
ATOM     12  C   UNL d   1     -49.264  12.562  23.589  0.00  0.00     0.020 A 
ATOM     13  C   UNL d   1     -49.925  12.049  23.698  0.00  0.00     0.031 A 
ATOM     14  C   UNL d   1     -50.298  11.715  23.038  0.00  0.00     0.140 A 
ATOM     15  C   UNL d   1     -50.025  11.881  22.278  0.00  0.00     0.031 A 
ATOM     16  F   UNL d   1     -50.942  11.214  23.138  0.00  0.00    -0.204 F 
ATOM     17  C   UNL d   1     -49.380  12.380  22.157  0.00  0.00     0.020 A 
ENDBRANCH   1  11
BRANCH   2  18
ATOM     18  C   UNL d   1     -46.507  13.316  22.805  0.00  0.00     0.057 C 
ATOM     19  C   UNL d   1     -46.217  13.773  23.446  0.00  0.00     0.005 C 
ATOM     20  C   UNL d   1     -46.118  13.351  22.056  0.00  0.00     0.005 C 
ENDBRANCH   2  18
TORSDOF 3
ENDMDL
MODEL 5
REMARK VINA RESULT:      -6.3      8.770     10.077
REMARK  3 active torsions:
REMARK  status: ('A' for Active; 'I' for Inactive)
REMARK    1  A    between atoms: N_3  and  C_2 
REMARK       I    between atoms: C_4  and  N_3 
REMARK    2  A    between atoms: C_10  and  N_3 
REMARK    3  A    between atoms: C_12  and  C_4 
ROOT
ATOM      1  N   UNL d   1     -39.666  14.778  18.777  0.00  0.00    -0.274 N 
ATOM      2  C   UNL d   1     -38.802  13.884  18.618  0.00  0.00     0.265 C 
ATOM      3  O   UNL d   1     -38.532  13.598  19.316  0.00  0.00    -0.267 OA
ENDROOT
BRANCH   1   4
ATOM      4  C   UNL d   1     -39.961  15.091  18.116  0.00  0.00     0.079 A 
ATOM      5  C   UNL d   1     -40.620  14.862  17.752  0.00  0.00     0.116 A 
ATOM      6  S   UNL d   1     -40.714  15.315  17.118  0.00  0.00     0.213 S 
ATOM      7  C   UNL d   1     -40.112  15.821  17.096  0.00  0.00     0.100 A 
ATOM      8  O   UNL d   1     -40.808  15.769  16.484  0.00  0.00    -0.217 OA
ATOM      9  O   UNL d   1     -41.324  14.828  17.110  0.00  0.00    -0.217 OA
ATOM     10  C   UNL d   1     -39.651  15.682  17.709  0.00  0.00     0.030 A 
ENDBRANCH   1   4
BRANCH   1  11
ATOM     11  C   UNL d   1     -39.908  15.023  19.528  0.00  0.00     0.067 A 
ATOM     12  C   UNL d   1     -39.542  15.668  19.876  0.00  0.00     0.020 A 
ATOM     13  C   UNL d   1     -39.785  15.922  20.643  0.00  0.00     0.031 A 
ATOM     14  C   UNL d   1     -40.391  15.516  21.036  0.00  0.00     0.140 A 
ATOM     15  C   UNL d   1     -40.756  14.868  20.682  0.00  0.00     0.031 A 
ATOM     16  F   UNL d   1     -40.632  15.759  21.784  0.00  0.00    -0.204 F 
ATOM     17  C   UNL d   1     -40.529  14.609  19.933  0.00  0.00     0.020 A 
ENDBRANCH   1  11
BRANCH   2  18
ATOM     18  C   UNL d   1     -38.543  13.623  17.876  0.00  0.00     0.057 C 
ATOM     19  C   UNL d   1     -37.941  14.036  17.464  0.00  0.00     0.005 C 
ATOM     20  C   UNL d   1     -38.890  12.934  17.531  0.00  0.00     0.005 C 
ENDBRANCH   2  18
TORSDOF 3
ENDMDL
MODEL 6
REMARK VINA RESULT:      -5.5      2.002      3.511
REMARK  3 active torsions:
REMARK  status: ('A' for Active; 'I' for Inactive)
REMARK    1  A    between atoms: N_3  and  C_2 
REMARK       I    between atoms: C_4  and  N_3 
REMARK    2  A    between atoms: C_10  and  N_3 
REMARK    3  A    between atoms: C_12  and  C_4 
ROOT
ATOM      1  N   UNL d   1     -48.537  13.569  22.699  0.00  0.00    -0.274 N 
ATOM      2  C   UNL d   1     -48.941  14.703  22.350  0.00  0.00     0.265 C 
ATOM      3  O   UNL d   1     -49.737  14.727  22.265  0.00  0.00    -0.267 OA
ENDROOT
BRANCH   1   4
ATOM      4  C   UNL d   1     -47.759  13.497  22.795  0.00  0.00     0.079 A 
ATOM      5  C   UNL d   1     -47.250  13.230  22.258  0.00  0.00     0.116 A 
ATOM      6  S   UNL d   1     -46.532  13.248  22.576  0.00  0.00     0.213 S 
ATOM      7  C   UNL d   1     -46.604  13.526  23.308  0.00  0.00     0.100 A 
ATOM      8  O   UNL d   1     -45.815  13.266  22.895  0.00  0.00    -0.217 OA
ATOM      9  O   UNL d   1     -46.426  12.969  21.855  0.00  0.00    -0.217 OA
ATOM     10  C   UNL d   1     -47.356  13.678  23.442  0.00  0.00     0.030 A 
ENDBRANCH   1   4
BRANCH   1  11
ATOM     11  C   UNL d   1     -49.058  12.939  22.820  0.00  0.00     0.067 A 
ATOM     12  C   UNL d   1     -49.371  12.817  23.567  0.00  0.00     0.020 A 
ATOM     13  C   UNL d   1     -49.903  12.174  23.696  0.00  0.00     0.031 A 
ATOM     14  C   UNL d   1     -50.103  11.675  23.067  0.00  0.00     0.140 A 
ATOM     15  C   UNL d   1     -49.785  11.802  22.318  0.00  0.00     0.031 A 
ATOM     16  F   UNL d   1     -50.621  11.047  23.187  0.00  0.00    -0.204 F 
ATOM     17  C   UNL d   1     -49.264  12.425  22.176  0.00  0.00     0.020 A 
ENDBRANCH   1  11
BRANCH   2  18
ATOM     18  C   UNL d   1     -48.439  15.350  22.222  0.00  0.00     0.057 C 
ATOM     19  C   UNL d   1     -48.227  15.857  22.855  0.00  0.00     0.005 C 
ATOM     20  C   UNL d   1     -48.137  15.499  21.448  0.00  0.00     0.005 C 
ENDBRANCH   2  18
TORSDOF 3
ENDMDL
