MODEL 1
REMARK VINA RESULT:      51.7      0.000      0.000
REMARK  9 active torsions:
REMARK  status: ('A' for Active; 'I' for Inactive)
REMARK    1  A    between atoms: S_10  and  C_2 
REMARK    2  A    between atoms: C_7  and  C_5 
REMARK    3  A    between atoms: C_9  and  C_6 
REMARK    4  A    between atoms: O_19  and  C_9 
REMARK    5  A    between atoms: C_17  and  S_10 
REMARK    6  A    between atoms: C_13  and  C_17 
REMARK    7  A    between atoms: O_20  and  C_14 
REMARK    8  A    between atoms: C_23  and  O_19 
REMARK    9  A    between atoms: C_24  and  O_20 
ROOT
ATOM      1  C   UNL d   1      13.861  13.290  -2.521  0.00  0.00     0.092 A 
ATOM      2  C   UNL d   1      13.816  13.869  -3.124  0.00  0.00     0.124 A 
ATOM      3  C   UNL d   1      14.385  14.829  -2.242  0.00  0.00     0.285 A 
ATOM      4  N   UNL d   1      14.078  14.630  -2.978  0.00  0.00    -0.201 NA
ATOM      5  C   UNL d   1      14.166  13.486  -1.788  0.00  0.00     0.023 A 
ATOM      6  C   UNL d   1      14.430  14.249  -1.640  0.00  0.00     0.122 A 
ATOM      7  C   UNL d   1      13.600  12.531  -2.664  0.00  0.00     0.103 C 
ATOM      8  N   UNL d   1      13.340  11.779  -2.813  0.00  0.00    -0.191 NA
ATOM      9  O   UNL d   1      14.685  15.647  -2.032  0.00  0.00    -0.265 OA
ENDROOT
BRANCH   2  10
ATOM     10  S   UNL d   1      13.484  13.603  -3.876  0.00  0.00    -0.062 SA
BRANCH  10  11
ATOM     11  C   UNL d   1      12.932  14.018  -4.408  0.00  0.00     0.101 C 
BRANCH  11  12
ATOM     12  C   UNL d   1      13.100  14.049  -5.257  0.00  0.00     0.303 C 
ATOM     13  O   UNL d   1      13.294  14.478  -5.498  0.00  0.00    -0.263 OA
ATOM     14  N   UNL d   1      12.919  13.294  -5.689  0.00  0.00    -0.102 N 
ENDBRANCH  11  12
ENDBRANCH  10  11
ENDBRANCH   2  10
BRANCH   5  15
ATOM     15  C   UNL d   1      14.209  12.921  -1.201  0.00  0.00     0.024 A 
ATOM     16  C   UNL d   1      14.877  12.445  -1.140  0.00  0.00     0.100 A 
ATOM     17  C   UNL d   1      14.921  11.872  -0.545  0.00  0.00     0.025 A 
ATOM     18  C   UNL d   1      14.297  11.780  -0.015  0.00  0.00     0.002 A 
ATOM     19  C   UNL d   1      13.633  12.257  -0.079  0.00  0.00     0.000 A 
ATOM     20  C   UNL d   1      13.589  12.830  -0.675  0.00  0.00     0.002 A 
BRANCH  16  21
ATOM     21  O   UNL d   1      15.444  12.460  -1.546  0.00  0.00    -0.305 OA
BRANCH  21  22
ATOM     22  C   UNL d   1      16.057  11.921  -1.126  0.00  0.00     0.123 C 
ATOM     23  C   UNL d   1      16.953  11.783  -1.713  0.00  0.00     0.029 C 
ENDBRANCH  21  22
ENDBRANCH  16  21
ENDBRANCH   5  15
BRANCH   6  24
ATOM     24  C   UNL d   1      14.738  14.451  -0.902  0.00  0.00     0.305 C 
ATOM     25  O   UNL d   1      14.616  14.258  -0.573  0.00  0.00    -0.259 OA
BRANCH  24  26
ATOM     26  O   UNL d   1      15.312  15.052  -0.779  0.00  0.00    -0.271 OA
BRANCH  26  27
ATOM     27  C   UNL d   1      15.202  15.718  -0.215  0.00  0.00     0.126 C 
ATOM     28  C   UNL d   1      15.999  16.057  -0.296  0.00  0.00     0.029 C 
ENDBRANCH  26  27
ENDBRANCH  24  26
ENDBRANCH   6  24
TORSDOF 9
ENDMDL
