MODEL 1
REMARK VINA RESULT:      -0.4      0.000      0.000
REMARK  3 active torsions:
REMARK  status: ('A' for Active; 'I' for Inactive)
REMARK    1  A    between atoms: N_9  and  C_3 
REMARK    2  A    between atoms: C_14  and  C_4 
REMARK       I    between atoms: C_10  and  N_11 
REMARK    3  A    between atoms: C_13  and  C_10 
ROOT
ATOM      1  N   UNL d   1      56.958  -0.195  32.621  0.00  0.00    -0.196 N 
ATOM      2  C   UNL d   1      56.473  -0.306  33.273  0.00  0.00     0.167 A 
ATOM      3  C   UNL d   1      56.867  -0.668  31.949  0.00  0.00     0.152 A 
ATOM      4  C   UNL d   1      56.691   0.238  33.848  0.00  0.00     0.057 A 
ATOM      5  N   UNL d   1      57.478   0.417  32.789  0.00  0.00    -0.161 NA
ATOM      6  N   UNL d   1      55.890  -0.890  33.264  0.00  0.00    -0.227 NA
ATOM      7  C   UNL d   1      56.282  -1.255  31.939  0.00  0.00     0.057 A 
ATOM      8  C   UNL d   1      57.307   0.682  33.552  0.00  0.00     0.124 A 
ATOM      9  C   UNL d   1      55.797  -1.365  32.591  0.00  0.00     0.086 A 
ATOM     10  C   UNL d   1      55.210  -1.959  32.573  0.00  0.00     0.021 C 
ENDROOT
BRANCH   3  11
ATOM     11  N   UNL d   1      57.352  -0.557  31.297  0.00  0.00    -0.286 N 
ATOM     12  C   UNL d   1      57.859  -1.150  31.043  0.00  0.00     0.101 A 
ATOM     13  C   UNL d   1      58.347  -1.035  30.384  0.00  0.00     0.102 A 
ATOM     14  N   UNL d   1      58.322  -0.314  29.979  0.00  0.00    -0.267 N 
ATOM     15  C   UNL d   1      58.810  -0.189  29.315  0.00  0.00     0.288 C 
ATOM     16  C   UNL d   1      57.818   0.279  30.230  0.00  0.00     0.102 A 
ATOM     17  O   UNL d   1      58.790   0.524  28.908  0.00  0.00    -0.264 OA
ATOM     18  C   UNL d   1      57.329   0.164  30.889  0.00  0.00     0.101 A 
BRANCH  15  19
ATOM     19  C   UNL d   1      59.317  -0.791  29.066  0.00  0.00     0.156 A 
ATOM     20  O   UNL d   1      59.181  -1.554  28.808  0.00  0.00    -0.300 OA
ATOM     21  C   UNL d   1      59.910  -1.905  28.630  0.00  0.00     0.123 A 
ATOM     22  C   UNL d   1      60.484  -1.357  28.779  0.00  0.00     0.029 A 
ATOM     23  C   UNL d   1      60.128  -0.668  29.048  0.00  0.00     0.032 A 
ENDBRANCH  15  19
ENDBRANCH   3  11
BRANCH   4  24
ATOM     24  C   UNL d   1      56.405   0.386  34.607  0.00  0.00     0.004 A 
ATOM     25  C   UNL d   1      56.928   0.394  35.253  0.00  0.00     0.000 A 
ATOM     26  C   UNL d   1      56.641   0.542  36.012  0.00  0.00     0.000 A 
ATOM     27  C   UNL d   1      55.836   0.682  36.133  0.00  0.00     0.000 A 
ATOM     28  C   UNL d   1      55.315   0.674  35.491  0.00  0.00     0.000 A 
ATOM     29  C   UNL d   1      55.601   0.527  34.732  0.00  0.00     0.000 A 
ENDBRANCH   4  24
TORSDOF 3
ENDMDL
MODEL 2
REMARK VINA RESULT:       0.7      1.898      5.594
REMARK  3 active torsions:
REMARK  status: ('A' for Active; 'I' for Inactive)
REMARK    1  A    between atoms: N_9  and  C_3 
REMARK    2  A    between atoms: C_14  and  C_4 
REMARK       I    between atoms: C_10  and  N_11 
REMARK    3  A    between atoms: C_13  and  C_10 
ROOT
ATOM      1  N   UNL d   1      58.020  -1.106  30.521  0.00  0.00    -0.196 N 
ATOM      2  C   UNL d   1      58.573  -1.307  29.949  0.00  0.00     0.167 A 
ATOM      3  C   UNL d   1      57.881  -0.313  30.706  0.00  0.00     0.152 A 
ATOM      4  C   UNL d   1      58.589  -2.125  29.886  0.00  0.00     0.057 A 
ATOM      5  N   UNL d   1      57.692  -1.799  30.814  0.00  0.00    -0.161 NA
ATOM      6  N   UNL d   1      58.995  -0.718  29.554  0.00  0.00    -0.227 NA
ATOM      7  C   UNL d   1      58.305   0.280  30.310  0.00  0.00     0.057 A 
ATOM      8  C   UNL d   1      58.049  -2.427  30.416  0.00  0.00     0.124 A 
ATOM      9  C   UNL d   1      58.858   0.079  29.738  0.00  0.00     0.086 A 
ATOM     10  C   UNL d   1      59.280   0.681  29.344  0.00  0.00     0.021 C 
ENDROOT
BRANCH   3  11
ATOM     11  N   UNL d   1      57.329  -0.112  31.278  0.00  0.00    -0.286 N 
ATOM     12  C   UNL d   1      57.532  -0.088  32.072  0.00  0.00     0.101 A 
ATOM     13  C   UNL d   1      56.971   0.115  32.647  0.00  0.00     0.102 A 
ATOM     14  N   UNL d   1      56.198   0.295  32.415  0.00  0.00    -0.267 N 
ATOM     15  C   UNL d   1      55.627   0.501  32.987  0.00  0.00     0.288 C 
ATOM     16  C   UNL d   1      55.991   0.273  31.624  0.00  0.00     0.102 A 
ATOM     17  O   UNL d   1      54.857   0.681  32.765  0.00  0.00    -0.264 OA
ATOM     18  C   UNL d   1      56.553   0.069  31.049  0.00  0.00     0.101 A 
BRANCH  15  19
ATOM     19  C   UNL d   1      55.841   0.522  33.784  0.00  0.00     0.156 A 
ATOM     20  O   UNL d   1      56.551   0.670  34.159  0.00  0.00    -0.300 OA
ATOM     21  C   UNL d   1      56.431   0.616  34.978  0.00  0.00     0.123 A 
ATOM     22  C   UNL d   1      55.653   0.437  35.096  0.00  0.00     0.029 A 
ATOM     23  C   UNL d   1      55.282   0.377  34.366  0.00  0.00     0.032 A 
ENDBRANCH  15  19
ENDBRANCH   3  11
BRANCH   4  24
ATOM     24  C   UNL d   1      59.029  -2.634  29.411  0.00  0.00     0.004 A 
ATOM     25  C   UNL d   1      59.857  -2.562  29.381  0.00  0.00     0.000 A 
ATOM     26  C   UNL d   1      60.297  -3.072  28.905  0.00  0.00     0.000 A 
ATOM     27  C   UNL d   1      59.920  -3.655  28.458  0.00  0.00     0.000 A 
ATOM     28  C   UNL d   1      59.096  -3.728  28.487  0.00  0.00     0.000 A 
ATOM     29  C   UNL d   1      58.656  -3.218  28.962  0.00  0.00     0.000 A 
ENDBRANCH   4  24
TORSDOF 3
ENDMDL
MODEL 3
REMARK VINA RESULT:       2.5      2.300      5.693
REMARK  3 active torsions:
REMARK  status: ('A' for Active; 'I' for Inactive)
REMARK    1  A    between atoms: N_9  and  C_3 
REMARK    2  A    between atoms: C_14  and  C_4 
REMARK       I    between atoms: C_10  and  N_11 
REMARK    3  A    between atoms: C_13  and  C_10 
ROOT
ATOM      1  N   UNL d   1      57.395   0.108  31.914  0.00  0.00    -0.196 N 
ATOM      2  C   UNL d   1      58.031   0.048  31.400  0.00  0.00     0.167 A 
ATOM      3  C   UNL d   1      57.510   0.359  32.693  0.00  0.00     0.152 A 
ATOM      4  C   UNL d   1      57.750  -0.211  30.674  0.00  0.00     0.057 A 
ATOM      5  N   UNL d   1      56.717  -0.113  31.508  0.00  0.00    -0.161 NA
ATOM      6  N   UNL d   1      58.793   0.237  31.657  0.00  0.00    -0.227 NA
ATOM      7  C   UNL d   1      58.275   0.549  32.952  0.00  0.00     0.057 A 
ATOM      8  C   UNL d   1      56.943  -0.310  30.740  0.00  0.00     0.124 A 
ATOM      9  C   UNL d   1      58.911   0.488  32.438  0.00  0.00     0.086 A 
ATOM     10  C   UNL d   1      59.677   0.682  32.707  0.00  0.00     0.021 C 
ENDROOT
BRANCH   3  11
ATOM     11  N   UNL d   1      56.874   0.419  33.206  0.00  0.00    -0.286 N 
ATOM     12  C   UNL d   1      56.104   0.446  32.924  0.00  0.00     0.101 A 
ATOM     13  C   UNL d   1      55.464   0.507  33.446  0.00  0.00     0.102 A 
ATOM     14  N   UNL d   1      55.605   0.541  34.260  0.00  0.00    -0.267 N 
ATOM     15  C   UNL d   1      54.965   0.602  34.793  0.00  0.00     0.288 C 
ATOM     16  C   UNL d   1      56.370   0.515  34.546  0.00  0.00     0.102 A 
ATOM     17  O   UNL d   1      55.097   0.637  35.603  0.00  0.00    -0.264 OA
ATOM     18  C   UNL d   1      57.011   0.453  34.023  0.00  0.00     0.101 A 
BRANCH  15  19
ATOM     19  C   UNL d   1      54.194   0.629  34.500  0.00  0.00     0.156 A 
ATOM     20  O   UNL d   1      53.895   0.658  33.740  0.00  0.00    -0.300 OA
ATOM     21  C   UNL d   1      53.067   0.675  33.786  0.00  0.00     0.123 A 
ATOM     22  C   UNL d   1      52.868   0.657  34.567  0.00  0.00     0.029 A 
ATOM     23  C   UNL d   1      53.556   0.628  35.014  0.00  0.00     0.032 A 
ENDBRANCH  15  19
ENDBRANCH   3  11
BRANCH   4  24
ATOM     24  C   UNL d   1      58.127  -0.370  29.959  0.00  0.00     0.004 A 
ATOM     25  C   UNL d   1      58.057   0.163  29.326  0.00  0.00     0.000 A 
ATOM     26  C   UNL d   1      58.435   0.005  28.610  0.00  0.00     0.000 A 
ATOM     27  C   UNL d   1      58.883  -0.683  28.519  0.00  0.00     0.000 A 
ATOM     28  C   UNL d   1      58.954  -1.216  29.149  0.00  0.00     0.000 A 
ATOM     29  C   UNL d   1      58.576  -1.057  29.864  0.00  0.00     0.000 A 
ENDBRANCH   4  24
TORSDOF 3
ENDMDL
