MODEL 1
REMARK VINA RESULT:      11.1      0.000      0.000
REMARK  3 active torsions:
REMARK  status: ('A' for Active; 'I' for Inactive)
REMARK       I    between atoms: C_2  and  N_1 
REMARK    1  A    between atoms: C_5  and  C_2 
REMARK    2  A    between atoms: S_8  and  C_3 
REMARK    3  A    between atoms: O_13  and  C_11 
ROOT
ATOM      1  N   UNL d   1      45.257 -14.980  44.586  0.00  0.00    -0.251 N 
ATOM      2  C   UNL d   1      45.905 -14.526  44.367  0.00  0.00     0.266 C 
ATOM      3  C   UNL d   1      45.241 -15.800  44.667  0.00  0.00     0.178 A 
ATOM      4  N   UNL d   1      44.485 -16.012  44.893  0.00  0.00    -0.219 NA
ATOM      5  O   UNL d   1      46.627 -14.886  44.204  0.00  0.00    -0.267 OA
ATOM      6  C   UNL d   1      44.503 -14.688  44.765  0.00  0.00     0.106 A 
ATOM      7  C   UNL d   1      44.027 -15.335  44.955  0.00  0.00     0.120 A 
ENDROOT
BRANCH   2   8
ATOM      8  C   UNL d   1      45.834 -13.705  44.310  0.00  0.00     0.059 A 
ATOM      9  C   UNL d   1      45.548 -13.371  43.614  0.00  0.00     0.029 A 
ATOM     10  C   UNL d   1      45.482 -12.564  43.565  0.00  0.00     0.094 A 
ATOM     11  C   UNL d   1      45.699 -12.080  44.208  0.00  0.00     0.024 A 
ATOM     12  C   UNL d   1      45.978 -12.408  44.887  0.00  0.00     0.002 A 
ATOM     13  C   UNL d   1      46.050 -13.233  44.946  0.00  0.00     0.005 A 
BRANCH  10  14
ATOM     14  O   UNL d   1      45.196 -12.221  42.872  0.00  0.00    -0.328 OA
ATOM     15  C   UNL d   1      44.391 -12.090  42.771  0.00  0.00     0.181 C 
ENDBRANCH  10  14
ENDBRANCH   2   8
BRANCH   3  16
ATOM     16  S   UNL d   1      45.875 -16.301  44.541  0.00  0.00    -0.076 SA
ATOM     17  C   UNL d   1      45.751 -17.102  44.382  0.00  0.00     0.077 C 
ENDBRANCH   3  16
TORSDOF 3
ENDMDL
