MODEL 1
REMARK VINA RESULT:      -2.1      0.000      0.000
REMARK  4 active torsions:
REMARK  status: ('A' for Active; 'I' for Inactive)
REMARK    1  A    between atoms: C_5  and  N_1 
REMARK    2  A    between atoms: C_7  and  C_5 
REMARK    3  A    between atoms: O_10  and  C_9 
REMARK    4  A    between atoms: C_15  and  O_10 
ROOT
ATOM      1  N   UNL d   1      31.480  16.767 -24.319  0.00  0.00    -0.268 N 
ATOM      2  C   UNL d   1      31.947  16.101 -24.491  0.00  0.00     0.296 A 
ATOM      3  S   UNL d   1      32.679  16.207 -24.125  0.00  0.00    -0.025 SA
ATOM      4  C   UNL d   1      31.929  17.278 -23.847  0.00  0.00     0.073 A 
ATOM      5  C   UNL d   1      32.670  16.928 -23.729  0.00  0.00     0.050 A 
ATOM      6  O   UNL d   1      31.719  15.453 -24.946  0.00  0.00    -0.259 OA
ATOM      7  C   UNL d   1      31.756  18.008 -23.515  0.00  0.00     0.018 A 
ATOM      8  C   UNL d   1      33.241  17.325 -23.269  0.00  0.00     0.008 A 
ATOM      9  C   UNL d   1      32.323  18.398 -23.061  0.00  0.00     0.002 A 
ATOM     10  C   UNL d   1      33.059  18.059 -22.939  0.00  0.00     0.001 A 
ENDROOT
BRANCH   1  11
ATOM     11  C   UNL d   1      30.708  16.896 -24.572  0.00  0.00     0.086 C 
BRANCH  11  12
ATOM     12  C   UNL d   1      30.081  16.534 -24.172  0.00  0.00     0.040 A 
ATOM     13  C   UNL d   1      29.333  16.868 -24.220  0.00  0.00     0.102 A 
ATOM     14  C   UNL d   1      28.711  16.511 -23.825  0.00  0.00     0.025 A 
ATOM     15  C   UNL d   1      28.834  15.819 -23.380  0.00  0.00     0.002 A 
ATOM     16  C   UNL d   1      29.590  15.493 -23.339  0.00  0.00     0.000 A 
ATOM     17  C   UNL d   1      30.217  15.855 -23.739  0.00  0.00     0.004 A 
BRANCH  13  18
ATOM     18  O   UNL d   1      29.242  17.552 -24.667  0.00  0.00    -0.305 OA
BRANCH  18  19
ATOM     19  C   UNL d   1      28.596  18.051 -24.534  0.00  0.00     0.123 C 
ATOM     20  C   UNL d   1      28.403  18.630 -25.094  0.00  0.00     0.029 C 
ENDBRANCH  18  19
ENDBRANCH  13  18
ENDBRANCH  11  12
ENDBRANCH   1  11
TORSDOF 4
ENDMDL
MODEL 2
REMARK VINA RESULT:       0.4      1.724      3.807
REMARK  4 active torsions:
REMARK  status: ('A' for Active; 'I' for Inactive)
REMARK    1  A    between atoms: C_5  and  N_1 
REMARK    2  A    between atoms: C_7  and  C_5 
REMARK    3  A    between atoms: O_10  and  C_9 
REMARK    4  A    between atoms: C_15  and  O_10 
ROOT
ATOM      1  N   UNL d   1      29.849  15.832 -24.018  0.00  0.00    -0.268 N 
ATOM      2  C   UNL d   1      29.948  15.814 -23.193  0.00  0.00     0.296 A 
ATOM      3  S   UNL d   1      29.207  15.683 -22.855  0.00  0.00    -0.025 SA
ATOM      4  C   UNL d   1      29.047  15.711 -24.182  0.00  0.00     0.073 A 
ATOM      5  C   UNL d   1      28.653  15.619 -23.460  0.00  0.00     0.050 A 
ATOM      6  O   UNL d   1      30.658  15.910 -22.787  0.00  0.00    -0.259 OA
ATOM      7  C   UNL d   1      28.634  15.674 -24.890  0.00  0.00     0.018 A 
ATOM      8  C   UNL d   1      27.829  15.489 -23.459  0.00  0.00     0.008 A 
ATOM      9  C   UNL d   1      27.819  15.545 -24.884  0.00  0.00     0.002 A 
ATOM     10  C   UNL d   1      27.420  15.453 -24.175  0.00  0.00     0.001 A 
ENDROOT
BRANCH   1  11
ATOM     11  C   UNL d   1      30.444  15.949 -24.575  0.00  0.00     0.086 C 
BRANCH  11  12
ATOM     12  C   UNL d   1      30.731  16.712 -24.713  0.00  0.00     0.040 A 
ATOM     13  C   UNL d   1      31.507  16.807 -24.960  0.00  0.00     0.102 A 
ATOM     14  C   UNL d   1      31.792  17.561 -25.097  0.00  0.00     0.025 A 
ATOM     15  C   UNL d   1      31.303  18.226 -24.987  0.00  0.00     0.002 A 
ATOM     16  C   UNL d   1      30.524  18.118 -24.739  0.00  0.00     0.000 A 
ATOM     17  C   UNL d   1      30.238  17.354 -24.601  0.00  0.00     0.004 A 
BRANCH  13  18
ATOM     18  O   UNL d   1      31.967  16.133 -25.060  0.00  0.00    -0.305 OA
BRANCH  18  19
ATOM     19  C   UNL d   1      32.719  16.091 -24.719  0.00  0.00     0.123 C 
ATOM     20  C   UNL d   1      33.216  15.453 -24.900  0.00  0.00     0.029 C 
ENDBRANCH  18  19
ENDBRANCH  13  18
ENDBRANCH  11  12
ENDBRANCH   1  11
TORSDOF 4
ENDMDL
MODEL 3
REMARK VINA RESULT:       0.8      1.498      1.907
REMARK  4 active torsions:
REMARK  status: ('A' for Active; 'I' for Inactive)
REMARK    1  A    between atoms: C_5  and  N_1 
REMARK    2  A    between atoms: C_7  and  C_5 
REMARK    3  A    between atoms: O_10  and  C_9 
REMARK    4  A    between atoms: C_15  and  O_10 
ROOT
ATOM      1  N   UNL d   1      30.807  17.202 -24.661  0.00  0.00    -0.268 N 
ATOM      2  C   UNL d   1      30.596  17.987 -24.487  0.00  0.00     0.296 A 
ATOM      3  S   UNL d   1      31.283  18.443 -24.515  0.00  0.00    -0.025 SA
ATOM      4  C   UNL d   1      31.624  17.181 -24.795  0.00  0.00     0.073 A 
ATOM      5  C   UNL d   1      31.915  17.951 -24.704  0.00  0.00     0.050 A 
ATOM      6  O   UNL d   1      29.837  18.260 -24.317  0.00  0.00    -0.259 OA
ATOM      7  C   UNL d   1      32.130  16.565 -24.986  0.00  0.00     0.018 A 
ATOM      8  C   UNL d   1      32.730  18.094 -24.809  0.00  0.00     0.008 A 
ATOM      9  C   UNL d   1      32.936  16.711 -25.089  0.00  0.00     0.002 A 
ATOM     10  C   UNL d   1      33.233  17.469 -25.001  0.00  0.00     0.001 A 
ENDROOT
BRANCH   1  11
ATOM     11  C   UNL d   1      30.296  16.558 -24.694  0.00  0.00     0.086 C 
BRANCH  11  12
ATOM     12  C   UNL d   1      30.058  16.188 -23.993  0.00  0.00     0.040 A 
ATOM     13  C   UNL d   1      29.292  15.902 -23.934  0.00  0.00     0.102 A 
ATOM     14  C   UNL d   1      29.056  15.536 -23.242  0.00  0.00     0.025 A 
ATOM     15  C   UNL d   1      29.584  15.453 -22.604  0.00  0.00     0.002 A 
ATOM     16  C   UNL d   1      30.352  15.746 -22.675  0.00  0.00     0.000 A 
ATOM     17  C   UNL d   1      30.589  16.116 -23.376  0.00  0.00     0.004 A 
BRANCH  13  18
ATOM     18  O   UNL d   1      28.792  15.997 -24.580  0.00  0.00    -0.305 OA
BRANCH  18  19
ATOM     19  C   UNL d   1      28.182  15.456 -24.715  0.00  0.00     0.123 C 
ATOM     20  C   UNL d   1      27.463  15.719 -25.034  0.00  0.00     0.029 C 
ENDBRANCH  18  19
ENDBRANCH  13  18
ENDBRANCH  11  12
ENDBRANCH   1  11
TORSDOF 4
ENDMDL
