MODEL 1
REMARK VINA RESULT:      -1.5      0.000      0.000
REMARK  3 active torsions:
REMARK  status: ('A' for Active; 'I' for Inactive)
REMARK    1  A    between atoms: S_10  and  C_2 
REMARK    2  A    between atoms: C_9  and  C_4 
REMARK    3  A    between atoms: C_17  and  C_12 
ROOT
ATOM      1  C   UNL d   1     -41.550-122.187 -51.816  0.00  0.00     0.092 A 
ATOM      2  C   UNL d   1     -41.352-121.786 -52.491  0.00  0.00     0.119 A 
ATOM      3  N   UNL d   1     -41.208-120.968 -52.458  0.00  0.00    -0.201 NA
ATOM      4  C   UNL d   1     -41.609-121.778 -51.094  0.00  0.00     0.016 A 
ATOM      5  C   UNL d   1     -41.267-120.567 -51.742  0.00  0.00     0.280 A 
ATOM      6  C   UNL d   1     -41.694-123.002 -51.846  0.00  0.00     0.103 C 
ATOM      7  N   UNL d   1     -41.836-123.817 -51.885  0.00  0.00    -0.191 NA
ATOM      8  C   UNL d   1     -41.466-120.968 -51.067  0.00  0.00     0.063 A 
ATOM      9  O   UNL d   1     -41.124-119.752 -51.711  0.00  0.00    -0.265 OA
ENDROOT
BRANCH   2  10
ATOM     10  S   UNL d   1     -41.293-122.192 -53.210  0.00  0.00    -0.093 SA
ATOM     11  C   UNL d   1     -41.308-121.774 -53.929  0.00  0.00     0.076 C 
ENDBRANCH   2  10
BRANCH   4  12
ATOM     12  C   UNL d   1     -41.810-122.184 -50.411  0.00  0.00     0.001 A 
ATOM     13  C   UNL d   1     -42.588-122.191 -50.174  0.00  0.00     0.000 A 
ATOM     14  C   UNL d   1     -42.801-122.600 -49.483  0.00  0.00     0.000 A 
ATOM     15  C   UNL d   1     -42.242-122.988 -49.048  0.00  0.00     0.000 A 
ATOM     16  C   UNL d   1     -41.457-122.977 -49.293  0.00  0.00     0.000 A 
ATOM     17  C   UNL d   1     -41.237-122.567 -49.988  0.00  0.00     0.000 A 
BRANCH  15  18
ATOM     18  C   UNL d   1     -42.467-123.442 -48.283  0.00  0.00     0.000 C 
ATOM     19  C   UNL d   1     -43.452-123.814 -47.965  0.00  0.00     0.000 C 
ATOM     20  C   UNL d   1     -41.727-123.759 -47.405  0.00  0.00     0.000 C 
ENDBRANCH  15  18
ENDBRANCH   4  12
TORSDOF 3
ENDMDL
MODEL 2
REMARK VINA RESULT:       0.7      1.384      4.215
REMARK  3 active torsions:
REMARK  status: ('A' for Active; 'I' for Inactive)
REMARK    1  A    between atoms: S_10  and  C_2 
REMARK    2  A    between atoms: C_9  and  C_4 
REMARK    3  A    between atoms: C_17  and  C_12 
ROOT
ATOM      1  C   UNL d   1     -41.577-122.298 -51.581  0.00  0.00     0.092 A 
ATOM      2  C   UNL d   1     -41.427-122.194 -50.792  0.00  0.00     0.119 A 
ATOM      3  N   UNL d   1     -41.274-121.432 -50.497  0.00  0.00    -0.201 NA
ATOM      4  C   UNL d   1     -41.577-121.640 -52.091  0.00  0.00     0.016 A 
ATOM      5  C   UNL d   1     -41.275-120.784 -51.006  0.00  0.00     0.280 A 
ATOM      6  C   UNL d   1     -41.729-123.055 -51.877  0.00  0.00     0.103 C 
ATOM      7  N   UNL d   1     -41.881-123.817 -52.166  0.00  0.00    -0.191 NA
ATOM      8  C   UNL d   1     -41.425-120.888 -51.795  0.00  0.00     0.063 A 
ATOM      9  O   UNL d   1     -41.123-120.027 -50.710  0.00  0.00    -0.265 OA
ENDROOT
BRANCH   2  10
ATOM     10  S   UNL d   1     -41.426-122.846 -50.283  0.00  0.00    -0.093 SA
ATOM     11  C   UNL d   1     -41.268-122.746 -49.473  0.00  0.00     0.076 C 
ENDBRANCH   2  10
BRANCH   4  12
ATOM     12  C   UNL d   1     -41.729-121.745 -52.890  0.00  0.00     0.001 A 
ATOM     13  C   UNL d   1     -41.145-122.056 -53.363  0.00  0.00     0.000 A 
ATOM     14  C   UNL d   1     -41.289-122.165 -54.173  0.00  0.00     0.000 A 
ATOM     15  C   UNL d   1     -42.003-121.966 -54.492  0.00  0.00     0.000 A 
ATOM     16  C   UNL d   1     -42.590-121.652 -54.009  0.00  0.00     0.000 A 
ATOM     17  C   UNL d   1     -42.450-121.540 -53.193  0.00  0.00     0.000 A 
BRANCH  15  18
ATOM     18  C   UNL d   1     -42.173-122.083 -55.387  0.00  0.00     0.000 C 
ATOM     19  C   UNL d   1     -41.698-121.594 -56.250  0.00  0.00     0.000 C 
ATOM     20  C   UNL d   1     -42.979-122.820 -55.863  0.00  0.00     0.000 C 
ENDBRANCH  15  18
ENDBRANCH   4  12
TORSDOF 3
ENDMDL
