MODEL 1
REMARK VINA RESULT:       2.8      0.000      0.000
REMARK  3 active torsions:
REMARK  status: ('A' for Active; 'I' for Inactive)
REMARK    1  A    between atoms: C_4  and  C_1 
REMARK    2  A    between atoms: C_13  and  N_2 
REMARK    3  A    between atoms: C_10  and  C_13 
ROOT
ATOM      1  C   UNL d   1     -41.823-123.059 -52.084  0.00  0.00     0.171 A 
ATOM      2  N   UNL d   1     -41.451-122.319 -52.449  0.00  0.00    -0.286 N 
ATOM      3  N   UNL d   1     -42.045-123.608 -52.767  0.00  0.00    -0.225 NA
ATOM      4  C   UNL d   1     -41.444-122.410 -53.343  0.00  0.00     0.083 A 
ATOM      5  C   UNL d   1     -41.818-123.222 -53.543  0.00  0.00     0.099 A 
ATOM      6  C   UNL d   1     -41.147-121.862 -54.002  0.00  0.00     0.019 A 
ATOM      7  C   UNL d   1     -41.889-123.472 -54.399  0.00  0.00     0.021 A 
ATOM      8  C   UNL d   1     -41.229-122.137 -54.852  0.00  0.00     0.002 A 
ATOM      9  C   UNL d   1     -41.604-122.949 -55.052  0.00  0.00     0.002 A 
ENDROOT
BRANCH   2  10
ATOM     10  C   UNL d   1     -41.127-121.667 -52.696  0.00  0.00     0.106 C 
BRANCH  10  11
ATOM     11  C   UNL d   1     -41.126-121.020 -52.208  0.00  0.00     0.118 A 
ATOM     12  O   UNL d   1     -41.129-120.263 -52.425  0.00  0.00    -0.299 OA
ATOM     13  C   UNL d   1     -41.127-119.780 -51.779  0.00  0.00     0.134 A 
ATOM     14 BR   UNL d   1     -41.128-118.981 -51.685  0.00  0.00    -0.022 Br
ATOM     15  C   UNL d   1     -41.123-120.261 -51.134  0.00  0.00     0.034 A 
ATOM     16  C   UNL d   1     -41.123-121.039 -51.383  0.00  0.00     0.029 A 
ENDBRANCH  10  11
ENDBRANCH   2  10
BRANCH   1  17
ATOM     17  C   UNL d   1     -41.947-123.216 -51.213  0.00  0.00     0.135 A 
ATOM     18  O   UNL d   1     -42.597-122.965 -50.793  0.00  0.00    -0.297 OA
ATOM     19  C   UNL d   1     -42.478-123.229 -50.031  0.00  0.00     0.134 A 
ATOM     20 BR   UNL d   1     -42.765-123.267 -49.273  0.00  0.00    -0.022 Br
ATOM     21  C   UNL d   1     -41.769-123.630 -50.002  0.00  0.00     0.034 A 
ATOM     22  C   UNL d   1     -41.450-123.614 -50.747  0.00  0.00     0.030 A 
ENDBRANCH   1  17
TORSDOF 3
ENDMDL
MODEL 2
REMARK VINA RESULT:       4.4      2.364      4.630
REMARK  3 active torsions:
REMARK  status: ('A' for Active; 'I' for Inactive)
REMARK    1  A    between atoms: C_4  and  C_1 
REMARK    2  A    between atoms: C_13  and  N_2 
REMARK    3  A    between atoms: C_10  and  C_13 
ROOT
ATOM      1  C   UNL d   1     -41.683-123.309 -49.660  0.00  0.00     0.171 A 
ATOM      2  N   UNL d   1     -42.477-123.123 -49.269  0.00  0.00    -0.286 N 
ATOM      3  N   UNL d   1     -41.129-123.600 -49.007  0.00  0.00    -0.225 NA
ATOM      4  C   UNL d   1     -42.415-123.296 -48.389  0.00  0.00     0.083 A 
ATOM      5  C   UNL d   1     -41.565-123.596 -48.224  0.00  0.00     0.099 A 
ATOM      6  C   UNL d   1     -43.018-123.220 -47.716  0.00  0.00     0.019 A 
ATOM      7  C   UNL d   1     -41.334-123.815 -47.389  0.00  0.00     0.021 A 
ATOM      8  C   UNL d   1     -42.760-123.447 -46.888  0.00  0.00     0.002 A 
ATOM      9  C   UNL d   1     -41.910-123.747 -46.723  0.00  0.00     0.002 A 
ENDROOT
BRANCH   2  10
ATOM     10  C   UNL d   1     -43.176-122.947 -48.998  0.00  0.00     0.106 C 
BRANCH  10  11
ATOM     11  C   UNL d   1     -43.746-122.697 -49.517  0.00  0.00     0.118 A 
ATOM     12  O   UNL d   1     -43.830-121.972 -49.814  0.00  0.00    -0.299 OA
ATOM     13  C   UNL d   1     -44.464-121.939 -50.313  0.00  0.00     0.134 A 
ATOM     14 BR   UNL d   1     -44.791-121.351 -50.753  0.00  0.00    -0.022 Br
ATOM     15  C   UNL d   1     -44.784-122.677 -50.323  0.00  0.00     0.034 A 
ATOM     16  C   UNL d   1     -44.349-123.163 -49.833  0.00  0.00     0.029 A 
ENDBRANCH  10  11
ENDBRANCH   2  10
BRANCH   1  17
ATOM     17  C   UNL d   1     -41.484-123.222 -50.527  0.00  0.00     0.135 A 
ATOM     18  O   UNL d   1     -41.495-122.515 -50.928  0.00  0.00    -0.297 OA
ATOM     19  C   UNL d   1     -41.279-122.695 -51.693  0.00  0.00     0.134 A 
ATOM     20 BR   UNL d   1     -41.139-122.417 -52.442  0.00  0.00    -0.022 Br
ATOM     21  C   UNL d   1     -41.144-123.497 -51.742  0.00  0.00     0.034 A 
ATOM     22  C   UNL d   1     -41.276-123.812 -51.007  0.00  0.00     0.030 A 
ENDBRANCH   1  17
TORSDOF 3
ENDMDL
