MODEL 1
REMARK VINA RESULT:      47.2      0.000      0.000
REMARK  7 active torsions:
REMARK  status: ('A' for Active; 'I' for Inactive)
REMARK    1  A    between atoms: N_4  and  S_1 
REMARK    2  A    between atoms: C_2  and  N_4 
REMARK    3  A    between atoms: C_3  and  C_2 
REMARK    4  A    between atoms: N_5  and  C_3 
REMARK    5  A    between atoms: C_7  and  C_3 
REMARK    6  A    between atoms: C_9  and  N_6 
REMARK    7  A    between atoms: O_26  and  C_22 
ROOT
ATOM      1  N   UNL d   1      14.038  13.449  -2.379  0.00  0.00    -0.300 N 
ATOM      2  N   UNL d   1      14.555  14.989  -2.011  0.00  0.00    -0.301 N 
ATOM      3  C   UNL d   1      13.749  14.107  -2.802  0.00  0.00     0.100 A 
ATOM      4  C   UNL d   1      14.582  13.579  -1.780  0.00  0.00     0.100 A 
ATOM      5  C   UNL d   1      14.003  14.870  -2.623  0.00  0.00     0.100 A 
ATOM      6  C   UNL d   1      14.842  14.336  -1.592  0.00  0.00     0.100 A 
ENDROOT
BRANCH   1   7
ATOM      7  C   UNL d   1      13.784  12.691  -2.560  0.00  0.00     0.089 C 
BRANCH   7   8
ATOM      8  C   UNL d   1      13.759  12.112  -1.977  0.00  0.00     0.110 C 
ATOM      9  C   UNL d   1      13.034  11.866  -1.670  0.00  0.00     0.023 C 
BRANCH   8  10
ATOM     10  N   UNL d   1      14.454  11.779  -1.701  0.00  0.00    -0.161 NA
BRANCH  10  11
ATOM     11  S   UNL d   1      14.636  11.788  -0.899  0.00  0.00     0.266 S 
ATOM     12  O   UNL d   1      15.431  11.790  -1.137  0.00  0.00    -0.203 OA
ATOM     13  O   UNL d   1      15.239  11.797  -0.333  0.00  0.00    -0.203 OA
ATOM     14  C   UNL d   1      13.873  11.787  -0.597  0.00  0.00     0.165 C 
ENDBRANCH  10  11
ENDBRANCH   8  10
ENDBRANCH   7   8
BRANCH   7  15
ATOM     15  C   UNL d   1      13.552  12.508  -3.329  0.00  0.00     0.047 A 
ATOM     16  S   UNL d   1      13.051  11.888  -3.554  0.00  0.00    -0.085 SA
ATOM     17  C   UNL d   1      12.973  11.915  -4.376  0.00  0.00     0.035 A 
ATOM     18  C   UNL d   1      13.415  12.538  -4.665  0.00  0.00     0.007 A 
ATOM     19  C   UNL d   1      13.778  12.911  -4.015  0.00  0.00     0.009 A 
ENDBRANCH   7  15
ENDBRANCH   1   7
BRANCH   2  20
ATOM     20  C   UNL d   1      14.809  15.756  -1.832  0.00  0.00     0.064 A 
ATOM     21  C   UNL d   1      14.873  16.316  -2.428  0.00  0.00     0.020 A 
ATOM     22  C   UNL d   1      15.127  17.082  -2.245  0.00  0.00     0.026 A 
ATOM     23  C   UNL d   1      15.317  17.280  -1.463  0.00  0.00     0.094 A 
ATOM     24  C   UNL d   1      15.248  16.702  -0.872  0.00  0.00     0.026 A 
ATOM     25  C   UNL d   1      14.993  15.934  -1.055  0.00  0.00     0.020 A 
BRANCH  23  26
ATOM     26  O   UNL d   1      15.573  18.047  -1.272  0.00  0.00    -0.328 OA
ATOM     27  C   UNL d   1      16.016  18.156  -0.587  0.00  0.00     0.181 C 
ENDBRANCH  23  26
ENDBRANCH   2  20
TORSDOF 7
ENDMDL
