MODEL 1
REMARK VINA RESULT:       4.0      0.000      0.000
REMARK  3 active torsions:
REMARK  status: ('A' for Active; 'I' for Inactive)
REMARK       I    between atoms: N_4  and  C_1 
REMARK    1  A    between atoms: O_11  and  C_3 
REMARK    2  A    between atoms: C_6  and  N_4 
REMARK    3  A    between atoms: O_12  and  C_7 
ROOT
ATOM      1  C   UNL d   1      46.615 -18.465  43.090  0.00  0.00     0.046 A 
ATOM      2  C   UNL d   1      46.602 -18.799  43.842  0.00  0.00     0.118 A 
ATOM      3  C   UNL d   1      46.629 -18.950  42.419  0.00  0.00     0.102 A 
ATOM      4  C   UNL d   1      46.603 -19.621  43.927  0.00  0.00     0.116 A 
ATOM      5  C   UNL d   1      46.616 -20.107  43.257  0.00  0.00     0.028 A 
ATOM      6  C   UNL d   1      46.629 -19.767  42.505  0.00  0.00     0.022 A 
ENDROOT
BRANCH   3   7
ATOM      7  N   UNL d   1      46.642 -18.613  41.664  0.00  0.00    -0.056 NA
ATOM      8  C   UNL d   1      46.600 -19.084  40.998  0.00  0.00     0.787 C 
ATOM      9  N   UNL d   1      46.613 -18.751  40.251  0.00  0.00     0.064 N 
ATOM     10  N   UNL d   1      46.545 -19.905  41.084  0.00  0.00     0.064 N 
ENDBRANCH   3   7
BRANCH   2  11
ATOM     11  O   UNL d   1      46.588 -18.319  44.506  0.00  0.00    -0.326 OA
ATOM     12  C   UNL d   1      46.098 -17.659  44.525  0.00  0.00     0.181 C 
ENDBRANCH   2  11
BRANCH   4  13
ATOM     13  O   UNL d   1      46.590 -19.955  44.674  0.00  0.00    -0.326 OA
ATOM     14  C   UNL d   1      45.904 -20.318  44.951  0.00  0.00     0.181 C 
ENDBRANCH   4  13
TORSDOF 3
ENDMDL
