MODEL 1
REMARK VINA RESULT:      91.9      0.000      0.000
REMARK  5 active torsions:
REMARK  status: ('A' for Active; 'I' for Inactive)
REMARK       I    between atoms: C_4  and  N_1 
REMARK    1  A    between atoms: C_8  and  C_3 
REMARK    2  A    between atoms: C_9  and  C_4 
REMARK    3  A    between atoms: S_5  and  N_10 
REMARK    4  A    between atoms: C_11  and  C_6 
REMARK    5  A    between atoms: N_10  and  C_22 
ROOT
ATOM      1  N   UNL d   1     -47.858  30.437  35.158  0.00  0.00    -0.193 N 
ATOM      2  N   UNL d   1     -48.415  30.122  34.633  0.00  0.00    -0.163 NA
ATOM      3  C   UNL d   1     -47.648  29.836  35.690  0.00  0.00     0.090 A 
ATOM      4  C   UNL d   1     -47.571  31.210  35.147  0.00  0.00     0.303 C 
ATOM      5  C   UNL d   1     -48.548  29.334  34.838  0.00  0.00     0.103 A 
ATOM      6  C   UNL d   1     -48.073  29.163  35.490  0.00  0.00     0.040 A 
ATOM      7  O   UNL d   1     -47.012  31.441  35.713  0.00  0.00    -0.263 OA
ENDROOT
BRANCH   5   8
ATOM      8  C   UNL d   1     -49.060  28.815  34.460  0.00  0.00     0.019 A 
ATOM      9  C   UNL d   1     -49.211  28.082  34.790  0.00  0.00     0.003 A 
ATOM     10  C   UNL d   1     -49.728  27.558  34.410  0.00  0.00     0.020 A 
ATOM     11  C   UNL d   1     -50.090  27.776  33.698  0.00  0.00     0.093 A 
ATOM     12  C   UNL d   1     -49.933  28.519  33.371  0.00  0.00     0.020 A 
ATOM     13  C   UNL d   1     -49.423  29.037  33.746  0.00  0.00     0.003 A 
BRANCH  11  14
ATOM     14  N   UNL d   1     -50.603  27.250  33.326  0.00  0.00    -0.162 NA
BRANCH  14  15
ATOM     15  S   UNL d   1     -50.544  26.444  33.452  0.00  0.00     0.266 S 
ATOM     16  O   UNL d   1     -51.354  26.531  33.595  0.00  0.00    -0.203 OA
ATOM     17  O   UNL d   1     -50.813  25.684  33.635  0.00  0.00    -0.203 OA
ATOM     18  C   UNL d   1     -49.741  26.331  33.315  0.00  0.00     0.165 C 
ENDBRANCH  14  15
ENDBRANCH  11  14
ENDBRANCH   5   8
BRANCH   3  19
ATOM     19  C   UNL d   1     -47.112  29.911  36.302  0.00  0.00     0.045 A 
ATOM     20  C   UNL d   1     -47.398  29.881  37.088  0.00  0.00     0.141 A 
ATOM     21  F   UNL d   1     -48.206  29.779  37.227  0.00  0.00    -0.204 F 
ATOM     22  C   UNL d   1     -46.862  29.956  37.717  0.00  0.00     0.030 A 
ATOM     23  C   UNL d   1     -46.099  30.053  37.571  0.00  0.00     0.002 A 
ATOM     24  C   UNL d   1     -45.812  30.083  36.785  0.00  0.00     0.000 A 
ATOM     25  C   UNL d   1     -46.289  30.015  36.124  0.00  0.00     0.004 A 
ENDBRANCH   3  19
BRANCH   4  26
ATOM     26  C   UNL d   1     -47.833  31.736  34.586  0.00  0.00     0.158 A 
ATOM     27  O   UNL d   1     -48.605  31.754  34.250  0.00  0.00    -0.300 OA
ATOM     28  C   UNL d   1     -48.623  32.376  33.708  0.00  0.00     0.123 A 
ATOM     29  C   UNL d   1     -47.885  32.736  33.705  0.00  0.00     0.029 A 
ATOM     30  C   UNL d   1     -47.410  32.331  34.250  0.00  0.00     0.032 A 
ENDBRANCH   4  26
TORSDOF 5
ENDMDL
MODEL 2
REMARK VINA RESULT:      94.6      2.352      5.437
REMARK  5 active torsions:
REMARK  status: ('A' for Active; 'I' for Inactive)
REMARK       I    between atoms: C_4  and  N_1 
REMARK    1  A    between atoms: C_8  and  C_3 
REMARK    2  A    between atoms: C_9  and  C_4 
REMARK    3  A    between atoms: S_5  and  N_10 
REMARK    4  A    between atoms: C_11  and  C_6 
REMARK    5  A    between atoms: N_10  and  C_22 
ROOT
ATOM      1  N   UNL d   1     -50.056  27.294  35.627  0.00  0.00    -0.193 N 
ATOM      2  N   UNL d   1     -49.552  27.888  35.907  0.00  0.00    -0.163 NA
ATOM      3  C   UNL d   1     -49.943  27.235  34.807  0.00  0.00     0.090 A 
ATOM      4  C   UNL d   1     -50.573  26.846  36.088  0.00  0.00     0.303 C 
ATOM      5  C   UNL d   1     -49.132  28.194  35.267  0.00  0.00     0.103 A 
ATOM      6  C   UNL d   1     -49.376  27.788  34.591  0.00  0.00     0.040 A 
ATOM      7  O   UNL d   1     -51.042  26.270  35.723  0.00  0.00    -0.263 OA
ENDROOT
BRANCH   5   8
ATOM      8  C   UNL d   1     -48.572  28.794  35.297  0.00  0.00     0.019 A 
ATOM      9  C   UNL d   1     -48.680  29.474  34.854  0.00  0.00     0.003 A 
ATOM     10  C   UNL d   1     -48.115  30.078  34.884  0.00  0.00     0.020 A 
ATOM     11  C   UNL d   1     -47.443  29.996  35.361  0.00  0.00     0.093 A 
ATOM     12  C   UNL d   1     -47.341  29.306  35.805  0.00  0.00     0.020 A 
ATOM     13  C   UNL d   1     -47.898  28.708  35.776  0.00  0.00     0.003 A 
BRANCH  11  14
ATOM     14  N   UNL d   1     -46.886  30.602  35.386  0.00  0.00    -0.162 NA
BRANCH  14  15
ATOM     15  S   UNL d   1     -47.107  31.382  35.277  0.00  0.00     0.266 S 
ATOM     16  O   UNL d   1     -47.068  31.380  36.104  0.00  0.00    -0.203 OA
ATOM     17  O   UNL d   1     -47.309  32.151  35.503  0.00  0.00    -0.203 OA
ATOM     18  C   UNL d   1     -47.153  31.409  34.457  0.00  0.00     0.165 C 
ENDBRANCH  14  15
ENDBRANCH  11  14
ENDBRANCH   5   8
BRANCH   3  19
ATOM     19  C   UNL d   1     -50.332  26.715  34.311  0.00  0.00     0.045 A 
ATOM     20  C   UNL d   1     -49.881  26.136  33.909  0.00  0.00     0.141 A 
ATOM     21  F   UNL d   1     -49.063  26.102  34.021  0.00  0.00    -0.204 F 
ATOM     22  C   UNL d   1     -50.266  25.604  33.402  0.00  0.00     0.030 A 
ATOM     23  C   UNL d   1     -51.042  25.647  33.306  0.00  0.00     0.002 A 
ATOM     24  C   UNL d   1     -51.493  26.227  33.707  0.00  0.00     0.000 A 
ATOM     25  C   UNL d   1     -51.173  26.779  34.219  0.00  0.00     0.004 A 
ENDBRANCH   3  19
BRANCH   4  26
ATOM     26  C   UNL d   1     -50.619  26.972  36.889  0.00  0.00     0.158 A 
ATOM     27  O   UNL d   1     -50.047  27.371  37.360  0.00  0.00    -0.300 OA
ATOM     28  C   UNL d   1     -50.323  27.367  38.138  0.00  0.00     0.123 A 
ATOM     29  C   UNL d   1     -51.045  26.978  38.154  0.00  0.00     0.029 A 
ATOM     30  C   UNL d   1     -51.214  26.740  37.378  0.00  0.00     0.032 A 
ENDBRANCH   4  26
TORSDOF 5
ENDMDL
