MODEL 1
REMARK VINA RESULT:      36.4      0.000      0.000
REMARK  2 active torsions:
REMARK  status: ('A' for Active; 'I' for Inactive)
REMARK    1  A    between atoms: C_3  and  C_1 
REMARK       I    between atoms: N_7  and  C_3 
REMARK    2  A    between atoms: C_11  and  N_7 
ROOT
ATOM      1  C   UNL d   1     -51.088  25.467  33.343  0.00  0.00     0.121 A 
ATOM      2  C   UNL d   1     -50.636  24.774  33.322  0.00  0.00     0.305 A 
ATOM      3  C   UNL d   1     -51.906  25.411  33.355  0.00  0.00     0.012 A 
ATOM      4  O   UNL d   1     -50.995  24.033  33.314  0.00  0.00    -0.273 OA
ATOM      5  C   UNL d   1     -52.279  24.676  33.346  0.00  0.00     0.023 A 
ATOM      6  C   UNL d   1     -51.818  23.985  33.326  0.00  0.00     0.103 A 
ATOM      7  O   UNL d   1     -49.799  24.826  33.310  0.00  0.00    -0.259 OA
ATOM      8  C   UNL d   1     -53.101  24.618  33.358  0.00  0.00     0.002 A 
ATOM      9  C   UNL d   1     -52.187  23.242  33.317  0.00  0.00     0.025 A 
ATOM     10  C   UNL d   1     -53.460  23.893  33.350  0.00  0.00     0.000 A 
ATOM     11  C   UNL d   1     -52.998  23.203  33.329  0.00  0.00     0.002 A 
ENDROOT
BRANCH   1  12
ATOM     12  C   UNL d   1     -50.719  26.209  33.352  0.00  0.00     0.284 C 
ATOM     13  N   UNL d   1     -51.187  26.893  33.317  0.00  0.00    -0.208 NA
ATOM     14  O   UNL d   1     -49.905  26.253  33.394  0.00  0.00    -0.265 OA
BRANCH  13  15
ATOM     15  C   UNL d   1     -50.808  27.632  33.326  0.00  0.00     0.085 A 
ATOM     16  C   UNL d   1     -51.245  28.338  33.325  0.00  0.00     0.021 A 
ATOM     17  C   UNL d   1     -50.860  29.059  33.334  0.00  0.00     0.031 A 
ATOM     18  C   UNL d   1     -50.041  29.093  33.345  0.00  0.00     0.140 A 
ATOM     19  C   UNL d   1     -49.596  28.391  33.346  0.00  0.00     0.031 A 
ATOM     20  F   UNL d   1     -49.659  29.811  33.354  0.00  0.00    -0.204 F 
ATOM     21  C   UNL d   1     -49.984  27.657  33.337  0.00  0.00     0.021 A 
ENDBRANCH  13  15
ENDBRANCH   1  12
TORSDOF 2
ENDMDL
