MODEL 1
REMARK VINA RESULT:      -7.5      0.000      0.000
REMARK  6 active torsions:
REMARK  status: ('A' for Active; 'I' for Inactive)
REMARK    1  A    between atoms: C_12  and  N_1 
REMARK    2  A    between atoms: N_8  and  C_2 
REMARK    3  A    between atoms: C_6  and  C_5 
REMARK    4  A    between atoms: C_7  and  C_6 
REMARK       I    between atoms: N_9  and  C_7 
REMARK    5  A    between atoms: C_19  and  N_8 
REMARK    6  A    between atoms: C_13  and  N_9 
ROOT
ATOM      1  N   UNL d   1      53.537  32.777  54.316  0.00  0.00    -0.252 N 
ATOM      2  C   UNL d   1      53.340  32.133  53.829  0.00  0.00     0.182 A 
ATOM      3  C   UNL d   1      53.128  33.442  54.033  0.00  0.00     0.272 A 
ATOM      4  S   UNL d   1      52.812  32.398  53.249  0.00  0.00    -0.045 SA
ATOM      5  C   UNL d   1      52.683  33.208  53.377  0.00  0.00     0.093 A 
ATOM      6  O   UNL d   1      53.163  34.212  54.357  0.00  0.00    -0.266 OA
ENDROOT
BRANCH   5   7
ATOM      7  C   UNL d   1      52.161  33.468  52.802  0.00  0.00     0.074 C 
BRANCH   7   8
ATOM      8  C   UNL d   1      51.373  33.707  52.796  0.00  0.00     0.280 C 
ATOM      9  N   UNL d   1      51.122  34.279  52.262  0.00  0.00    -0.208 NA
ATOM     10  O   UNL d   1      50.837  33.373  53.327  0.00  0.00    -0.265 OA
BRANCH   9  11
ATOM     11  C   UNL d   1      50.325  34.513  52.264  0.00  0.00     0.085 A 
ATOM     12  C   UNL d   1      49.859  34.352  51.605  0.00  0.00     0.019 A 
ATOM     13  C   UNL d   1      49.070  34.576  51.592  0.00  0.00     0.002 A 
ATOM     14  C   UNL d   1      48.748  34.962  52.240  0.00  0.00     0.000 A 
ATOM     15  C   UNL d   1      49.219  35.122  52.901  0.00  0.00     0.002 A 
ATOM     16  C   UNL d   1      47.956  35.192  52.237  0.00  0.00     0.000 C 
ATOM     17  C   UNL d   1      50.006  34.895  52.906  0.00  0.00     0.019 A 
ENDBRANCH   9  11
ENDBRANCH   7   8
ENDBRANCH   5   7
BRANCH   1  18
ATOM     18  C   UNL d   1      54.056  32.726  54.964  0.00  0.00     0.085 C 
ATOM     19  C   UNL d   1      54.655  33.283  55.073  0.00  0.00     0.021 C 
ENDBRANCH   1  18
BRANCH   2  20
ATOM     20  N   UNL d   1      53.577  31.337  53.845  0.00  0.00    -0.221 NA
BRANCH  20  21
ATOM     21  C   UNL d   1      53.326  30.649  53.464  0.00  0.00     0.101 C 
ATOM     22  C   UNL d   1      53.626  29.916  53.698  0.00  0.00     0.022 C 
ENDBRANCH  20  21
ENDBRANCH   2  20
TORSDOF 6
ENDMDL
MODEL 2
REMARK VINA RESULT:      -7.3      1.346      4.720
REMARK  6 active torsions:
REMARK  status: ('A' for Active; 'I' for Inactive)
REMARK    1  A    between atoms: C_12  and  N_1 
REMARK    2  A    between atoms: N_8  and  C_2 
REMARK    3  A    between atoms: C_6  and  C_5 
REMARK    4  A    between atoms: C_7  and  C_6 
REMARK       I    between atoms: N_9  and  C_7 
REMARK    5  A    between atoms: C_19  and  N_8 
REMARK    6  A    between atoms: C_13  and  N_9 
ROOT
ATOM      1  N   UNL d   1      52.529  34.523  53.444  0.00  0.00    -0.252 N 
ATOM      2  C   UNL d   1      51.825  34.196  53.149  0.00  0.00     0.182 A 
ATOM      3  C   UNL d   1      53.111  33.931  53.422  0.00  0.00     0.272 A 
ATOM      4  S   UNL d   1      51.969  33.407  52.946  0.00  0.00    -0.045 SA
ATOM      5  C   UNL d   1      52.765  33.245  53.116  0.00  0.00     0.093 A 
ATOM      6  O   UNL d   1      53.905  34.016  53.667  0.00  0.00    -0.266 OA
ENDROOT
BRANCH   5   7
ATOM      7  C   UNL d   1      52.906  32.464  52.915  0.00  0.00     0.074 C 
BRANCH   7   8
ATOM      8  C   UNL d   1      53.058  31.773  53.336  0.00  0.00     0.280 C 
ATOM      9  N   UNL d   1      52.937  31.041  52.980  0.00  0.00    -0.208 NA
ATOM     10  O   UNL d   1      53.330  31.814  54.114  0.00  0.00    -0.265 OA
BRANCH   9  11
ATOM     11  C   UNL d   1      53.093  30.350  53.414  0.00  0.00     0.085 A 
ATOM     12  C   UNL d   1      52.464  29.877  53.652  0.00  0.00     0.019 A 
ATOM     13  C   UNL d   1      52.601  29.192  54.081  0.00  0.00     0.002 A 
ATOM     14  C   UNL d   1      53.370  28.980  54.271  0.00  0.00     0.000 A 
ATOM     15  C   UNL d   1      54.001  29.457  54.030  0.00  0.00     0.002 A 
ATOM     16  C   UNL d   1      53.519  28.292  54.702  0.00  0.00     0.000 C 
ATOM     17  C   UNL d   1      53.855  30.140  53.602  0.00  0.00     0.019 A 
ENDBRANCH   9  11
ENDBRANCH   7   8
ENDBRANCH   5   7
BRANCH   1  18
ATOM     18  C   UNL d   1      52.601  35.309  53.705  0.00  0.00     0.085 C 
ATOM     19  C   UNL d   1      52.963  35.486  54.425  0.00  0.00     0.021 C 
ENDBRANCH   1  18
BRANCH   2  20
ATOM     20  N   UNL d   1      51.068  34.523  53.041  0.00  0.00    -0.221 NA
BRANCH  20  21
ATOM     21  C   UNL d   1      50.392  34.296  52.625  0.00  0.00     0.101 C 
ATOM     22  C   UNL d   1      49.692  34.726  52.711  0.00  0.00     0.022 C 
ENDBRANCH  20  21
ENDBRANCH   2  20
TORSDOF 6
ENDMDL
MODEL 3
REMARK VINA RESULT:      -6.4      1.497      5.156
REMARK  6 active torsions:
REMARK  status: ('A' for Active; 'I' for Inactive)
REMARK    1  A    between atoms: C_12  and  N_1 
REMARK    2  A    between atoms: N_8  and  C_2 
REMARK    3  A    between atoms: C_6  and  C_5 
REMARK    4  A    between atoms: C_7  and  C_6 
REMARK       I    between atoms: N_9  and  C_7 
REMARK    5  A    between atoms: C_19  and  N_8 
REMARK    6  A    between atoms: C_13  and  N_9 
ROOT
ATOM      1  N   UNL d   1      49.215  34.832  51.854  0.00  0.00    -0.252 N 
ATOM      2  C   UNL d   1      49.112  35.065  52.644  0.00  0.00     0.182 A 
ATOM      3  C   UNL d   1      49.966  34.481  51.790  0.00  0.00     0.272 A 
ATOM      4  S   UNL d   1      49.794  34.860  53.068  0.00  0.00    -0.045 SA
ATOM      5  C   UNL d   1      50.319  34.499  52.537  0.00  0.00     0.093 A 
ATOM      6  O   UNL d   1      50.300  34.166  51.092  0.00  0.00    -0.266 OA
ENDROOT
BRANCH   5   7
ATOM      7  C   UNL d   1      50.993  34.296  52.956  0.00  0.00     0.074 C 
BRANCH   7   8
ATOM      8  C   UNL d   1      51.381  33.591  53.128  0.00  0.00     0.280 C 
ATOM      9  N   UNL d   1      52.187  33.519  52.979  0.00  0.00    -0.208 NA
ATOM     10  O   UNL d   1      50.962  32.957  53.450  0.00  0.00    -0.265 OA
BRANCH   9  11
ATOM     11  C   UNL d   1      52.568  32.803  53.156  0.00  0.00     0.085 A 
ATOM     12  C   UNL d   1      53.124  32.785  53.763  0.00  0.00     0.019 A 
ATOM     13  C   UNL d   1      53.510  32.087  53.950  0.00  0.00     0.002 A 
ATOM     14  C   UNL d   1      53.339  31.404  53.529  0.00  0.00     0.000 A 
ATOM     15  C   UNL d   1      52.780  31.424  52.919  0.00  0.00     0.002 A 
ATOM     16  C   UNL d   1      53.722  30.696  53.710  0.00  0.00     0.000 C 
ATOM     17  C   UNL d   1      52.399  32.127  52.739  0.00  0.00     0.019 A 
ENDBRANCH   9  11
ENDBRANCH   7   8
ENDBRANCH   5   7
BRANCH   1  18
ATOM     18  C   UNL d   1      48.646  34.947  51.259  0.00  0.00     0.085 C 
ATOM     19  C   UNL d   1      48.525  34.380  50.672  0.00  0.00     0.021 C 
ENDBRANCH   1  18
BRANCH   2  20
ATOM     20  N   UNL d   1      48.479  35.440  53.031  0.00  0.00    -0.221 NA
BRANCH  20  21
ATOM     21  C   UNL d   1      48.407  35.910  53.706  0.00  0.00     0.101 C 
ATOM     22  C   UNL d   1      47.666  36.195  53.932  0.00  0.00     0.022 C 
ENDBRANCH  20  21
ENDBRANCH   2  20
TORSDOF 6
ENDMDL
MODEL 4
REMARK VINA RESULT:      -5.9      2.139      5.503
REMARK  6 active torsions:
REMARK  status: ('A' for Active; 'I' for Inactive)
REMARK    1  A    between atoms: C_12  and  N_1 
REMARK    2  A    between atoms: N_8  and  C_2 
REMARK    3  A    between atoms: C_6  and  C_5 
REMARK    4  A    between atoms: C_7  and  C_6 
REMARK       I    between atoms: N_9  and  C_7 
REMARK    5  A    between atoms: C_19  and  N_8 
REMARK    6  A    between atoms: C_13  and  N_9 
ROOT
ATOM      1  N   UNL d   1      47.895  36.053  53.103  0.00  0.00    -0.252 N 
ATOM      2  C   UNL d   1      47.633  35.674  52.412  0.00  0.00     0.182 A 
ATOM      3  C   UNL d   1      48.678  35.813  53.241  0.00  0.00     0.272 A 
ATOM      4  S   UNL d   1      48.249  35.203  52.123  0.00  0.00    -0.045 SA
ATOM      5  C   UNL d   1      48.894  35.291  52.637  0.00  0.00     0.093 A 
ATOM      6  O   UNL d   1      49.160  36.058  53.877  0.00  0.00    -0.266 OA
ENDROOT
BRANCH   5   7
ATOM      7  C   UNL d   1      49.503  34.825  52.350  0.00  0.00     0.074 C 
BRANCH   7   8
ATOM      8  C   UNL d   1      50.155  34.448  52.684  0.00  0.00     0.280 C 
ATOM      9  N   UNL d   1      50.890  34.500  52.320  0.00  0.00    -0.208 NA
ATOM     10  O   UNL d   1      50.070  34.019  53.384  0.00  0.00    -0.265 OA
BRANCH   9  11
ATOM     11  C   UNL d   1      51.541  34.117  52.665  0.00  0.00     0.085 A 
ATOM     12  C   UNL d   1      52.114  34.567  53.047  0.00  0.00     0.019 A 
ATOM     13  C   UNL d   1      52.762  34.203  53.393  0.00  0.00     0.002 A 
ATOM     14  C   UNL d   1      52.837  33.387  53.356  0.00  0.00     0.000 A 
ATOM     15  C   UNL d   1      52.260  32.937  52.971  0.00  0.00     0.002 A 
ATOM     16  C   UNL d   1      53.486  33.012  53.701  0.00  0.00     0.000 C 
ATOM     17  C   UNL d   1      51.615  33.309  52.628  0.00  0.00     0.019 A 
ENDBRANCH   9  11
ENDBRANCH   7   8
ENDBRANCH   5   7
BRANCH   1  18
ATOM     18  C   UNL d   1      47.427  36.574  53.552  0.00  0.00     0.085 C 
ATOM     19  C   UNL d   1      47.282  36.432  54.352  0.00  0.00     0.021 C 
ENDBRANCH   1  18
BRANCH   2  20
ATOM     20  N   UNL d   1      46.905  35.702  52.010  0.00  0.00    -0.221 NA
BRANCH  20  21
ATOM     21  C   UNL d   1      46.657  35.513  51.246  0.00  0.00     0.101 C 
ATOM     22  C   UNL d   1      45.856  35.549  51.053  0.00  0.00     0.022 C 
ENDBRANCH  20  21
ENDBRANCH   2  20
TORSDOF 6
ENDMDL
MODEL 5
REMARK VINA RESULT:      -4.6     10.127     11.302
REMARK  6 active torsions:
REMARK  status: ('A' for Active; 'I' for Inactive)
REMARK    1  A    between atoms: C_12  and  N_1 
REMARK    2  A    between atoms: N_8  and  C_2 
REMARK    3  A    between atoms: C_6  and  C_5 
REMARK    4  A    between atoms: C_7  and  C_6 
REMARK       I    between atoms: N_9  and  C_7 
REMARK    5  A    between atoms: C_19  and  N_8 
REMARK    6  A    between atoms: C_13  and  N_9 
ROOT
ATOM      1  N   UNL d   1      45.057  27.993  57.935  0.00  0.00    -0.252 N 
ATOM      2  C   UNL d   1      44.814  28.331  57.216  0.00  0.00     0.182 A 
ATOM      3  C   UNL d   1      44.987  27.168  57.864  0.00  0.00     0.272 A 
ATOM      4  S   UNL d   1      44.594  27.720  56.703  0.00  0.00    -0.045 SA
ATOM      5  C   UNL d   1      44.702  27.002  57.106  0.00  0.00     0.093 A 
ATOM      6  O   UNL d   1      45.173  26.609  58.455  0.00  0.00    -0.266 OA
ENDROOT
BRANCH   5   7
ATOM      7  C   UNL d   1      44.485  26.399  56.597  0.00  0.00     0.074 C 
BRANCH   7   8
ATOM      8  C   UNL d   1      44.817  25.680  56.371  0.00  0.00     0.280 C 
ATOM      9  N   UNL d   1      44.332  25.029  56.232  0.00  0.00    -0.208 NA
ATOM     10  O   UNL d   1      45.634  25.612  56.283  0.00  0.00    -0.265 OA
BRANCH   9  11
ATOM     11  C   UNL d   1      44.677  24.309  56.005  0.00  0.00     0.085 A 
ATOM     12  C   UNL d   1      44.887  24.198  55.217  0.00  0.00     0.019 A 
ATOM     13  C   UNL d   1      45.229  23.492  54.976  0.00  0.00     0.002 A 
ATOM     14  C   UNL d   1      45.360  22.898  55.525  0.00  0.00     0.000 A 
ATOM     15  C   UNL d   1      45.148  23.012  56.317  0.00  0.00     0.002 A 
ATOM     16  C   UNL d   1      45.704  22.184  55.293  0.00  0.00     0.000 C 
ATOM     17  C   UNL d   1      44.807  23.721  56.548  0.00  0.00     0.019 A 
ENDBRANCH   9  11
ENDBRANCH   7   8
ENDBRANCH   5   7
BRANCH   1  18
ATOM     18  C   UNL d   1      45.319  28.435  58.589  0.00  0.00     0.085 C 
ATOM     19  C   UNL d   1      44.957  28.358  59.326  0.00  0.00     0.021 C 
ENDBRANCH   1  18
BRANCH   2  20
ATOM     20  N   UNL d   1      44.765  29.122  56.967  0.00  0.00    -0.221 NA
BRANCH  20  21
ATOM     21  C   UNL d   1      44.662  29.496  56.238  0.00  0.00     0.101 C 
ATOM     22  C   UNL d   1      44.568  30.315  56.205  0.00  0.00     0.022 C 
ENDBRANCH  20  21
ENDBRANCH   2  20
TORSDOF 6
ENDMDL
