MODEL 1
REMARK VINA RESULT:      39.4      0.000      0.000
REMARK  3 active torsions:
REMARK  status: ('A' for Active; 'I' for Inactive)
REMARK    1  A    between atoms: C_4  and  S_1 
REMARK       I    between atoms: C_2  and  N_3 
REMARK    2  A    between atoms: C_9  and  C_2 
REMARK    3  A    between atoms: N_3  and  C_12 
ROOT
ATOM      1  C   UNL d   1      60.991  49.556  51.924  0.00  0.00     0.107 A 
ATOM      2  C   UNL d   1      60.926  49.515  51.107  0.00  0.00     0.015 A 
ATOM      3  C   UNL d   1      60.312  49.646  52.390  0.00  0.00     0.015 A 
ATOM      4  C   UNL d   1      59.510  49.653  51.206  0.00  0.00     0.085 A 
ATOM      5  C   UNL d   1      59.561  49.695  52.026  0.00  0.00     0.020 A 
ATOM      6  C   UNL d   1      60.175  49.564  50.743  0.00  0.00     0.020 A 
ENDROOT
BRANCH   4   7
ATOM      7  N   UNL d   1      58.749  49.702  50.837  0.00  0.00    -0.208 NA
ATOM      8  C   UNL d   1      58.278  49.031  50.760  0.00  0.00     0.279 C 
ATOM      9  O   UNL d   1      58.553  48.288  51.049  0.00  0.00    -0.265 OA
BRANCH   8  10
ATOM     10  C   UNL d   1      57.538  49.079  50.401  0.00  0.00     0.058 A 
ATOM     11  C   UNL d   1      56.904  49.485  50.789  0.00  0.00     0.005 A 
ATOM     12  C   UNL d   1      56.163  49.533  50.430  0.00  0.00     0.000 A 
ATOM     13  C   UNL d   1      56.039  49.177  49.674  0.00  0.00     0.000 A 
ATOM     14  C   UNL d   1      56.661  48.785  49.301  0.00  0.00     0.000 A 
ATOM     15  C   UNL d   1      57.402  48.736  49.661  0.00  0.00     0.005 A 
ENDBRANCH   8  10
ENDBRANCH   4   7
BRANCH   1  16
ATOM     16  S   UNL d   1      61.749  49.506  52.292  0.00  0.00     0.302 S 
ATOM     17  O   UNL d   1      62.117  49.545  51.538  0.00  0.00    -0.197 OA
ATOM     18  O   UNL d   1      61.387  49.468  53.032  0.00  0.00    -0.197 OA
ATOM     19  N   UNL d   1      62.490  49.458  52.651  0.00  0.00    -0.043 N 
ENDBRANCH   1  16
TORSDOF 3
ENDMDL
MODEL 2
REMARK VINA RESULT:      42.1      1.923      4.515
REMARK  3 active torsions:
REMARK  status: ('A' for Active; 'I' for Inactive)
REMARK    1  A    between atoms: C_4  and  S_1 
REMARK       I    between atoms: C_2  and  N_3 
REMARK    2  A    between atoms: C_9  and  C_2 
REMARK    3  A    between atoms: N_3  and  C_12 
ROOT
ATOM      1  C   UNL d   1      57.540  49.381  50.082  0.00  0.00     0.107 A 
ATOM      2  C   UNL d   1      58.234  49.593  49.698  0.00  0.00     0.015 A 
ATOM      3  C   UNL d   1      57.536  49.276  50.903  0.00  0.00     0.015 A 
ATOM      4  C   UNL d   1      58.929  49.597  50.943  0.00  0.00     0.085 A 
ATOM      5  C   UNL d   1      58.241  49.385  51.339  0.00  0.00     0.020 A 
ATOM      6  C   UNL d   1      58.938  49.702  50.134  0.00  0.00     0.020 A 
ENDROOT
BRANCH   4   7
ATOM      7  N   UNL d   1      59.643  49.708  51.385  0.00  0.00    -0.208 NA
ATOM      8  C   UNL d   1      60.326  49.292  51.187  0.00  0.00     0.279 C 
ATOM      9  O   UNL d   1      60.316  48.752  50.539  0.00  0.00    -0.265 OA
BRANCH   8  10
ATOM     10  C   UNL d   1      61.020  49.400  51.617  0.00  0.00     0.058 A 
ATOM     11  C   UNL d   1      61.766  49.425  51.218  0.00  0.00     0.005 A 
ATOM     12  C   UNL d   1      62.462  49.533  51.649  0.00  0.00     0.000 A 
ATOM     13  C   UNL d   1      62.426  49.618  52.489  0.00  0.00     0.000 A 
ATOM     14  C   UNL d   1      61.695  49.592  52.870  0.00  0.00     0.000 A 
ATOM     15  C   UNL d   1      61.000  49.484  52.439  0.00  0.00     0.005 A 
ENDBRANCH   8  10
ENDBRANCH   4   7
BRANCH   1  16
ATOM     16  S   UNL d   1      56.829  49.271  49.641  0.00  0.00     0.302 S 
ATOM     17  O   UNL d   1      56.502  48.831  50.277  0.00  0.00    -0.197 OA
ATOM     18  O   UNL d   1      57.149  49.704  49.016  0.00  0.00    -0.197 OA
ATOM     19  N   UNL d   1      56.133  49.163  49.210  0.00  0.00    -0.043 N 
ENDBRANCH   1  16
TORSDOF 3
ENDMDL
