MODEL 1
REMARK VINA RESULT:      15.3      0.000      0.000
REMARK  6 active torsions:
REMARK  status: ('A' for Active; 'I' for Inactive)
REMARK    1  A    between atoms: N_6  and  S_1 
REMARK    2  A    between atoms: C_12  and  S_1 
REMARK    3  A    between atoms: C_2  and  N_5 
REMARK    4  A    between atoms: C_4  and  C_7 
REMARK       I    between atoms: N_5  and  C_4 
REMARK    5  A    between atoms: C_10  and  N_6 
REMARK    6  A    between atoms: C_15  and  C_8 
ROOT
ATOM      1  C   UNL d   1     -43.502-121.790 -51.166  0.00  0.00     0.076 A 
ATOM      2  C   UNL d   1     -43.252-122.041 -50.427  0.00  0.00     0.098 A 
ATOM      3  C   UNL d   1     -44.283-121.551 -51.277  0.00  0.00     0.006 A 
ATOM      4  C   UNL d   1     -43.783-122.054 -49.791  0.00  0.00     0.020 A 
ATOM      5  C   UNL d   1     -44.814-121.564 -50.641  0.00  0.00     0.000 A 
ATOM      6  C   UNL d   1     -44.561-121.817 -49.896  0.00  0.00     0.002 A 
ENDROOT
BRANCH   1   7
ATOM      7  C   UNL d   1     -42.973-121.777 -51.799  0.00  0.00     0.282 C 
ATOM      8  N   UNL d   1     -43.021-122.346 -52.385  0.00  0.00    -0.183 NA
ATOM      9  O   UNL d   1     -42.397-121.189 -51.840  0.00  0.00    -0.265 OA
BRANCH   8  10
ATOM     10  C   UNL d   1     -42.489-122.333 -53.021  0.00  0.00     0.197 A 
ATOM     11  N   UNL d   1     -42.646-122.041 -53.757  0.00  0.00    -0.221 NA
ATOM     12  C   UNL d   1     -41.972-122.135 -54.220  0.00  0.00     0.090 A 
ATOM     13  C   UNL d   1     -41.394-122.494 -53.745  0.00  0.00     0.058 A 
ATOM     14  S   UNL d   1     -41.718-122.619 -52.994  0.00  0.00    -0.046 SA
BRANCH  12  15
ATOM     15  C   UNL d   1     -41.802-121.944 -55.005  0.00  0.00     0.018 A 
ATOM     16  C   UNL d   1     -42.101-121.241 -55.338  0.00  0.00     0.004 A 
ATOM     17  C   UNL d   1     -41.930-121.053 -56.123  0.00  0.00     0.030 A 
ATOM     18  C   UNL d   1     -41.462-121.566 -56.569  0.00  0.00     0.140 A 
ATOM     19  C   UNL d   1     -41.167-122.259 -56.240  0.00  0.00     0.030 A 
ATOM     20  F   UNL d   1     -41.290-121.381 -57.351  0.00  0.00    -0.204 F 
ATOM     21  C   UNL d   1     -41.334-122.451 -55.461  0.00  0.00     0.004 A 
ENDBRANCH  12  15
ENDBRANCH   8  10
ENDBRANCH   1   7
BRANCH   2  22
ATOM     22  N   UNL d   1     -42.471-122.280 -50.316  0.00  0.00    -0.158 NA
BRANCH  22  23
ATOM     23  S   UNL d   1     -42.223-122.591 -49.567  0.00  0.00     0.285 S 
ATOM     24  O   UNL d   1     -41.683-121.973 -49.504  0.00  0.00    -0.198 OA
ATOM     25  O   UNL d   1     -42.781-123.207 -49.660  0.00  0.00    -0.198 OA
BRANCH  23  26
ATOM     26  C   UNL d   1     -41.986-122.889 -48.849  0.00  0.00     0.105 A 
ATOM     27  C   UNL d   1     -41.373-123.439 -48.824  0.00  0.00     0.013 A 
ATOM     28  C   UNL d   1     -41.124-123.751 -48.076  0.00  0.00     0.001 A 
ATOM     29  C   UNL d   1     -41.492-123.506 -47.393  0.00  0.00     0.000 A 
ATOM     30  C   UNL d   1     -42.115-122.947 -47.426  0.00  0.00     0.001 A 
ATOM     31  C   UNL d   1     -41.241-123.817 -46.677  0.00  0.00     0.000 C 
ATOM     32  C   UNL d   1     -42.359-122.641 -48.156  0.00  0.00     0.013 A 
ENDBRANCH  23  26
ENDBRANCH  22  23
ENDBRANCH   2  22
TORSDOF 6
ENDMDL
