MODEL 1
REMARK VINA RESULT:      40.0      0.000      0.000
REMARK  6 active torsions:
REMARK  status: ('A' for Active; 'I' for Inactive)
REMARK    1  A    between atoms: C_8  and  C_1 
REMARK    2  A    between atoms: S_10  and  C_2 
REMARK    3  A    between atoms: C_7  and  C_4 
REMARK    4  A    between atoms: C_23  and  S_10 
REMARK    5  A    between atoms: C_16  and  C_23 
REMARK    6  A    between atoms: O_25  and  C_16 
ROOT
ATOM      1  C   UNL d   1      14.215  13.976  -2.338  0.00  0.00     0.045 A 
ATOM      2  C   UNL d   1      13.928  13.249  -2.696  0.00  0.00     0.112 A 
ATOM      3  C   UNL d   1      14.629  13.226  -1.187  0.00  0.00     0.057 A 
ATOM      4  C   UNL d   1      14.559  13.947  -1.590  0.00  0.00     0.008 A 
ATOM      5  C   UNL d   1      14.353  12.526  -1.531  0.00  0.00     0.085 A 
ATOM      6  N   UNL d   1      14.005  12.539  -2.283  0.00  0.00    -0.239 NA
ATOM      7  C   UNL d   1      14.976  13.216  -0.440  0.00  0.00     0.197 A 
ATOM      8  O   UNL d   1      15.253  13.920  -0.093  0.00  0.00    -0.286 OA
ATOM      9  C   UNL d   1      14.421  11.809  -1.133  0.00  0.00     0.019 A 
ATOM     10  C   UNL d   1      15.052  12.507  -0.026  0.00  0.00     0.042 A 
ATOM     11  C   UNL d   1      14.766  11.779  -0.384  0.00  0.00     0.005 A 
ENDROOT
BRANCH   4  12
ATOM     12  C   UNL d   1      14.837  14.650  -1.243  0.00  0.00     0.002 A 
ATOM     13  C   UNL d   1      14.833  15.356  -1.667  0.00  0.00     0.026 A 
ATOM     14  C   UNL d   1      15.109  16.055  -1.323  0.00  0.00     0.119 A 
ATOM     15  O   UNL d   1      15.172  16.836  -1.607  0.00  0.00    -0.300 OA
ATOM     16  C   UNL d   1      15.390  16.053  -0.552  0.00  0.00     0.119 A 
ATOM     17  C   UNL d   1      15.486  17.293  -1.017  0.00  0.00     0.304 A 
ATOM     18  O   UNL d   1      15.621  16.824  -0.373  0.00  0.00    -0.300 OA
ATOM     19  C   UNL d   1      15.397  15.311  -0.097  0.00  0.00     0.026 A 
ATOM     20  C   UNL d   1      15.119  14.627  -0.457  0.00  0.00     0.002 A 
ENDBRANCH   4  12
BRANCH   1  21
ATOM     21  C   UNL d   1      14.154  14.731  -2.736  0.00  0.00     0.124 C 
ATOM     22  N   UNL d   1      13.926  14.761  -3.519  0.00  0.00    -0.146 N 
ENDBRANCH   1  21
BRANCH   2  23
ATOM     23  S   UNL d   1      13.565  13.238  -3.471  0.00  0.00    -0.062 SA
BRANCH  23  24
ATOM     24  C   UNL d   1      13.330  12.528  -3.800  0.00  0.00     0.105 C 
BRANCH  24  25
ATOM     25  C   UNL d   1      13.231  12.467  -4.616  0.00  0.00     0.303 C 
ATOM     26  O   UNL d   1      12.771  13.017  -5.017  0.00  0.00    -0.259 OA
BRANCH  25  27
ATOM     27  O   UNL d   1      13.592  11.855  -5.029  0.00  0.00    -0.295 OA
ATOM     28  C   UNL d   1      13.498  11.779  -5.846  0.00  0.00     0.185 C 
ENDBRANCH  25  27
ENDBRANCH  24  25
ENDBRANCH  23  24
ENDBRANCH   2  23
TORSDOF 6
ENDMDL
