MODEL 1
REMARK VINA RESULT:      63.6      0.000      0.000
REMARK  4 active torsions:
REMARK  status: ('A' for Active; 'I' for Inactive)
REMARK    1  A    between atoms: C_5  and  N_1 
REMARK    2  A    between atoms: C_9  and  C_3 
REMARK    3  A    between atoms: C_7  and  C_4 
REMARK    4  A    between atoms: N_10  and  C_5 
ROOT
ATOM      1  N   UNL d   1      59.937  49.274  51.293  0.00  0.00    -0.203 N 
ATOM      2  N   UNL d   1      59.176  49.600  51.305  0.00  0.00    -0.163 NA
ATOM      3  C   UNL d   1      58.696  49.197  50.796  0.00  0.00     0.103 A 
ATOM      4  C   UNL d   1      59.939  48.637  50.754  0.00  0.00     0.087 A 
ATOM      5  C   UNL d   1      59.174  48.584  50.443  0.00  0.00     0.040 A 
ENDROOT
BRANCH   4   6
ATOM      6  C   UNL d   1      60.564  48.137  50.547  0.00  0.00     0.018 A 
ATOM      7  C   UNL d   1      60.966  48.233  49.839  0.00  0.00     0.002 A 
ATOM      8  C   UNL d   1      61.588  47.734  49.634  0.00  0.00     0.007 A 
ATOM      9  C   UNL d   1      61.809  47.130  50.146  0.00  0.00     0.035 A 
ATOM     10  C   UNL d   1      61.424  47.025  50.842  0.00  0.00     0.007 A 
ATOM     11 BR   UNL d   1      62.446  46.632  49.918  0.00  0.00    -0.049 Br
ATOM     12  C   UNL d   1      60.799  47.526  51.049  0.00  0.00     0.002 A 
ENDBRANCH   4   6
BRANCH   1  13
ATOM     13  C   UNL d   1      60.600  49.534  51.745  0.00  0.00     0.222 C 
ATOM     14  S   UNL d   1      61.326  49.707  51.344  0.00  0.00    -0.037 SA
BRANCH  13  15
ATOM     15  N   UNL d   1      60.555  49.626  52.584  0.00  0.00    -0.214 NA
ATOM     16  C   UNL d   1      61.246  49.577  53.046  0.00  0.00     0.122 C 
ENDBRANCH  13  15
ENDBRANCH   1  13
BRANCH   3  17
ATOM     17  C   UNL d   1      57.891  49.366  50.659  0.00  0.00     0.019 A 
ATOM     18  C   UNL d   1      57.383  49.536  51.284  0.00  0.00     0.002 A 
ATOM     19  C   UNL d   1      56.579  49.702  51.126  0.00  0.00     0.000 A 
ATOM     20  C   UNL d   1      56.303  49.696  50.356  0.00  0.00     0.000 A 
ATOM     21  C   UNL d   1      56.827  49.524  49.742  0.00  0.00     0.000 A 
ATOM     22  C   UNL d   1      57.606  49.362  49.889  0.00  0.00     0.002 A 
ENDBRANCH   3  17
TORSDOF 4
ENDMDL
