MODEL 1
REMARK VINA RESULT:      -7.9      0.000      0.000
REMARK  4 active torsions:
REMARK  status: ('A' for Active; 'I' for Inactive)
REMARK    1  A    between atoms: C_3  and  C_1 
REMARK    2  A    between atoms: C_2  and  C_3 
REMARK    3  A    between atoms: C_6  and  C_2 
REMARK    4  A    between atoms: C_16  and  C_6 
ROOT
ATOM      1  C   UNL d   1      53.270  34.364  54.124  0.00  0.00     0.119 A 
ATOM      2  C   UNL d   1      53.561  34.507  54.879  0.00  0.00     0.119 A 
ATOM      3  O   UNL d   1      52.812  35.013  53.907  0.00  0.00    -0.300 OA
ATOM      4  O   UNL d   1      53.285  35.241  55.130  0.00  0.00    -0.300 OA
ATOM      5  C   UNL d   1      52.818  35.552  54.520  0.00  0.00     0.304 A 
ATOM      6  C   UNL d   1      53.461  33.662  53.733  0.00  0.00     0.026 A 
ATOM      7  C   UNL d   1      53.952  33.096  54.108  0.00  0.00     0.002 A 
ATOM      8  C   UNL d   1      54.052  33.941  55.254  0.00  0.00     0.026 A 
ATOM      9  C   UNL d   1      54.248  33.236  54.871  0.00  0.00     0.002 A 
ENDROOT
BRANCH   7  10
ATOM     10  C   UNL d   1      54.155  32.373  53.721  0.00  0.00     0.003 C 
BRANCH  10  11
ATOM     11  C   UNL d   1      53.644  31.726  53.792  0.00  0.00     0.043 C 
BRANCH  11  12
ATOM     12  C   UNL d   1      53.842  31.017  53.422  0.00  0.00     0.202 C 
ATOM     13  O   UNL d   1      54.536  30.964  52.982  0.00  0.00    -0.286 OA
BRANCH  12  14
ATOM     14  C   UNL d   1      53.351  30.358  53.489  0.00  0.00     0.068 A 
ATOM     15  S   UNL d   1      52.647  30.144  53.099  0.00  0.00    -0.083 SA
ATOM     16  C   UNL d   1      52.406  29.423  53.397  0.00  0.00     0.035 A 
ATOM     17  C   UNL d   1      52.944  29.190  53.959  0.00  0.00     0.008 A 
ATOM     18  C   UNL d   1      53.528  29.756  54.023  0.00  0.00     0.010 A 
ENDBRANCH  12  14
ENDBRANCH  11  12
ENDBRANCH  10  11
ENDBRANCH   7  10
TORSDOF 4
ENDMDL
MODEL 2
REMARK VINA RESULT:      -7.8      1.637      4.424
REMARK  4 active torsions:
REMARK  status: ('A' for Active; 'I' for Inactive)
REMARK    1  A    between atoms: C_3  and  C_1 
REMARK    2  A    between atoms: C_2  and  C_3 
REMARK    3  A    between atoms: C_6  and  C_2 
REMARK    4  A    between atoms: C_16  and  C_6 
ROOT
ATOM      1  C   UNL d   1      53.317  29.993  54.019  0.00  0.00     0.119 A 
ATOM      2  C   UNL d   1      52.804  29.867  53.390  0.00  0.00     0.119 A 
ATOM      3  O   UNL d   1      53.330  29.305  54.471  0.00  0.00    -0.300 OA
ATOM      4  O   UNL d   1      52.500  29.104  53.449  0.00  0.00    -0.300 OA
ATOM      5  C   UNL d   1      52.831  28.757  54.126  0.00  0.00     0.304 A 
ATOM      6  C   UNL d   1      53.704  30.718  54.098  0.00  0.00     0.026 A 
ATOM      7  C   UNL d   1      53.574  31.325  53.536  0.00  0.00     0.002 A 
ATOM      8  C   UNL d   1      52.674  30.474  52.827  0.00  0.00     0.026 A 
ATOM      9  C   UNL d   1      53.057  31.202  52.898  0.00  0.00     0.002 A 
ENDROOT
BRANCH   7  10
ATOM     10  C   UNL d   1      53.963  32.071  53.604  0.00  0.00     0.003 C 
BRANCH  10  11
ATOM     11  C   UNL d   1      53.526  32.726  53.860  0.00  0.00     0.043 C 
BRANCH  11  12
ATOM     12  C   UNL d   1      53.918  33.436  54.007  0.00  0.00     0.202 C 
ATOM     13  O   UNL d   1      54.741  33.462  53.990  0.00  0.00    -0.286 OA
BRANCH  12  14
ATOM     14  C   UNL d   1      53.492  34.122  54.172  0.00  0.00     0.068 A 
ATOM     15  S   UNL d   1      53.320  34.515  54.886  0.00  0.00    -0.083 SA
ATOM     16  C   UNL d   1      52.873  35.174  54.706  0.00  0.00     0.035 A 
ATOM     17  C   UNL d   1      52.767  35.196  53.902  0.00  0.00     0.008 A 
ATOM     18  C   UNL d   1      53.143  34.555  53.564  0.00  0.00     0.010 A 
ENDBRANCH  12  14
ENDBRANCH  11  12
ENDBRANCH  10  11
ENDBRANCH   7  10
TORSDOF 4
ENDMDL
MODEL 3
REMARK VINA RESULT:      -7.7      1.969      4.407
REMARK  4 active torsions:
REMARK  status: ('A' for Active; 'I' for Inactive)
REMARK    1  A    between atoms: C_3  and  C_1 
REMARK    2  A    between atoms: C_2  and  C_3 
REMARK    3  A    between atoms: C_6  and  C_2 
REMARK    4  A    between atoms: C_16  and  C_6 
ROOT
ATOM      1  C   UNL d   1      53.284  30.056  54.265  0.00  0.00     0.119 A 
ATOM      2  C   UNL d   1      53.089  29.544  53.653  0.00  0.00     0.119 A 
ATOM      3  O   UNL d   1      53.422  29.599  54.937  0.00  0.00    -0.300 OA
ATOM      4  O   UNL d   1      53.106  28.773  53.942  0.00  0.00    -0.300 OA
ATOM      5  C   UNL d   1      53.314  28.813  54.744  0.00  0.00     0.304 A 
ATOM      6  C   UNL d   1      53.310  30.870  54.132  0.00  0.00     0.026 A 
ATOM      7  C   UNL d   1      53.137  31.174  53.370  0.00  0.00     0.002 A 
ATOM      8  C   UNL d   1      52.916  29.847  52.892  0.00  0.00     0.026 A 
ATOM      9  C   UNL d   1      52.940  30.660  52.748  0.00  0.00     0.002 A 
ENDROOT
BRANCH   7  10
ATOM     10  C   UNL d   1      53.160  32.005  53.218  0.00  0.00     0.003 C 
BRANCH  10  11
ATOM     11  C   UNL d   1      52.447  32.405  53.089  0.00  0.00     0.043 C 
BRANCH  11  12
ATOM     12  C   UNL d   1      52.449  33.229  53.062  0.00  0.00     0.202 C 
ATOM     13  O   UNL d   1      53.149  33.641  53.199  0.00  0.00    -0.286 OA
BRANCH  12  14
ATOM     14  C   UNL d   1      51.757  33.644  52.897  0.00  0.00     0.068 A 
ATOM     15  S   UNL d   1      51.052  33.747  53.327  0.00  0.00    -0.083 SA
ATOM     16  C   UNL d   1      50.556  34.220  52.883  0.00  0.00     0.035 A 
ATOM     17  C   UNL d   1      50.939  34.410  52.193  0.00  0.00     0.008 A 
ATOM     18  C   UNL d   1      51.676  34.062  52.191  0.00  0.00     0.010 A 
ENDBRANCH  12  14
ENDBRANCH  11  12
ENDBRANCH  10  11
ENDBRANCH   7  10
TORSDOF 4
ENDMDL
MODEL 4
REMARK VINA RESULT:      -7.2      2.399      3.485
REMARK  4 active torsions:
REMARK  status: ('A' for Active; 'I' for Inactive)
REMARK    1  A    between atoms: C_3  and  C_1 
REMARK    2  A    between atoms: C_2  and  C_3 
REMARK    3  A    between atoms: C_6  and  C_2 
REMARK    4  A    between atoms: C_16  and  C_6 
ROOT
ATOM      1  C   UNL d   1      50.522  34.026  53.035  0.00  0.00     0.119 A 
ATOM      2  C   UNL d   1      50.634  34.343  52.286  0.00  0.00     0.119 A 
ATOM      3  O   UNL d   1      49.790  34.286  53.307  0.00  0.00    -0.300 OA
ATOM      4  O   UNL d   1      49.976  34.798  52.093  0.00  0.00    -0.300 OA
ATOM      5  C   UNL d   1      49.451  34.759  52.734  0.00  0.00     0.304 A 
ATOM      6  C   UNL d   1      51.100  33.542  53.371  0.00  0.00     0.026 A 
ATOM      7  C   UNL d   1      51.803  33.375  52.946  0.00  0.00     0.002 A 
ATOM      8  C   UNL d   1      51.337  34.176  51.861  0.00  0.00     0.026 A 
ATOM      9  C   UNL d   1      51.921  33.693  52.189  0.00  0.00     0.002 A 
ENDROOT
BRANCH   7  10
ATOM     10  C   UNL d   1      52.404  32.881  53.277  0.00  0.00     0.003 C 
BRANCH  10  11
ATOM     11  C   UNL d   1      53.026  33.236  53.691  0.00  0.00     0.043 C 
BRANCH  11  12
ATOM     12  C   UNL d   1      53.601  32.758  54.038  0.00  0.00     0.202 C 
ATOM     13  O   UNL d   1      53.585  31.944  53.914  0.00  0.00    -0.286 OA
BRANCH  12  14
ATOM     14  C   UNL d   1      54.192  33.087  54.508  0.00  0.00     0.068 A 
ATOM     15  S   UNL d   1      54.892  33.497  54.321  0.00  0.00    -0.083 SA
ATOM     16  C   UNL d   1      55.262  33.692  55.021  0.00  0.00     0.035 A 
ATOM     17  C   UNL d   1      54.808  33.412  55.633  0.00  0.00     0.008 A 
ATOM     18  C   UNL d   1      54.149  33.039  55.330  0.00  0.00     0.010 A 
ENDBRANCH  12  14
ENDBRANCH  11  12
ENDBRANCH  10  11
ENDBRANCH   7  10
TORSDOF 4
ENDMDL
MODEL 5
REMARK VINA RESULT:      -7.0      1.644      1.975
REMARK  4 active torsions:
REMARK  status: ('A' for Active; 'I' for Inactive)
REMARK    1  A    between atoms: C_3  and  C_1 
REMARK    2  A    between atoms: C_2  and  C_3 
REMARK    3  A    between atoms: C_6  and  C_2 
REMARK    4  A    between atoms: C_16  and  C_6 
ROOT
ATOM      1  C   UNL d   1      51.155  33.889  52.836  0.00  0.00     0.119 A 
ATOM      2  C   UNL d   1      51.313  34.603  53.210  0.00  0.00     0.119 A 
ATOM      3  O   UNL d   1      50.383  33.923  52.552  0.00  0.00    -0.300 OA
ATOM      4  O   UNL d   1      50.642  35.079  53.159  0.00  0.00    -0.300 OA
ATOM      5  C   UNL d   1      50.065  34.649  52.748  0.00  0.00     0.304 A 
ATOM      6  C   UNL d   1      51.735  33.303  52.803  0.00  0.00     0.026 A 
ATOM      7  C   UNL d   1      52.485  33.437  53.151  0.00  0.00     0.002 A 
ATOM      8  C   UNL d   1      52.063  34.737  53.559  0.00  0.00     0.026 A 
ATOM      9  C   UNL d   1      52.649  34.156  53.531  0.00  0.00     0.002 A 
ENDROOT
BRANCH   7  10
ATOM     10  C   UNL d   1      53.088  32.845  53.125  0.00  0.00     0.003 C 
BRANCH  10  11
ATOM     11  C   UNL d   1      52.898  32.074  53.359  0.00  0.00     0.043 C 
BRANCH  11  12
ATOM     12  C   UNL d   1      53.501  31.514  53.418  0.00  0.00     0.202 C 
ATOM     13  O   UNL d   1      54.288  31.755  53.392  0.00  0.00    -0.286 OA
BRANCH  12  14
ATOM     14  C   UNL d   1      53.322  30.714  53.503  0.00  0.00     0.068 A 
ATOM     15  S   UNL d   1      52.917  30.177  53.013  0.00  0.00    -0.083 SA
ATOM     16  C   UNL d   1      52.911  29.452  53.389  0.00  0.00     0.035 A 
ATOM     17  C   UNL d   1      53.302  29.531  54.096  0.00  0.00     0.008 A 
ATOM     18  C   UNL d   1      53.558  30.302  54.177  0.00  0.00     0.010 A 
ENDBRANCH  12  14
ENDBRANCH  11  12
ENDBRANCH  10  11
ENDBRANCH   7  10
TORSDOF 4
ENDMDL
MODEL 6
REMARK VINA RESULT:      -6.9      2.497      3.724
REMARK  4 active torsions:
REMARK  status: ('A' for Active; 'I' for Inactive)
REMARK    1  A    between atoms: C_3  and  C_1 
REMARK    2  A    between atoms: C_2  and  C_3 
REMARK    3  A    between atoms: C_6  and  C_2 
REMARK    4  A    between atoms: C_16  and  C_6 
ROOT
ATOM      1  C   UNL d   1      54.059  33.749  54.586  0.00  0.00     0.119 A 
ATOM      2  C   UNL d   1      54.167  32.956  54.770  0.00  0.00     0.119 A 
ATOM      3  O   UNL d   1      54.503  34.191  55.122  0.00  0.00    -0.300 OA
ATOM      4  O   UNL d   1      54.675  32.904  55.416  0.00  0.00    -0.300 OA
ATOM      5  C   UNL d   1      54.882  33.677  55.632  0.00  0.00     0.304 A 
ATOM      6  C   UNL d   1      53.572  33.966  53.956  0.00  0.00     0.026 A 
ATOM      7  C   UNL d   1      53.187  33.375  53.504  0.00  0.00     0.002 A 
ATOM      8  C   UNL d   1      53.782  32.365  54.318  0.00  0.00     0.026 A 
ATOM      9  C   UNL d   1      53.292  32.572  53.686  0.00  0.00     0.002 A 
ENDROOT
BRANCH   7  10
ATOM     10  C   UNL d   1      52.685  33.583  52.857  0.00  0.00     0.003 C 
BRANCH  10  11
ATOM     11  C   UNL d   1      51.915  33.839  53.017  0.00  0.00     0.043 C 
BRANCH  11  12
ATOM     12  C   UNL d   1      51.430  34.067  52.390  0.00  0.00     0.202 C 
ATOM     13  O   UNL d   1      51.715  34.034  51.618  0.00  0.00    -0.286 OA
BRANCH  12  14
ATOM     14  C   UNL d   1      50.661  34.328  52.529  0.00  0.00     0.068 A 
ATOM     15  S   UNL d   1      50.283  34.614  53.213  0.00  0.00    -0.083 SA
ATOM     16  C   UNL d   1      49.511  34.790  53.016  0.00  0.00     0.035 A 
ATOM     17  C   UNL d   1      49.405  34.621  52.229  0.00  0.00     0.008 A 
ATOM     18  C   UNL d   1      50.105  34.337  51.920  0.00  0.00     0.010 A 
ENDBRANCH  12  14
ENDBRANCH  11  12
ENDBRANCH  10  11
ENDBRANCH   7  10
TORSDOF 4
ENDMDL
MODEL 7
REMARK VINA RESULT:      -5.8      3.568      5.169
REMARK  4 active torsions:
REMARK  status: ('A' for Active; 'I' for Inactive)
REMARK    1  A    between atoms: C_3  and  C_1 
REMARK    2  A    between atoms: C_2  and  C_3 
REMARK    3  A    between atoms: C_6  and  C_2 
REMARK    4  A    between atoms: C_16  and  C_6 
ROOT
ATOM      1  C   UNL d   1      52.269  33.017  53.081  0.00  0.00     0.119 A 
ATOM      2  C   UNL d   1      52.764  33.581  53.414  0.00  0.00     0.119 A 
ATOM      3  O   UNL d   1      52.608  32.279  53.215  0.00  0.00    -0.300 OA
ATOM      4  O   UNL d   1      53.408  33.196  53.753  0.00  0.00    -0.300 OA
ATOM      5  C   UNL d   1      53.305  32.383  53.626  0.00  0.00     0.304 A 
ATOM      6  C   UNL d   1      51.574  33.249  52.699  0.00  0.00     0.026 A 
ATOM      7  C   UNL d   1      51.376  34.062  52.653  0.00  0.00     0.002 A 
ATOM      8  C   UNL d   1      52.566  34.394  53.367  0.00  0.00     0.026 A 
ATOM      9  C   UNL d   1      51.874  34.636  52.988  0.00  0.00     0.002 A 
ENDROOT
BRANCH   7  10
ATOM     10  C   UNL d   1      50.669  34.315  52.265  0.00  0.00     0.003 C 
BRANCH  10  11
ATOM     11  C   UNL d   1      50.050  34.616  52.725  0.00  0.00     0.043 C 
BRANCH  11  12
ATOM     12  C   UNL d   1      49.341  34.820  52.358  0.00  0.00     0.202 C 
ATOM     13  O   UNL d   1      49.161  34.514  51.615  0.00  0.00    -0.286 OA
BRANCH  12  14
ATOM     14  C   UNL d   1      48.808  35.329  52.728  0.00  0.00     0.068 A 
ATOM     15  S   UNL d   1      48.775  35.637  53.501  0.00  0.00    -0.083 SA
ATOM     16  C   UNL d   1      48.116  36.115  53.550  0.00  0.00     0.035 A 
ATOM     17  C   UNL d   1      47.744  36.109  52.828  0.00  0.00     0.008 A 
ATOM     18  C   UNL d   1      48.160  35.629  52.316  0.00  0.00     0.010 A 
ENDBRANCH  12  14
ENDBRANCH  11  12
ENDBRANCH  10  11
ENDBRANCH   7  10
TORSDOF 4
ENDMDL
MODEL 8
REMARK VINA RESULT:      -5.6      3.636      4.807
REMARK  4 active torsions:
REMARK  status: ('A' for Active; 'I' for Inactive)
REMARK    1  A    between atoms: C_3  and  C_1 
REMARK    2  A    between atoms: C_2  and  C_3 
REMARK    3  A    between atoms: C_6  and  C_2 
REMARK    4  A    between atoms: C_16  and  C_6 
ROOT
ATOM      1  C   UNL d   1      48.890  35.318  52.872  0.00  0.00     0.119 A 
ATOM      2  C   UNL d   1      48.565  35.298  52.118  0.00  0.00     0.119 A 
ATOM      3  O   UNL d   1      48.423  35.818  53.330  0.00  0.00    -0.300 OA
ATOM      4  O   UNL d   1      47.899  35.782  52.107  0.00  0.00    -0.300 OA
ATOM      5  C   UNL d   1      47.815  36.105  52.866  0.00  0.00     0.304 A 
ATOM      6  C   UNL d   1      49.568  34.879  53.042  0.00  0.00     0.026 A 
ATOM      7  C   UNL d   1      49.924  34.413  52.444  0.00  0.00     0.002 A 
ATOM      8  C   UNL d   1      48.921  34.831  51.520  0.00  0.00     0.026 A 
ATOM      9  C   UNL d   1      49.599  34.389  51.681  0.00  0.00     0.002 A 
ENDROOT
BRANCH   7  10
ATOM     10  C   UNL d   1      50.618  33.958  52.604  0.00  0.00     0.003 C 
BRANCH  10  11
ATOM     11  C   UNL d   1      51.257  34.327  52.980  0.00  0.00     0.043 C 
BRANCH  11  12
ATOM     12  C   UNL d   1      51.945  33.895  53.117  0.00  0.00     0.202 C 
ATOM     13  O   UNL d   1      52.073  33.188  52.712  0.00  0.00    -0.286 OA
BRANCH  12  14
ATOM     14  C   UNL d   1      52.509  34.163  53.655  0.00  0.00     0.068 A 
ATOM     15  S   UNL d   1      52.828  34.918  53.801  0.00  0.00    -0.083 SA
ATOM     16  C   UNL d   1      53.370  34.847  54.406  0.00  0.00     0.035 A 
ATOM     17  C   UNL d   1      53.393  34.068  54.635  0.00  0.00     0.008 A 
ATOM     18  C   UNL d   1      52.868  33.640  54.181  0.00  0.00     0.010 A 
ENDBRANCH  12  14
ENDBRANCH  11  12
ENDBRANCH  10  11
ENDBRANCH   7  10
TORSDOF 4
ENDMDL
