MODEL 1
REMARK VINA RESULT:      -2.4      0.000      0.000
REMARK  8 active torsions:
REMARK  status: ('A' for Active; 'I' for Inactive)
REMARK    1  A    between atoms: N_2  and  C_1 
REMARK    2  A    between atoms: N_3  and  C_1 
REMARK    3  A    between atoms: C_6  and  C_1 
REMARK       I    between atoms: C_4  and  N_2 
REMARK       I    between atoms: C_5  and  N_3 
REMARK    4  A    between atoms: O_11  and  C_4 
REMARK    5  A    between atoms: O_12  and  C_5 
REMARK    6  A    between atoms: C_10  and  C_6 
REMARK    7  A    between atoms: C_15  and  O_11 
REMARK    8  A    between atoms: C_16  and  O_12 
ROOT
ATOM      1  C   UNL d   1      58.403  -0.609  29.714  0.00  0.00     0.211 C 
ENDROOT
BRANCH   1   2
ATOM      2  N   UNL d   1      58.250  -0.688  30.510  0.00  0.00    -0.163 NA
ATOM      3  C   UNL d   1      57.544  -0.411  30.823  0.00  0.00     0.394 C 
ATOM      4  O   UNL d   1      56.973  -0.049  30.347  0.00  0.00    -0.236 OA
BRANCH   3   5
ATOM      5  O   UNL d   1      57.389  -0.491  31.630  0.00  0.00    -0.256 OA
BRANCH   5   6
ATOM      6  C   UNL d   1      56.602  -0.471  31.910  0.00  0.00     0.128 C 
ATOM      7  C   UNL d   1      56.376  -0.932  32.554  0.00  0.00     0.029 C 
ENDBRANCH   5   6
ENDBRANCH   3   5
ENDBRANCH   1   2
BRANCH   1   8
ATOM      8  N   UNL d   1      58.218  -1.229  29.174  0.00  0.00    -0.163 NA
ATOM      9  C   UNL d   1      58.551  -1.978  29.256  0.00  0.00     0.394 C 
ATOM     10  O   UNL d   1      59.067  -2.106  29.876  0.00  0.00    -0.236 OA
BRANCH   9  11
ATOM     11  O   UNL d   1      58.365  -2.594  28.718  0.00  0.00    -0.256 OA
BRANCH  11  12
ATOM     12  C   UNL d   1      58.743  -3.145  28.771  0.00  0.00     0.128 C 
ATOM     13  C   UNL d   1      58.417  -3.863  28.455  0.00  0.00     0.029 C 
ENDBRANCH  11  12
ENDBRANCH   9  11
ENDBRANCH   1   8
BRANCH   1  14
ATOM     14  C   UNL d   1      58.748   0.093  29.421  0.00  0.00     0.231 C 
ATOM     15  O   UNL d   1      58.302   0.612  28.957  0.00  0.00    -0.283 OA
BRANCH  14  16
ATOM     16  C   UNL d   1      59.554   0.283  29.593  0.00  0.00     0.042 A 
ATOM     17  C   UNL d   1      59.769   0.490  30.358  0.00  0.00     0.003 A 
ATOM     18  C   UNL d   1      60.547   0.677  30.541  0.00  0.00     0.000 A 
ATOM     19  C   UNL d   1      61.133   0.657  29.934  0.00  0.00     0.000 A 
ATOM     20  C   UNL d   1      60.909   0.451  29.179  0.00  0.00     0.000 A 
ATOM     21  C   UNL d   1      60.124   0.264  29.003  0.00  0.00     0.003 A 
ENDBRANCH  14  16
ENDBRANCH   1  14
TORSDOF 8
ENDMDL
MODEL 2
REMARK VINA RESULT:      -0.9      1.033      3.353
REMARK  8 active torsions:
REMARK  status: ('A' for Active; 'I' for Inactive)
REMARK    1  A    between atoms: N_2  and  C_1 
REMARK    2  A    between atoms: N_3  and  C_1 
REMARK    3  A    between atoms: C_6  and  C_1 
REMARK       I    between atoms: C_4  and  N_2 
REMARK       I    between atoms: C_5  and  N_3 
REMARK    4  A    between atoms: O_11  and  C_4 
REMARK    5  A    between atoms: O_12  and  C_5 
REMARK    6  A    between atoms: C_10  and  C_6 
REMARK    7  A    between atoms: C_15  and  O_11 
REMARK    8  A    between atoms: C_16  and  O_12 
ROOT
ATOM      1  C   UNL d   1      58.671  -0.727  29.739  0.00  0.00     0.211 C 
ENDROOT
BRANCH   1   2
ATOM      2  N   UNL d   1      59.436  -0.704  30.021  0.00  0.00    -0.163 NA
ATOM      3  C   UNL d   1      59.870  -0.008  29.979  0.00  0.00     0.394 C 
ATOM      4  O   UNL d   1      59.550   0.682  29.655  0.00  0.00    -0.236 OA
BRANCH   3   5
ATOM      5  O   UNL d   1      60.644   0.014  30.265  0.00  0.00    -0.256 OA
BRANCH   5   6
ATOM      6  C   UNL d   1      60.906   0.669  30.712  0.00  0.00     0.128 C 
ATOM      7  C   UNL d   1      61.121   0.578  31.502  0.00  0.00     0.029 C 
ENDBRANCH   5   6
ENDBRANCH   3   5
ENDBRANCH   1   2
BRANCH   1   8
ATOM      8  N   UNL d   1      58.047  -0.336  30.149  0.00  0.00    -0.163 NA
ATOM      9  C   UNL d   1      57.702  -0.670  30.817  0.00  0.00     0.394 C 
ATOM     10  O   UNL d   1      57.979  -1.394  31.075  0.00  0.00    -0.236 OA
BRANCH   9  11
ATOM     11  O   UNL d   1      57.081  -0.279  31.223  0.00  0.00    -0.256 OA
BRANCH  11  12
ATOM     12  C   UNL d   1      56.935  -0.526  31.830  0.00  0.00     0.128 C 
ATOM     13  C   UNL d   1      56.159  -0.360  32.132  0.00  0.00     0.029 C 
ENDBRANCH  11  12
ENDBRANCH   9  11
ENDBRANCH   1   8
BRANCH   1  14
ATOM     14  C   UNL d   1      58.497  -1.140  29.035  0.00  0.00     0.231 C 
ATOM     15  O   UNL d   1      58.024  -0.790  28.455  0.00  0.00    -0.283 OA
BRANCH  14  16
ATOM     16  C   UNL d   1      58.799  -1.919  28.905  0.00  0.00     0.042 A 
ATOM     17  C   UNL d   1      59.606  -2.030  28.800  0.00  0.00     0.003 A 
ATOM     18  C   UNL d   1      59.915  -2.780  28.673  0.00  0.00     0.000 A 
ATOM     19  C   UNL d   1      59.396  -3.446  28.650  0.00  0.00     0.000 A 
ATOM     20  C   UNL d   1      58.598  -3.323  28.755  0.00  0.00     0.000 A 
ATOM     21  C   UNL d   1      58.295  -2.567  28.882  0.00  0.00     0.003 A 
ENDBRANCH  14  16
ENDBRANCH   1  14
TORSDOF 8
ENDMDL
