MODEL 1
REMARK VINA RESULT:      38.9      0.000      0.000
REMARK  2 active torsions:
REMARK  status: ('A' for Active; 'I' for Inactive)
REMARK    1  A    between atoms: S_2  and  N_1 
REMARK    2  A    between atoms: N_6  and  S_2 
ROOT
ATOM      1  N   UNL d   1     -57.964 -98.885 -44.382  0.00  0.00    -0.199 N 
ATOM      2  C   UNL d   1     -58.359 -98.853 -45.101  0.00  0.00     0.095 A 
ATOM      3  C   UNL d   1     -58.543 -98.897 -43.776  0.00  0.00     0.194 A 
ATOM      4  N   UNL d   1     -59.285 -98.872 -44.140  0.00  0.00    -0.223 NA
ATOM      5  C   UNL d   1     -59.172 -98.845 -44.954  0.00  0.00     0.100 A 
ATOM      6  C   UNL d   1     -58.075 -98.830 -45.872  0.00  0.00     0.020 A 
ATOM      7  C   UNL d   1     -59.698 -98.813 -45.588  0.00  0.00     0.021 A 
ATOM      8  C   UNL d   1     -58.601 -98.799 -46.506  0.00  0.00     0.002 A 
ATOM      9  C   UNL d   1     -59.417 -98.790 -46.364  0.00  0.00     0.002 A 
ATOM     10  C   UNL d   1     -58.316 -98.776 -47.282  0.00  0.00     0.000 C 
ATOM     11  C   UNL d   1     -59.947 -98.759 -46.999  0.00  0.00     0.000 C 
ENDROOT
BRANCH   1  12
ATOM     12  S   UNL d   1     -57.156 -98.902 -44.273  0.00  0.00     0.339 S 
ATOM     13  O   UNL d   1     -57.040 -98.985 -45.084  0.00  0.00    -0.181 OA
ATOM     14  O   UNL d   1     -57.268 -98.819 -43.463  0.00  0.00    -0.181 OA
BRANCH  12  15
ATOM     15  N   UNL d   1     -56.343 -98.918 -44.151  0.00  0.00    -0.212 N 
ATOM     16  C   UNL d   1     -55.837 -99.099 -44.777  0.00  0.00     0.120 A 
ATOM     17  C   UNL d   1     -55.027 -99.115 -44.655  0.00  0.00     0.142 A 
ATOM     18  O   UNL d   1     -54.714 -98.954 -43.919  0.00  0.00    -0.300 OA
ATOM     19  C   UNL d   1     -55.213 -98.772 -43.289  0.00  0.00     0.142 A 
ATOM     20  C   UNL d   1     -56.035 -98.755 -43.408  0.00  0.00     0.120 A 
ENDBRANCH  12  15
ENDBRANCH   1  12
TORSDOF 2
ENDMDL
MODEL 2
REMARK VINA RESULT:      41.3      3.719      4.666
REMARK  2 active torsions:
REMARK  status: ('A' for Active; 'I' for Inactive)
REMARK    1  A    between atoms: S_2  and  N_1 
REMARK    2  A    between atoms: N_6  and  S_2 
ROOT
ATOM      1  N   UNL d   1     -54.789-101.819 -43.649  0.00  0.00    -0.199 N 
ATOM      2  C   UNL d   1     -54.794-101.108 -44.058  0.00  0.00     0.095 A 
ATOM      3  C   UNL d   1     -54.808-102.437 -44.215  0.00  0.00     0.194 A 
ATOM      4  N   UNL d   1     -54.824-102.087 -44.965  0.00  0.00    -0.223 NA
ATOM      5  C   UNL d   1     -54.816-101.271 -44.868  0.00  0.00     0.100 A 
ATOM      6  C   UNL d   1     -54.781-100.331 -43.790  0.00  0.00     0.020 A 
ATOM      7  C   UNL d   1     -54.825-100.647 -45.407  0.00  0.00     0.021 A 
ATOM      8  C   UNL d   1     -54.791 -99.707 -44.329  0.00  0.00     0.002 A 
ATOM      9  C   UNL d   1     -54.812 -99.865 -45.142  0.00  0.00     0.002 A 
ATOM     10  C   UNL d   1     -54.778 -98.925 -44.060  0.00  0.00     0.000 C 
ATOM     11  C   UNL d   1     -54.822 -99.241 -45.685  0.00  0.00     0.000 C 
ENDROOT
BRANCH   1  12
ATOM     12  S   UNL d   1     -54.769-101.912 -42.839  0.00  0.00     0.339 S 
ATOM     13  O   UNL d   1     -54.713-101.098 -42.739  0.00  0.00    -0.181 OA
ATOM     14  O   UNL d   1     -54.824-102.727 -42.936  0.00  0.00    -0.181 OA
BRANCH  12  15
ATOM     15  N   UNL d   1     -54.750-102.019 -42.023  0.00  0.00    -0.212 N 
ATOM     16  C   UNL d   1     -54.740-101.363 -41.524  0.00  0.00     0.120 A 
ATOM     17  C   UNL d   1     -54.721-101.468 -40.712  0.00  0.00     0.142 A 
ATOM     18  O   UNL d   1     -54.711-102.218 -40.391  0.00  0.00    -0.300 OA
ATOM     19  C   UNL d   1     -54.720-102.879 -40.883  0.00  0.00     0.142 A 
ATOM     20  C   UNL d   1     -54.740-102.776 -41.708  0.00  0.00     0.120 A 
ENDBRANCH  12  15
ENDBRANCH   1  12
TORSDOF 2
ENDMDL
MODEL 3
REMARK VINA RESULT:      41.3      6.389      7.978
REMARK  2 active torsions:
REMARK  status: ('A' for Active; 'I' for Inactive)
REMARK    1  A    between atoms: S_2  and  N_1 
REMARK    2  A    between atoms: N_6  and  S_2 
ROOT
ATOM      1  N   UNL d   1     -54.766-100.781 -38.188  0.00  0.00    -0.199 N 
ATOM      2  C   UNL d   1     -54.757-101.109 -38.940  0.00  0.00     0.095 A 
ATOM      3  C   UNL d   1     -54.744 -99.948 -38.276  0.00  0.00     0.194 A 
ATOM      4  N   UNL d   1     -54.721 -99.783 -39.087  0.00  0.00    -0.223 NA
ATOM      5  C   UNL d   1     -54.729-100.497 -39.494  0.00  0.00     0.100 A 
ATOM      6  C   UNL d   1     -54.771-101.894 -39.186  0.00  0.00     0.020 A 
ATOM      7  C   UNL d   1     -54.715-100.678 -40.298  0.00  0.00     0.021 A 
ATOM      8  C   UNL d   1     -54.757-102.075 -39.991  0.00  0.00     0.002 A 
ATOM      9  C   UNL d   1     -54.729-101.465 -40.550  0.00  0.00     0.002 A 
ATOM     10  C   UNL d   1     -54.771-102.864 -40.239  0.00  0.00     0.000 C 
ATOM     11  C   UNL d   1     -54.715-101.644 -41.358  0.00  0.00     0.000 C 
ENDROOT
BRANCH   1  12
ATOM     12  S   UNL d   1     -54.793-101.187 -37.482  0.00  0.00     0.339 S 
ATOM     13  O   UNL d   1     -54.873-100.480 -37.069  0.00  0.00    -0.181 OA
ATOM     14  O   UNL d   1     -54.713-101.896 -37.891  0.00  0.00    -0.181 OA
BRANCH  12  15
ATOM     15  N   UNL d   1     -54.819-101.608 -36.775  0.00  0.00    -0.212 N 
ATOM     16  C   UNL d   1     -54.862-102.431 -36.788  0.00  0.00     0.120 A 
ATOM     17  C   UNL d   1     -54.887-102.850 -36.084  0.00  0.00     0.142 A 
ATOM     18  O   UNL d   1     -54.870-102.459 -35.368  0.00  0.00    -0.300 OA
ATOM     19  C   UNL d   1     -54.827-101.636 -35.346  0.00  0.00     0.142 A 
ATOM     20  C   UNL d   1     -54.801-101.208 -36.058  0.00  0.00     0.120 A 
ENDBRANCH  12  15
ENDBRANCH   1  12
TORSDOF 2
ENDMDL
MODEL 4
REMARK VINA RESULT:      41.6      1.186      2.559
REMARK  2 active torsions:
REMARK  status: ('A' for Active; 'I' for Inactive)
REMARK    1  A    between atoms: S_2  and  N_1 
REMARK    2  A    between atoms: N_6  and  S_2 
ROOT
ATOM      1  N   UNL d   1     -57.924 -99.112 -44.303  0.00  0.00    -0.199 N 
ATOM      2  C   UNL d   1     -58.330 -99.039 -43.594  0.00  0.00     0.095 A 
ATOM      3  C   UNL d   1     -58.481 -99.026 -44.923  0.00  0.00     0.194 A 
ATOM      4  N   UNL d   1     -59.223 -98.901 -44.577  0.00  0.00    -0.223 NA
ATOM      5  C   UNL d   1     -59.129 -98.909 -43.760  0.00  0.00     0.100 A 
ATOM      6  C   UNL d   1     -58.067 -99.075 -42.815  0.00  0.00     0.020 A 
ATOM      7  C   UNL d   1     -59.663 -98.816 -43.139  0.00  0.00     0.021 A 
ATOM      8  C   UNL d   1     -58.601 -98.982 -42.194  0.00  0.00     0.002 A 
ATOM      9  C   UNL d   1     -59.403 -98.852 -42.355  0.00  0.00     0.002 A 
ATOM     10  C   UNL d   1     -58.338 -99.018 -41.411  0.00  0.00     0.000 C 
ATOM     11  C   UNL d   1     -59.941 -98.758 -41.733  0.00  0.00     0.000 C 
ENDROOT
BRANCH   1  12
ATOM     12  S   UNL d   1     -57.125 -99.243 -44.393  0.00  0.00     0.339 S 
ATOM     13  O   UNL d   1     -56.964 -98.758 -43.748  0.00  0.00    -0.181 OA
ATOM     14  O   UNL d   1     -57.281 -99.729 -45.037  0.00  0.00    -0.181 OA
BRANCH  12  15
ATOM     15  N   UNL d   1     -56.320 -99.383 -44.493  0.00  0.00    -0.212 N 
ATOM     16  C   UNL d   1     -56.026-100.152 -44.435  0.00  0.00     0.120 A 
ATOM     17  C   UNL d   1     -55.225-100.291 -44.534  0.00  0.00     0.142 A 
ATOM     18  O   UNL d   1     -54.713 -99.676 -44.691  0.00  0.00    -0.300 OA
ATOM     19  C   UNL d   1     -54.999 -98.905 -44.751  0.00  0.00     0.142 A 
ATOM     20  C   UNL d   1     -55.811 -98.760 -44.651  0.00  0.00     0.120 A 
ENDBRANCH  12  15
ENDBRANCH   1  12
TORSDOF 2
ENDMDL
