MODEL 1
REMARK VINA RESULT:      52.9      0.000      0.000
REMARK  6 active torsions:
REMARK  status: ('A' for Active; 'I' for Inactive)
REMARK       I    between atoms: C_3  and  N_1 
REMARK    1  A    between atoms: C_8  and  C_3 
REMARK    2  A    between atoms: S_4  and  N_9 
REMARK    3  A    between atoms: C_24  and  S_4 
REMARK    4  A    between atoms: C_10  and  C_5 
REMARK    5  A    between atoms: C_11  and  C_6 
REMARK    6  A    between atoms: N_9  and  C_23 
ROOT
ATOM      1  N   UNL d   1      44.728 -15.807  37.607  0.00  0.00    -0.193 N 
ATOM      2  N   UNL d   1      45.344 -16.100  38.100  0.00  0.00    -0.163 NA
ATOM      3  C   UNL d   1      44.794 -15.176  37.081  0.00  0.00     0.303 C 
ATOM      4  C   UNL d   1      44.064 -16.241  37.732  0.00  0.00     0.088 A 
ATOM      5  C   UNL d   1      45.031 -16.728  38.529  0.00  0.00     0.103 A 
ATOM      6  C   UNL d   1      44.235 -16.824  38.307  0.00  0.00     0.040 A 
ATOM      7  O   UNL d   1      44.147 -14.947  36.633  0.00  0.00    -0.263 OA
ENDROOT
BRANCH   5   8
ATOM      8  C   UNL d   1      45.410 -17.196  39.084  0.00  0.00     0.019 A 
ATOM      9  C   UNL d   1      44.968 -17.538  39.695  0.00  0.00     0.003 A 
ATOM     10  C   UNL d   1      45.338 -18.005  40.250  0.00  0.00     0.020 A 
ATOM     11  C   UNL d   1      46.153 -18.140  40.206  0.00  0.00     0.094 A 
ATOM     12  C   UNL d   1      46.592 -17.799  39.597  0.00  0.00     0.020 A 
ATOM     13  C   UNL d   1      46.221 -17.326  39.034  0.00  0.00     0.003 A 
BRANCH  11  14
ATOM     14  N   UNL d   1      46.540 -18.614  40.766  0.00  0.00    -0.158 NA
BRANCH  14  15
ATOM     15  S   UNL d   1      46.252 -18.663  41.526  0.00  0.00     0.286 S 
ATOM     16  O   UNL d   1      46.153 -17.837  41.545  0.00  0.00    -0.198 OA
ATOM     17  O   UNL d   1      45.956 -18.723  42.310  0.00  0.00    -0.198 OA
BRANCH  15  18
ATOM     18  C   UNL d   1      46.350 -19.489  41.510  0.00  0.00     0.117 C 
ATOM     19  C   UNL d   1      46.400 -19.916  42.208  0.00  0.00     0.014 C 
ENDBRANCH  15  18
ENDBRANCH  14  15
ENDBRANCH  11  14
ENDBRANCH   5   8
BRANCH   4  20
ATOM     20  C   UNL d   1      43.340 -16.159  37.382  0.00  0.00     0.018 A 
ATOM     21  C   UNL d   1      43.145 -16.582  36.701  0.00  0.00     0.002 A 
ATOM     22  C   UNL d   1      42.402 -16.498  36.342  0.00  0.00     0.000 A 
ATOM     23  C   UNL d   1      41.847 -15.976  36.678  0.00  0.00     0.000 A 
ATOM     24  C   UNL d   1      42.040 -15.549  37.362  0.00  0.00     0.000 A 
ATOM     25  C   UNL d   1      41.106 -15.882  36.332  0.00  0.00     0.000 C 
ATOM     26  C   UNL d   1      42.781 -15.638  37.713  0.00  0.00     0.002 A 
ENDBRANCH   4  20
BRANCH   3  27
ATOM     27  C   UNL d   1      45.513 -14.779  37.010  0.00  0.00     0.158 A 
ATOM     28  O   UNL d   1      45.985 -14.763  36.332  0.00  0.00    -0.300 OA
ATOM     29  C   UNL d   1      46.647 -14.307  36.500  0.00  0.00     0.123 A 
ATOM     30  C   UNL d   1      46.585 -14.041  37.282  0.00  0.00     0.029 A 
ATOM     31  C   UNL d   1      45.883 -14.335  37.590  0.00  0.00     0.032 A 
ENDBRANCH   3  27
TORSDOF 6
ENDMDL
