MODEL 1
REMARK VINA RESULT:      -4.4      0.000      0.000
REMARK  6 active torsions:
REMARK  status: ('A' for Active; 'I' for Inactive)
REMARK    1  A    between atoms: N_4  and  C_1 
REMARK    2  A    between atoms: C_10  and  C_3 
REMARK       I    between atoms: C_9  and  N_4 
REMARK       I    between atoms: N_7  and  C_8 
REMARK    3  A    between atoms: C_8  and  C_15 
REMARK    4  A    between atoms: C_16  and  C_9 
REMARK    5  A    between atoms: S_14  and  C_16 
REMARK    6  A    between atoms: C_15  and  S_14 
ROOT
ATOM      1  N   UNL d   1      57.986  -0.213  29.800  0.00  0.00    -0.182 NA
ATOM      2  C   UNL d   1      58.235   0.202  30.450  0.00  0.00     0.288 C 
ATOM      3  O   UNL d   1      59.018   0.151  30.704  0.00  0.00    -0.265 OA
ENDROOT
BRANCH   2   4
ATOM      4  C   UNL d   1      57.702   0.681  30.862  0.00  0.00     0.098 C 
BRANCH   4   5
ATOM      5  S   UNL d   1      57.749   0.601  31.725  0.00  0.00    -0.076 SA
BRANCH   5   6
ATOM      6  C   UNL d   1      57.026   0.479  32.190  0.00  0.00     0.097 C 
BRANCH   6   7
ATOM      7  C   UNL d   1      57.046   0.578  33.050  0.00  0.00     0.272 C 
ATOM      8  N   UNL d   1      56.310   0.581  33.509  0.00  0.00    -0.267 N 
ATOM      9  C   UNL d   1      55.549   0.482  33.102  0.00  0.00     0.110 A 
ATOM     10  C   UNL d   1      56.340   0.681  34.370  0.00  0.00     0.110 A 
ATOM     11  C   UNL d   1      54.814   0.484  33.556  0.00  0.00     0.142 A 
ATOM     12  O   UNL d   1      54.834   0.583  34.415  0.00  0.00    -0.300 OA
ATOM     13  C   UNL d   1      55.592   0.682  34.825  0.00  0.00     0.142 A 
ATOM     14  O   UNL d   1      57.806   0.677  33.456  0.00  0.00    -0.266 OA
ENDBRANCH   6   7
ENDBRANCH   5   6
ENDBRANCH   4   5
ENDBRANCH   2   4
BRANCH   1  15
ATOM     15  C   UNL d   1      58.516  -0.693  29.387  0.00  0.00     0.197 A 
ATOM     16  N   UNL d   1      58.566  -1.515  29.447  0.00  0.00    -0.221 NA
ATOM     17  C   UNL d   1      59.167  -1.769  28.942  0.00  0.00     0.090 A 
ATOM     18  C   UNL d   1      59.482  -1.102  28.574  0.00  0.00     0.058 A 
ATOM     19  S   UNL d   1      59.084  -0.446  28.847  0.00  0.00    -0.046 SA
BRANCH  17  20
ATOM     20  C   UNL d   1      59.401  -2.541  28.830  0.00  0.00     0.018 A 
ATOM     21  C   UNL d   1      58.870  -3.094  28.570  0.00  0.00     0.002 A 
ATOM     22  C   UNL d   1      59.107  -3.875  28.457  0.00  0.00     0.000 A 
ATOM     23  C   UNL d   1      59.883  -4.093  28.609  0.00  0.00     0.000 A 
ATOM     24  C   UNL d   1      60.426  -3.532  28.875  0.00  0.00     0.000 A 
ATOM     25  C   UNL d   1      60.180  -2.755  28.984  0.00  0.00     0.002 A 
ENDBRANCH  17  20
ENDBRANCH   1  15
TORSDOF 6
ENDMDL
MODEL 2
REMARK VINA RESULT:      -4.1      1.617      5.805
REMARK  6 active torsions:
REMARK  status: ('A' for Active; 'I' for Inactive)
REMARK    1  A    between atoms: N_4  and  C_1 
REMARK    2  A    between atoms: C_10  and  C_3 
REMARK       I    between atoms: C_9  and  N_4 
REMARK       I    between atoms: N_7  and  C_8 
REMARK    3  A    between atoms: C_8  and  C_15 
REMARK    4  A    between atoms: C_16  and  C_9 
REMARK    5  A    between atoms: S_14  and  C_16 
REMARK    6  A    between atoms: C_15  and  S_14 
ROOT
ATOM      1  N   UNL d   1      57.781   0.041  30.077  0.00  0.00    -0.182 NA
ATOM      2  C   UNL d   1      58.553   0.165  29.863  0.00  0.00     0.288 C 
ATOM      3  O   UNL d   1      59.102   0.436  30.416  0.00  0.00    -0.265 OA
ENDROOT
BRANCH   2   4
ATOM      4  C   UNL d   1      58.793   0.020  29.085  0.00  0.00     0.098 C 
BRANCH   4   5
ATOM      5  S   UNL d   1      59.495  -0.487  29.022  0.00  0.00    -0.076 SA
BRANCH   5   6
ATOM      6  C   UNL d   1      59.417  -1.302  28.734  0.00  0.00     0.097 C 
BRANCH   6   7
ATOM      7  C   UNL d   1      60.120  -1.803  28.666  0.00  0.00     0.272 C 
ATOM      8  N   UNL d   1      60.041  -2.664  28.595  0.00  0.00    -0.267 N 
ATOM      9  C   UNL d   1      59.251  -3.024  28.593  0.00  0.00     0.110 A 
ATOM     10  C   UNL d   1      60.751  -3.158  28.527  0.00  0.00     0.110 A 
ATOM     11  C   UNL d   1      59.168  -3.882  28.524  0.00  0.00     0.142 A 
ATOM     12  O   UNL d   1      59.871  -4.382  28.455  0.00  0.00    -0.300 OA
ATOM     13  C   UNL d   1      60.661  -4.025  28.456  0.00  0.00     0.142 A 
ATOM     14  O   UNL d   1      60.909  -1.443  28.667  0.00  0.00    -0.266 OA
ENDBRANCH   6   7
ENDBRANCH   5   6
ENDBRANCH   4   5
ENDBRANCH   2   4
BRANCH   1  15
ATOM     15  C   UNL d   1      57.538   0.185  30.853  0.00  0.00     0.197 A 
ATOM     16  N   UNL d   1      56.879  -0.152  31.219  0.00  0.00    -0.221 NA
ATOM     17  C   UNL d   1      56.840   0.141  31.990  0.00  0.00     0.090 A 
ATOM     18  C   UNL d   1      57.476   0.657  32.092  0.00  0.00     0.058 A 
ATOM     19  S   UNL d   1      57.900   0.682  31.398  0.00  0.00    -0.046 SA
BRANCH  17  20
ATOM     20  C   UNL d   1      56.275  -0.047  32.544  0.00  0.00     0.018 A 
ATOM     21  C   UNL d   1      56.170  -0.817  32.773  0.00  0.00     0.002 A 
ATOM     22  C   UNL d   1      55.598  -1.009  33.334  0.00  0.00     0.000 A 
ATOM     23  C   UNL d   1      55.133  -0.417  33.661  0.00  0.00     0.000 A 
ATOM     24  C   UNL d   1      55.237   0.367  33.430  0.00  0.00     0.000 A 
ATOM     25  C   UNL d   1      55.810   0.547  32.870  0.00  0.00     0.002 A 
ENDBRANCH  17  20
ENDBRANCH   1  15
TORSDOF 6
ENDMDL
