MODEL 1
REMARK VINA RESULT:     109.6      0.000      0.000
REMARK  9 active torsions:
REMARK  status: ('A' for Active; 'I' for Inactive)
REMARK    1  A    between atoms: C_5  and  C_1 
REMARK    2  A    between atoms: N_6  and  C_2 
REMARK    3  A    between atoms: C_7  and  C_5 
REMARK    4  A    between atoms: C_8  and  C_5 
REMARK    5  A    between atoms: O_13  and  C_7 
REMARK    6  A    between atoms: C_17  and  N_12 
REMARK    7  A    between atoms: C_20  and  O_13 
REMARK    8  A    between atoms: C_21  and  C_17 
REMARK    9  A    between atoms: C_24  and  C_20 
ROOT
ATOM      1  C   UNL d   1      58.974  49.017  50.675  0.00  0.00     0.117 A 
ATOM      2  C   UNL d   1      58.900  48.234  50.435  0.00  0.00     0.145 A 
ATOM      3  N   UNL d   1      58.163  47.936  50.201  0.00  0.00    -0.230 NA
ATOM      4  N   UNL d   1      58.309  49.509  50.682  0.00  0.00    -0.241 NA
ATOM      5  C   UNL d   1      57.497  48.429  50.208  0.00  0.00     0.100 A 
ATOM      6  C   UNL d   1      57.577  49.221  50.452  0.00  0.00     0.099 A 
ATOM      7  C   UNL d   1      56.759  48.136  49.975  0.00  0.00     0.021 A 
ATOM      8  C   UNL d   1      56.918  49.707  50.458  0.00  0.00     0.021 A 
ATOM      9  C   UNL d   1      56.105  48.631  49.985  0.00  0.00     0.002 A 
ATOM     10  C   UNL d   1      56.177  49.422  50.227  0.00  0.00     0.002 A 
ENDROOT
BRANCH   2  11
ATOM     11  N   UNL d   1      59.646  47.878  50.483  0.00  0.00    -0.189 NA
ATOM     12  C   UNL d   1      60.160  47.453  50.519  0.00  0.00     0.076 A 
ATOM     13  C   UNL d   1      61.183  47.609  50.575  0.00  0.00     0.093 A 
ATOM     14  N   UNL d   1      61.384  46.742  50.600  0.00  0.00    -0.301 N 
ATOM     15  C   UNL d   1      60.895  47.197  50.565  0.00  0.00     0.093 A 
ATOM     16  C   UNL d   1      59.799  47.066  50.505  0.00  0.00     0.076 A 
BRANCH  14  17
ATOM     17  C   UNL d   1      61.792  46.020  50.635  0.00  0.00     0.080 C 
BRANCH  17  18
ATOM     18  C   UNL d   1      61.382  45.328  50.814  0.00  0.00     0.018 A 
ATOM     19  C   UNL d   1      61.579  44.899  51.487  0.00  0.00     0.002 A 
ATOM     20  C   UNL d   1      61.166  44.207  51.662  0.00  0.00     0.000 A 
ATOM     21  C   UNL d   1      60.560  43.947  51.164  0.00  0.00     0.000 A 
ATOM     22  C   UNL d   1      60.368  44.383  50.491  0.00  0.00     0.000 A 
ATOM     23  C   UNL d   1      60.781  45.074  50.317  0.00  0.00     0.002 A 
ENDBRANCH  17  18
ENDBRANCH  14  17
ENDBRANCH   2  11
BRANCH   1  24
ATOM     24  C   UNL d   1      59.766  49.150  50.873  0.00  0.00     0.104 C 
BRANCH  24  25
ATOM     25  C   UNL d   1      60.065  49.264  51.644  0.00  0.00     0.303 C 
ATOM     26  O   UNL d   1      59.550  49.454  52.260  0.00  0.00    -0.259 OA
BRANCH  25  27
ATOM     27  O   UNL d   1      60.876  49.185  51.786  0.00  0.00    -0.271 OA
BRANCH  27  28
ATOM     28  C   UNL d   1      61.184  49.338  52.536  0.00  0.00     0.126 C 
BRANCH  28  29
ATOM     29  C   UNL d   1      61.966  49.581  52.623  0.00  0.00     0.025 C 
ATOM     30  C   UNL d   1      62.433  49.706  51.958  0.00  0.00     0.002 C 
ATOM     31  C   UNL d   1      62.280  49.701  53.378  0.00  0.00     0.002 C 
ENDBRANCH  28  29
ENDBRANCH  27  28
ENDBRANCH  25  27
ENDBRANCH  24  25
BRANCH  24  32
ATOM     32  C   UNL d   1      60.210  49.152  50.180  0.00  0.00     0.129 C 
ATOM     33  N   UNL d   1      60.798  49.701  49.971  0.00  0.00    -0.146 N 
ENDBRANCH  24  32
ENDBRANCH   1  24
TORSDOF 9
ENDMDL
MODEL 2
REMARK VINA RESULT:     110.5      1.838      4.513
REMARK  9 active torsions:
REMARK  status: ('A' for Active; 'I' for Inactive)
REMARK    1  A    between atoms: C_5  and  C_1 
REMARK    2  A    between atoms: N_6  and  C_2 
REMARK    3  A    between atoms: C_7  and  C_5 
REMARK    4  A    between atoms: C_8  and  C_5 
REMARK    5  A    between atoms: O_13  and  C_7 
REMARK    6  A    between atoms: C_17  and  N_12 
REMARK    7  A    between atoms: C_20  and  O_13 
REMARK    8  A    between atoms: C_21  and  C_17 
REMARK    9  A    between atoms: C_24  and  C_20 
ROOT
ATOM      1  C   UNL d   1      60.737  48.031  50.311  0.00  0.00     0.117 A 
ATOM      2  C   UNL d   1      60.879  47.718  51.057  0.00  0.00     0.145 A 
ATOM      3  N   UNL d   1      61.151  46.940  51.141  0.00  0.00    -0.230 NA
ATOM      4  N   UNL d   1      60.867  47.565  49.639  0.00  0.00    -0.241 NA
ATOM      5  C   UNL d   1      61.281  46.473  50.468  0.00  0.00     0.100 A 
ATOM      6  C   UNL d   1      61.136  46.794  49.714  0.00  0.00     0.099 A 
ATOM      7  C   UNL d   1      61.552  45.695  50.547  0.00  0.00     0.021 A 
ATOM      8  C   UNL d   1      61.265  46.332  49.050  0.00  0.00     0.021 A 
ATOM      9  C   UNL d   1      61.678  45.241  49.876  0.00  0.00     0.002 A 
ATOM     10  C   UNL d   1      61.536  45.554  49.120  0.00  0.00     0.002 A 
ENDROOT
BRANCH   2  11
ATOM     11  N   UNL d   1      60.704  48.302  51.618  0.00  0.00    -0.189 NA
ATOM     12  C   UNL d   1      60.554  48.644  52.172  0.00  0.00     0.076 A 
ATOM     13  C   UNL d   1      60.417  49.657  52.342  0.00  0.00     0.093 A 
ATOM     14  N   UNL d   1      60.246  49.559  53.210  0.00  0.00    -0.301 N 
ATOM     15  C   UNL d   1      60.397  49.250  52.636  0.00  0.00     0.093 A 
ATOM     16  C   UNL d   1      60.549  48.177  52.421  0.00  0.00     0.076 A 
BRANCH  14  17
ATOM     17  C   UNL d   1      60.066  49.704  54.007  0.00  0.00     0.080 C 
BRANCH  17  18
ATOM     18  C   UNL d   1      59.280  49.695  54.256  0.00  0.00     0.018 A 
ATOM     19  C   UNL d   1      59.106  49.679  55.059  0.00  0.00     0.002 A 
ATOM     20  C   UNL d   1      58.318  49.670  55.303  0.00  0.00     0.000 A 
ATOM     21  C   UNL d   1      57.710  49.678  54.745  0.00  0.00     0.000 A 
ATOM     22  C   UNL d   1      57.892  49.694  53.941  0.00  0.00     0.000 A 
ATOM     23  C   UNL d   1      58.679  49.703  53.697  0.00  0.00     0.002 A 
ENDBRANCH  17  18
ENDBRANCH  14  17
ENDBRANCH   2  11
BRANCH   1  24
ATOM     24  C   UNL d   1      60.474  48.809  50.404  0.00  0.00     0.104 C 
BRANCH  24  25
ATOM     25  C   UNL d   1      59.705  49.089  50.235  0.00  0.00     0.303 C 
ATOM     26  O   UNL d   1      59.555  49.472  49.520  0.00  0.00    -0.259 OA
BRANCH  25  27
ATOM     27  O   UNL d   1      59.098  48.979  50.787  0.00  0.00    -0.271 OA
BRANCH  27  28
ATOM     28  C   UNL d   1      58.396  49.406  50.723  0.00  0.00     0.126 C 
BRANCH  28  29
ATOM     29  C   UNL d   1      57.810  49.168  50.194  0.00  0.00     0.025 C 
ATOM     30  C   UNL d   1      57.621  49.641  49.550  0.00  0.00     0.002 C 
ATOM     31  C   UNL d   1      57.414  48.452  50.313  0.00  0.00     0.002 C 
ENDBRANCH  28  29
ENDBRANCH  27  28
ENDBRANCH  25  27
ENDBRANCH  24  25
BRANCH  24  32
ATOM     32  C   UNL d   1      61.098  49.261  50.692  0.00  0.00     0.129 C 
ATOM     33  N   UNL d   1      61.876  49.001  50.828  0.00  0.00    -0.146 N 
ENDBRANCH  24  32
ENDBRANCH   1  24
TORSDOF 9
ENDMDL
