MODEL 1
REMARK VINA RESULT:      -5.1      0.000      0.000
REMARK  3 active torsions:
REMARK  status: ('A' for Active; 'I' for Inactive)
REMARK    1  A    between atoms: N_9  and  C_2 
REMARK    2  A    between atoms: C_11  and  N_9 
REMARK    3  A    between atoms: O_14  and  C_13 
ROOT
ATOM      1  C   UNL d   1     -41.832-122.320 -53.592  0.00  0.00     0.154 A 
ATOM      2  C   UNL d   1     -41.613-122.504 -52.823  0.00  0.00     0.185 A 
ATOM      3  C   UNL d   1     -41.751-122.880 -54.191  0.00  0.00     0.186 A 
ATOM      4  N   UNL d   1     -42.145-121.633 -53.924  0.00  0.00    -0.218 NA
ATOM      5  N   UNL d   1     -42.014-122.539 -54.893  0.00  0.00    -0.203 NA
ATOM      6  N   UNL d   1     -41.310-123.252 -52.649  0.00  0.00    -0.203 NA
ATOM      7  N   UNL d   1     -41.451-123.626 -54.022  0.00  0.00    -0.203 NA
ATOM      8  C   UNL d   1     -42.255-121.775 -54.732  0.00  0.00     0.201 A 
ATOM      9  C   UNL d   1     -41.229-123.813 -53.249  0.00  0.00     0.202 A 
ENDROOT
BRANCH   2  10
ATOM     10  N   UNL d   1     -41.694-121.943 -52.223  0.00  0.00    -0.225 NA
BRANCH  10  11
ATOM     11  C   UNL d   1     -41.784-122.183 -51.443  0.00  0.00     0.085 A 
ATOM     12  C   UNL d   1     -42.541-122.319 -51.140  0.00  0.00     0.043 A 
ATOM     13  C   UNL d   1     -42.634-122.560 -50.356  0.00  0.00     0.096 A 
ATOM     14  C   UNL d   1     -41.973-122.666 -49.875  0.00  0.00     0.024 A 
ATOM     15  C   UNL d   1     -41.212-122.528 -50.185  0.00  0.00     0.004 A 
ATOM     16  C   UNL d   1     -41.123-122.289 -50.962  0.00  0.00     0.019 A 
BRANCH  13  17
ATOM     17  O   UNL d   1     -43.397-122.696 -50.052  0.00  0.00    -0.328 OA
ATOM     18  C   UNL d   1     -43.494-123.133 -49.359  0.00  0.00     0.181 C 
ENDBRANCH  13  17
ENDBRANCH  10  11
ENDBRANCH   2  10
TORSDOF 3
ENDMDL
MODEL 2
REMARK VINA RESULT:      -4.9      1.953      3.981
REMARK  3 active torsions:
REMARK  status: ('A' for Active; 'I' for Inactive)
REMARK    1  A    between atoms: N_9  and  C_2 
REMARK    2  A    between atoms: C_11  and  N_9 
REMARK    3  A    between atoms: O_14  and  C_13 
ROOT
ATOM      1  C   UNL d   1     -41.790-122.913 -49.717  0.00  0.00     0.154 A 
ATOM      2  C   UNL d   1     -41.827-122.623 -50.484  0.00  0.00     0.185 A 
ATOM      3  C   UNL d   1     -42.472-122.946 -49.254  0.00  0.00     0.186 A 
ATOM      4  N   UNL d   1     -41.162-123.206 -49.270  0.00  0.00    -0.218 NA
ATOM      5  N   UNL d   1     -42.264-123.259 -48.521  0.00  0.00    -0.203 NA
ATOM      6  N   UNL d   1     -42.548-122.363 -50.792  0.00  0.00    -0.203 NA
ATOM      7  N   UNL d   1     -43.191-122.688 -49.557  0.00  0.00    -0.203 NA
ATOM      8  C   UNL d   1     -41.463-123.418 -48.529  0.00  0.00     0.201 A 
ATOM      9  C   UNL d   1     -43.229-122.396 -50.328  0.00  0.00     0.202 A 
ENDROOT
BRANCH   2  10
ATOM     10  N   UNL d   1     -41.146-122.590 -50.948  0.00  0.00    -0.225 NA
BRANCH  10  11
ATOM     11  C   UNL d   1     -41.174-122.806 -51.740  0.00  0.00     0.085 A 
ATOM     12  C   UNL d   1     -41.225-122.222 -52.322  0.00  0.00     0.043 A 
ATOM     13  C   UNL d   1     -41.254-122.436 -53.119  0.00  0.00     0.096 A 
ATOM     14  C   UNL d   1     -41.232-123.232 -53.334  0.00  0.00     0.024 A 
ATOM     15  C   UNL d   1     -41.181-123.817 -52.743  0.00  0.00     0.004 A 
ATOM     16  C   UNL d   1     -41.153-123.602 -51.955  0.00  0.00     0.019 A 
BRANCH  13  17
ATOM     17  O   UNL d   1     -41.305-121.847 -53.705  0.00  0.00    -0.328 OA
ATOM     18  C   UNL d   1     -41.810-121.948 -54.350  0.00  0.00     0.181 C 
ENDBRANCH  13  17
ENDBRANCH  10  11
ENDBRANCH   2  10
TORSDOF 3
ENDMDL
MODEL 3
REMARK VINA RESULT:      -4.6      1.135      1.896
REMARK  3 active torsions:
REMARK  status: ('A' for Active; 'I' for Inactive)
REMARK    1  A    between atoms: N_9  and  C_2 
REMARK    2  A    between atoms: C_11  and  N_9 
REMARK    3  A    between atoms: O_14  and  C_13 
ROOT
ATOM      1  C   UNL d   1     -41.793-121.967 -54.745  0.00  0.00     0.154 A 
ATOM      2  C   UNL d   1     -41.826-122.016 -53.926  0.00  0.00     0.185 A 
ATOM      3  C   UNL d   1     -42.484-121.857 -55.181  0.00  0.00     0.186 A 
ATOM      4  N   UNL d   1     -41.160-122.006 -55.272  0.00  0.00    -0.218 NA
ATOM      5  N   UNL d   1     -42.277-121.830 -55.978  0.00  0.00    -0.203 NA
ATOM      6  N   UNL d   1     -42.553-121.957 -53.539  0.00  0.00    -0.203 NA
ATOM      7  N   UNL d   1     -43.209-121.798 -54.799  0.00  0.00    -0.203 NA
ATOM      8  C   UNL d   1     -41.468-121.920 -56.035  0.00  0.00     0.201 A 
ATOM      9  C   UNL d   1     -43.244-121.848 -53.976  0.00  0.00     0.202 A 
ENDROOT
BRANCH   2  10
ATOM     10  N   UNL d   1     -41.135-122.125 -53.489  0.00  0.00    -0.225 NA
BRANCH  10  11
ATOM     11  C   UNL d   1     -41.152-122.557 -52.790  0.00  0.00     0.085 A 
ATOM     12  C   UNL d   1     -41.195-122.163 -52.066  0.00  0.00     0.043 A 
ATOM     13  C   UNL d   1     -41.212-122.595 -51.362  0.00  0.00     0.096 A 
ATOM     14  C   UNL d   1     -41.185-123.419 -51.383  0.00  0.00     0.024 A 
ATOM     15  C   UNL d   1     -41.141-123.812 -52.117  0.00  0.00     0.004 A 
ATOM     16  C   UNL d   1     -41.125-123.381 -52.811  0.00  0.00     0.019 A 
BRANCH  13  17
ATOM     17  O   UNL d   1     -41.256-122.197 -50.633  0.00  0.00    -0.328 OA
ATOM     18  C   UNL d   1     -41.721-122.502 -50.023  0.00  0.00     0.181 C 
ENDBRANCH  13  17
ENDBRANCH  10  11
ENDBRANCH   2  10
TORSDOF 3
ENDMDL
