MODEL 1
REMARK VINA RESULT:      60.0      0.000      0.000
REMARK  5 active torsions:
REMARK  status: ('A' for Active; 'I' for Inactive)
REMARK    1  A    between atoms: C_2  and  C_1 
REMARK    2  A    between atoms: C_3  and  C_2 
REMARK    3  A    between atoms: C_6  and  C_3 
REMARK    4  A    between atoms: O_15  and  C_12 
REMARK    5  A    between atoms: O_14  and  C_13 
ROOT
ATOM      1  C   UNL d   1     -51.125  26.131  34.098  0.00  0.00     0.143 C 
ATOM      2  C   UNL d   1     -50.496  26.514  33.695  0.00  0.00     0.107 C 
ATOM      3  N   UNL d   1     -49.868  26.899  33.306  0.00  0.00    -0.191 NA
ENDROOT
BRANCH   1   4
ATOM      4  C   UNL d   1     -51.226  26.240  34.921  0.00  0.00     0.175 A 
ATOM      5  N   UNL d   1     -50.674  26.447  35.484  0.00  0.00    -0.225 NA
ATOM      6  C   UNL d   1     -51.017  26.486  36.190  0.00  0.00     0.101 A 
ATOM      7  C   UNL d   1     -50.737  26.661  36.919  0.00  0.00     0.021 A 
ATOM      8  C   UNL d   1     -51.817  26.304  36.112  0.00  0.00     0.101 A 
ATOM      9  C   UNL d   1     -51.234  26.662  37.592  0.00  0.00     0.002 A 
ATOM     10  C   UNL d   1     -52.014  26.478  37.477  0.00  0.00     0.002 A 
ATOM     11  C   UNL d   1     -52.289  26.303  36.741  0.00  0.00     0.021 A 
ATOM     12  N   UNL d   1     -51.938  26.149  35.300  0.00  0.00    -0.225 NA
ENDBRANCH   1   4
BRANCH   1  13
ATOM     13  C   UNL d   1     -51.623  25.656  33.653  0.00  0.00     0.212 C 
ATOM     14  O   UNL d   1     -52.299  25.988  33.306  0.00  0.00    -0.286 OA
BRANCH  13  15
ATOM     15  C   UNL d   1     -51.469  24.856  33.542  0.00  0.00     0.084 A 
ATOM     16  C   UNL d   1     -52.093  24.326  33.555  0.00  0.00     0.099 A 
ATOM     17  C   UNL d   1     -51.944  23.504  33.442  0.00  0.00     0.024 A 
ATOM     18  C   UNL d   1     -51.162  23.257  33.320  0.00  0.00     0.004 A 
ATOM     19  C   UNL d   1     -50.534  23.803  33.308  0.00  0.00     0.024 A 
ATOM     20  C   UNL d   1     -50.709  24.614  33.423  0.00  0.00     0.099 A 
BRANCH  16  21
ATOM     21  O   UNL d   1     -52.881  24.550  33.675  0.00  0.00    -0.328 OA
ATOM     22  C   UNL d   1     -53.490  23.985  33.583  0.00  0.00     0.181 C 
ENDBRANCH  16  21
BRANCH  20  23
ATOM     23  O   UNL d   1     -50.087  25.162  33.412  0.00  0.00    -0.328 OA
ATOM     24  C   UNL d   1     -49.302  24.916  33.393  0.00  0.00     0.181 C 
ENDBRANCH  20  23
ENDBRANCH  13  15
ENDBRANCH   1  13
TORSDOF 5
ENDMDL
