MODEL 1
REMARK VINA RESULT:      11.6      0.000      0.000
REMARK  4 active torsions:
REMARK  status: ('A' for Active; 'I' for Inactive)
REMARK    1  A    between atoms: C_3  and  C_1 
REMARK    2  A    between atoms: C_4  and  C_1 
REMARK    3  A    between atoms: C_2  and  C_3 
REMARK    4  A    between atoms: C_6  and  C_4 
ROOT
ATOM      1  C   UNL d   1      14.495  12.407  -1.623  0.00  0.00     0.196 C 
ATOM      2  O   UNL d   1      15.033  11.780  -1.623  0.00  0.00    -0.287 OA
ENDROOT
BRANCH   1   3
ATOM      3  C   UNL d   1      13.782  12.336  -2.033  0.00  0.00     0.044 C 
BRANCH   3   4
ATOM      4  C   UNL d   1      13.540  11.924  -2.702  0.00  0.00     0.028 C 
BRANCH   4   5
ATOM      5  C   UNL d   1      13.337  12.139  -3.473  0.00  0.00     0.100 A 
ATOM      6  O   UNL d   1      13.524  11.786  -4.197  0.00  0.00    -0.305 OA
ATOM      7  C   UNL d   1      13.180  12.226  -4.801  0.00  0.00     0.123 A 
ATOM      8  C   UNL d   1      12.772  12.863  -4.448  0.00  0.00     0.029 A 
ATOM      9  C   UNL d   1      12.865  12.814  -3.631  0.00  0.00     0.027 A 
ENDBRANCH   4   5
ENDBRANCH   3   4
ENDBRANCH   1   3
BRANCH   1  10
ATOM     10  C   UNL d   1      14.680  13.099  -1.211  0.00  0.00     0.039 A 
ATOM     11  C   UNL d   1      14.888  13.075  -0.413  0.00  0.00     0.006 A 
ATOM     12  C   UNL d   1      15.071  13.773  -0.014  0.00  0.00     0.042 A 
ATOM     13  C   UNL d   1      15.044  14.497  -0.413  0.00  0.00     0.196 A 
ATOM     14  C   UNL d   1      14.833  14.518  -1.218  0.00  0.00     0.042 A 
ATOM     15  O   UNL d   1      15.226  15.196  -0.014  0.00  0.00    -0.287 OA
ATOM     16  C   UNL d   1      14.653  13.823  -1.610  0.00  0.00     0.006 A 
ENDBRANCH   1  10
TORSDOF 4
ENDMDL
MODEL 2
REMARK VINA RESULT:      13.5      1.578      3.547
REMARK  4 active torsions:
REMARK  status: ('A' for Active; 'I' for Inactive)
REMARK    1  A    between atoms: C_3  and  C_1 
REMARK    2  A    between atoms: C_4  and  C_1 
REMARK    3  A    between atoms: C_2  and  C_3 
REMARK    4  A    between atoms: C_6  and  C_4 
ROOT
ATOM      1  C   UNL d   1      13.523  12.413  -3.504  0.00  0.00     0.196 C 
ATOM      2  O   UNL d   1      13.733  11.785  -3.999  0.00  0.00    -0.287 OA
ENDROOT
BRANCH   1   3
ATOM      3  C   UNL d   1      13.472  12.295  -2.689  0.00  0.00     0.044 C 
BRANCH   3   4
ATOM      4  C   UNL d   1      13.830  11.779  -2.157  0.00  0.00     0.028 C 
BRANCH   4   5
ATOM      5  C   UNL d   1      14.183  11.865  -1.416  0.00  0.00     0.100 A 
ATOM      6  O   UNL d   1      14.979  11.825  -1.191  0.00  0.00    -0.305 OA
ATOM      7  C   UNL d   1      15.029  11.951  -0.380  0.00  0.00     0.123 A 
ATOM      8  C   UNL d   1      14.253  12.072  -0.094  0.00  0.00     0.029 A 
ATOM      9  C   UNL d   1      13.729  12.020  -0.728  0.00  0.00     0.027 A 
ENDBRANCH   4   5
ENDBRANCH   3   4
ENDBRANCH   1   3
BRANCH   1  10
ATOM     10  C   UNL d   1      13.367  13.154  -3.836  0.00  0.00     0.039 A 
ATOM     11  C   UNL d   1      13.637  13.845  -3.475  0.00  0.00     0.006 A 
ATOM     12  C   UNL d   1      13.474  14.578  -3.817  0.00  0.00     0.042 A 
ATOM     13  C   UNL d   1      13.040  14.619  -4.521  0.00  0.00     0.196 A 
ATOM     14  C   UNL d   1      12.770  13.919  -4.881  0.00  0.00     0.042 A 
ATOM     15  O   UNL d   1      12.877  15.352  -4.863  0.00  0.00    -0.287 OA
ATOM     16  C   UNL d   1      12.934  13.196  -4.539  0.00  0.00     0.006 A 
ENDBRANCH   1  10
TORSDOF 4
ENDMDL
