MODEL 1
REMARK VINA RESULT:     -10.8      0.000      0.000
REMARK  3 active torsions:
REMARK  status: ('A' for Active; 'I' for Inactive)
REMARK    1  A    between atoms: C_4  and  C_1 
REMARK       I    between atoms: C_5  and  N_6 
REMARK    2  A    between atoms: C_8  and  C_5 
REMARK    3  A    between atoms: N_6  and  C_7 
ROOT
ATOM      1  C   UNL d   1      53.959  32.876  54.358  0.00  0.00     0.042 A 
ATOM      2  C   UNL d   1      53.479  33.544  54.270  0.00  0.00     0.087 A 
ATOM      3  C   UNL d   1      54.669  32.939  54.773  0.00  0.00     0.004 A 
ATOM      4  C   UNL d   1      53.705  34.268  54.593  0.00  0.00     0.019 A 
ATOM      5  C   UNL d   1      54.903  33.656  55.099  0.00  0.00     0.000 A 
ATOM      6  C   UNL d   1      54.416  34.326  55.007  0.00  0.00     0.002 A 
ENDROOT
BRANCH   1   7
ATOM      7  C   UNL d   1      53.730  32.152  54.033  0.00  0.00     0.112 A 
ATOM      8  N   UNL d   1      53.606  31.926  53.258  0.00  0.00    -0.238 NA
ATOM      9  C   UNL d   1      53.383  31.133  53.262  0.00  0.00     0.088 A 
ATOM     10  C   UNL d   1      53.190  30.613  52.658  0.00  0.00     0.020 A 
ATOM     11  C   UNL d   1      53.372  30.878  54.040  0.00  0.00     0.049 A 
ATOM     12  C   UNL d   1      52.984  29.833  52.835  0.00  0.00     0.002 A 
ATOM     13  C   UNL d   1      52.973  29.578  53.614  0.00  0.00     0.001 A 
ATOM     14  C   UNL d   1      53.166  30.098  54.217  0.00  0.00     0.008 A 
ATOM     15  S   UNL d   1      53.589  31.517  54.519  0.00  0.00    -0.066 SA
ENDBRANCH   1   7
BRANCH   2  16
ATOM     16  N   UNL d   1      52.769  33.482  53.856  0.00  0.00    -0.206 NA
ATOM     17  C   UNL d   1      52.330  34.168  53.679  0.00  0.00     0.302 C 
ATOM     18  O   UNL d   1      52.607  34.905  53.919  0.00  0.00    -0.263 OA
BRANCH  17  19
ATOM     19  C   UNL d   1      51.618  34.110  53.264  0.00  0.00     0.158 A 
ATOM     20  O   UNL d   1      50.879  33.800  53.471  0.00  0.00    -0.300 OA
ATOM     21  C   UNL d   1      50.383  33.897  52.831  0.00  0.00     0.123 A 
ATOM     22  C   UNL d   1      50.797  34.264  52.220  0.00  0.00     0.029 A 
ATOM     23  C   UNL d   1      51.565  34.395  52.492  0.00  0.00     0.032 A 
ENDBRANCH  17  19
ENDBRANCH   2  16
TORSDOF 3
ENDMDL
MODEL 2
REMARK VINA RESULT:     -10.7      1.385      3.480
REMARK  3 active torsions:
REMARK  status: ('A' for Active; 'I' for Inactive)
REMARK    1  A    between atoms: C_4  and  C_1 
REMARK       I    between atoms: C_5  and  N_6 
REMARK    2  A    between atoms: C_8  and  C_5 
REMARK    3  A    between atoms: N_6  and  C_7 
ROOT
ATOM      1  C   UNL d   1      53.282  33.661  54.183  0.00  0.00     0.042 A 
ATOM      2  C   UNL d   1      53.638  32.917  54.211  0.00  0.00     0.087 A 
ATOM      3  C   UNL d   1      53.637  34.296  54.572  0.00  0.00     0.004 A 
ATOM      4  C   UNL d   1      54.343  32.804  54.623  0.00  0.00     0.019 A 
ATOM      5  C   UNL d   1      54.340  34.195  54.985  0.00  0.00     0.000 A 
ATOM      6  C   UNL d   1      54.695  33.442  55.011  0.00  0.00     0.002 A 
ENDROOT
BRANCH   1   7
ATOM      7  C   UNL d   1      52.575  33.771  53.769  0.00  0.00     0.112 A 
ATOM      8  N   UNL d   1      51.805  33.579  53.961  0.00  0.00    -0.238 NA
ATOM      9  C   UNL d   1      51.324  33.819  53.336  0.00  0.00     0.088 A 
ATOM     10  C   UNL d   1      50.514  33.773  53.216  0.00  0.00     0.020 A 
ATOM     11  C   UNL d   1      51.804  34.157  52.765  0.00  0.00     0.049 A 
ATOM     12  C   UNL d   1      50.183  34.068  52.518  0.00  0.00     0.002 A 
ATOM     13  C   UNL d   1      50.665  34.405  51.947  0.00  0.00     0.001 A 
ATOM     14  C   UNL d   1      51.473  34.451  52.068  0.00  0.00     0.008 A 
ATOM     15  S   UNL d   1      52.585  34.125  53.039  0.00  0.00    -0.066 SA
ENDBRANCH   1   7
BRANCH   2  16
ATOM     16  N   UNL d   1      53.283  32.281  53.823  0.00  0.00    -0.206 NA
ATOM     17  C   UNL d   1      53.670  31.543  53.793  0.00  0.00     0.302 C 
ATOM     18  O   UNL d   1      54.406  31.452  54.151  0.00  0.00    -0.263 OA
BRANCH  17  19
ATOM     19  C   UNL d   1      53.318  30.906  53.405  0.00  0.00     0.158 A 
ATOM     20  O   UNL d   1      53.014  30.821  52.639  0.00  0.00    -0.300 OA
ATOM     21  C   UNL d   1      52.735  30.058  52.568  0.00  0.00     0.123 A 
ATOM     22  C   UNL d   1      52.857  29.657  53.278  0.00  0.00     0.029 A 
ATOM     23  C   UNL d   1      53.220  30.187  53.796  0.00  0.00     0.032 A 
ENDBRANCH  17  19
ENDBRANCH   2  16
TORSDOF 3
ENDMDL
MODEL 3
REMARK VINA RESULT:     -10.4      1.003      2.943
REMARK  3 active torsions:
REMARK  status: ('A' for Active; 'I' for Inactive)
REMARK    1  A    between atoms: C_4  and  C_1 
REMARK       I    between atoms: C_5  and  N_6 
REMARK    2  A    between atoms: C_8  and  C_5 
REMARK    3  A    between atoms: N_6  and  C_7 
ROOT
ATOM      1  C   UNL d   1      53.526  31.394  53.639  0.00  0.00     0.042 A 
ATOM      2  C   UNL d   1      52.844  31.538  53.195  0.00  0.00     0.087 A 
ATOM      3  C   UNL d   1      53.771  30.616  53.763  0.00  0.00     0.004 A 
ATOM      4  C   UNL d   1      52.409  30.914  52.879  0.00  0.00     0.019 A 
ATOM      5  C   UNL d   1      53.345  29.987  53.452  0.00  0.00     0.000 A 
ATOM      6  C   UNL d   1      52.658  30.138  53.006  0.00  0.00     0.002 A 
ENDROOT
BRANCH   1   7
ATOM      7  C   UNL d   1      53.960  32.021  53.954  0.00  0.00     0.112 A 
ATOM      8  N   UNL d   1      54.490  32.537  53.608  0.00  0.00    -0.238 NA
ATOM      9  C   UNL d   1      54.755  33.055  54.191  0.00  0.00     0.088 A 
ATOM     10  C   UNL d   1      55.283  33.681  54.173  0.00  0.00     0.020 A 
ATOM     11  C   UNL d   1      54.385  32.852  54.893  0.00  0.00     0.049 A 
ATOM     12  C   UNL d   1      55.442  34.108  54.862  0.00  0.00     0.002 A 
ATOM     13  C   UNL d   1      55.071  33.905  55.564  0.00  0.00     0.001 A 
ATOM     14  C   UNL d   1      54.543  33.279  55.582  0.00  0.00     0.008 A 
ATOM     15  S   UNL d   1      53.889  32.207  54.741  0.00  0.00    -0.066 SA
ENDBRANCH   1   7
BRANCH   2  16
ATOM     16  N   UNL d   1      52.598  32.316  53.070  0.00  0.00    -0.206 NA
ATOM     17  C   UNL d   1      51.799  32.476  52.896  0.00  0.00     0.302 C 
ATOM     18  O   UNL d   1      51.258  31.858  52.850  0.00  0.00    -0.263 OA
BRANCH  17  19
ATOM     19  C   UNL d   1      51.549  33.253  52.771  0.00  0.00     0.158 A 
ATOM     20  O   UNL d   1      51.806  33.840  52.246  0.00  0.00    -0.300 OA
ATOM     21  C   UNL d   1      51.348  34.503  52.375  0.00  0.00     0.123 A 
ATOM     22  C   UNL d   1      50.804  34.345  52.974  0.00  0.00     0.029 A 
ATOM     23  C   UNL d   1      50.932  33.567  53.218  0.00  0.00     0.032 A 
ENDBRANCH  17  19
ENDBRANCH   2  16
TORSDOF 3
ENDMDL
MODEL 4
REMARK VINA RESULT:      -9.6      1.047      2.756
REMARK  3 active torsions:
REMARK  status: ('A' for Active; 'I' for Inactive)
REMARK    1  A    between atoms: C_4  and  C_1 
REMARK       I    between atoms: C_5  and  N_6 
REMARK    2  A    between atoms: C_8  and  C_5 
REMARK    3  A    between atoms: N_6  and  C_7 
ROOT
ATOM      1  C   UNL d   1      52.069  33.149  52.908  0.00  0.00     0.042 A 
ATOM      2  C   UNL d   1      52.426  33.729  53.376  0.00  0.00     0.087 A 
ATOM      3  C   UNL d   1      51.453  33.359  52.402  0.00  0.00     0.004 A 
ATOM      4  C   UNL d   1      52.171  34.512  53.341  0.00  0.00     0.019 A 
ATOM      5  C   UNL d   1      51.192  34.137  52.358  0.00  0.00     0.000 A 
ATOM      6  C   UNL d   1      51.555  34.718  52.833  0.00  0.00     0.002 A 
ENDROOT
BRANCH   1   7
ATOM      7  C   UNL d   1      52.326  32.365  52.946  0.00  0.00     0.112 A 
ATOM      8  N   UNL d   1      53.010  32.010  52.676  0.00  0.00    -0.238 NA
ATOM      9  C   UNL d   1      52.971  31.210  52.868  0.00  0.00     0.088 A 
ATOM     10  C   UNL d   1      53.487  30.587  52.740  0.00  0.00     0.020 A 
ATOM     11  C   UNL d   1      52.261  31.080  53.255  0.00  0.00     0.049 A 
ATOM     12  C   UNL d   1      53.292  29.828  53.002  0.00  0.00     0.002 A 
ATOM     13  C   UNL d   1      52.582  29.698  53.389  0.00  0.00     0.001 A 
ATOM     14  C   UNL d   1      52.066  30.321  53.517  0.00  0.00     0.008 A 
ATOM     15  S   UNL d   1      51.861  31.803  53.302  0.00  0.00    -0.066 SA
ENDBRANCH   1   7
BRANCH   2  16
ATOM     16  N   UNL d   1      53.042  33.520  53.883  0.00  0.00    -0.206 NA
ATOM     17  C   UNL d   1      53.444  34.109  54.315  0.00  0.00     0.302 C 
ATOM     18  O   UNL d   1      53.224  34.898  54.234  0.00  0.00    -0.263 OA
BRANCH  17  19
ATOM     19  C   UNL d   1      54.060  33.903  54.823  0.00  0.00     0.158 A 
ATOM     20  O   UNL d   1      54.073  33.494  55.543  0.00  0.00    -0.300 OA
ATOM     21  C   UNL d   1      54.850  33.457  55.793  0.00  0.00     0.123 A 
ATOM     22  C   UNL d   1      55.329  33.837  55.241  0.00  0.00     0.029 A 
ATOM     23  C   UNL d   1      54.836  34.113  54.639  0.00  0.00     0.032 A 
ENDBRANCH  17  19
ENDBRANCH   2  16
TORSDOF 3
ENDMDL
MODEL 5
REMARK VINA RESULT:      -9.5      1.435      3.793
REMARK  3 active torsions:
REMARK  status: ('A' for Active; 'I' for Inactive)
REMARK    1  A    between atoms: C_4  and  C_1 
REMARK       I    between atoms: C_5  and  N_6 
REMARK    2  A    between atoms: C_8  and  C_5 
REMARK    3  A    between atoms: N_6  and  C_7 
ROOT
ATOM      1  C   UNL d   1      52.628  31.503  53.103  0.00  0.00     0.042 A 
ATOM      2  C   UNL d   1      53.339  31.478  53.523  0.00  0.00     0.087 A 
ATOM      3  C   UNL d   1      52.285  30.799  52.845  0.00  0.00     0.004 A 
ATOM      4  C   UNL d   1      53.706  30.759  53.686  0.00  0.00     0.019 A 
ATOM      5  C   UNL d   1      52.642  30.076  53.002  0.00  0.00     0.000 A 
ATOM      6  C   UNL d   1      53.359  30.057  53.426  0.00  0.00     0.002 A 
ENDROOT
BRANCH   1   7
ATOM      7  C   UNL d   1      52.264  32.227  52.941  0.00  0.00     0.112 A 
ATOM      8  N   UNL d   1      52.488  32.846  52.459  0.00  0.00    -0.238 NA
ATOM      9  C   UNL d   1      51.909  33.429  52.512  0.00  0.00     0.088 A 
ATOM     10  C   UNL d   1      51.833  34.165  52.159  0.00  0.00     0.020 A 
ATOM     11  C   UNL d   1      51.332  33.162  53.029  0.00  0.00     0.049 A 
ATOM     12  C   UNL d   1      51.175  34.636  52.323  0.00  0.00     0.002 A 
ATOM     13  C   UNL d   1      50.598  34.369  52.840  0.00  0.00     0.001 A 
ATOM     14  C   UNL d   1      50.674  33.634  53.193  0.00  0.00     0.008 A 
ATOM     15  S   UNL d   1      51.557  32.411  53.295  0.00  0.00    -0.066 SA
ENDBRANCH   1   7
BRANCH   2  16
ATOM     16  N   UNL d   1      53.684  32.182  53.781  0.00  0.00    -0.206 NA
ATOM     17  C   UNL d   1      54.148  32.189  54.473  0.00  0.00     0.302 C 
ATOM     18  O   UNL d   1      54.261  31.493  54.897  0.00  0.00    -0.263 OA
BRANCH  17  19
ATOM     19  C   UNL d   1      54.494  32.891  54.734  0.00  0.00     0.158 A 
ATOM     20  O   UNL d   1      55.008  33.427  54.367  0.00  0.00    -0.300 OA
ATOM     21  C   UNL d   1      55.165  34.024  54.900  0.00  0.00     0.123 A 
ATOM     22  C   UNL d   1      54.757  33.876  55.601  0.00  0.00     0.029 A 
ATOM     23  C   UNL d   1      54.341  33.171  55.495  0.00  0.00     0.032 A 
ENDBRANCH  17  19
ENDBRANCH   2  16
TORSDOF 3
ENDMDL
MODEL 6
REMARK VINA RESULT:      -9.0      1.332      3.588
REMARK  3 active torsions:
REMARK  status: ('A' for Active; 'I' for Inactive)
REMARK    1  A    between atoms: C_4  and  C_1 
REMARK       I    between atoms: C_5  and  N_6 
REMARK    2  A    between atoms: C_8  and  C_5 
REMARK    3  A    between atoms: N_6  and  C_7 
ROOT
ATOM      1  C   UNL d   1      52.385  33.823  53.427  0.00  0.00     0.042 A 
ATOM      2  C   UNL d   1      52.070  33.150  53.066  0.00  0.00     0.087 A 
ATOM      3  C   UNL d   1      51.958  34.528  53.412  0.00  0.00     0.004 A 
ATOM      4  C   UNL d   1      51.336  33.177  52.693  0.00  0.00     0.019 A 
ATOM      5  C   UNL d   1      51.225  34.567  53.043  0.00  0.00     0.000 A 
ATOM      6  C   UNL d   1      50.912  33.885  52.680  0.00  0.00     0.002 A 
ENDROOT
BRANCH   1   7
ATOM      7  C   UNL d   1      53.121  33.792  53.800  0.00  0.00     0.112 A 
ATOM      8  N   UNL d   1      53.873  33.687  53.498  0.00  0.00    -0.238 NA
ATOM      9  C   UNL d   1      54.401  33.703  54.129  0.00  0.00     0.088 A 
ATOM     10  C   UNL d   1      55.217  33.628  54.167  0.00  0.00     0.020 A 
ATOM     11  C   UNL d   1      53.969  33.817  54.816  0.00  0.00     0.049 A 
ATOM     12  C   UNL d   1      55.602  33.668  54.896  0.00  0.00     0.002 A 
ATOM     13  C   UNL d   1      55.169  33.783  55.583  0.00  0.00     0.001 A 
ATOM     14  C   UNL d   1      54.355  33.857  55.545  0.00  0.00     0.008 A 
ATOM     15  S   UNL d   1      53.170  33.872  54.606  0.00  0.00    -0.066 SA
ENDBRANCH   1   7
BRANCH   2  16
ATOM     16  N   UNL d   1      52.497  32.444  53.081  0.00  0.00    -0.206 NA
ATOM     17  C   UNL d   1      52.102  31.717  52.982  0.00  0.00     0.302 C 
ATOM     18  O   UNL d   1      51.287  31.706  52.869  0.00  0.00    -0.263 OA
BRANCH  17  19
ATOM     19  C   UNL d   1      52.525  31.008  52.996  0.00  0.00     0.158 A 
ATOM     20  O   UNL d   1      53.150  30.726  52.531  0.00  0.00    -0.300 OA
ATOM     21  C   UNL d   1      53.345  29.982  52.805  0.00  0.00     0.123 A 
ATOM     22  C   UNL d   1      52.852  29.789  53.437  0.00  0.00     0.029 A 
ATOM     23  C   UNL d   1      52.344  30.429  53.553  0.00  0.00     0.032 A 
ENDBRANCH  17  19
ENDBRANCH   2  16
TORSDOF 3
ENDMDL
