MODEL 1
REMARK VINA RESULT:      -2.6      0.000      0.000
REMARK  8 active torsions:
REMARK  status: ('A' for Active; 'I' for Inactive)
REMARK    1  A    between atoms: C_2  and  S_1 
REMARK    2  A    between atoms: N_11  and  S_1 
REMARK    3  A    between atoms: C_10  and  C_3 
REMARK    4  A    between atoms: N_6  and  C_18 
REMARK    5  A    between atoms: C_20  and  N_11 
REMARK    6  A    between atoms: O_17  and  C_12 
REMARK    7  A    between atoms: C_18  and  C_19 
REMARK    8  A    between atoms: C_19  and  C_20 
ROOT
ATOM      1  C   UNL d   1      32.518  18.349 -23.734  0.00  0.00     0.105 A 
ATOM      2  C   UNL d   1      32.496  16.948 -24.014  0.00  0.00     0.000 A 
ATOM      3  C   UNL d   1      32.850  17.597 -23.650  0.00  0.00     0.011 A 
ATOM      4  C   UNL d   1      31.809  17.051 -24.462  0.00  0.00     0.090 A 
ATOM      5  C   UNL d   1      31.828  18.454 -24.183  0.00  0.00     0.015 A 
ATOM      6  C   UNL d   1      31.474  17.805 -24.547  0.00  0.00     0.025 A 
ENDROOT
BRANCH   1   7
ATOM      7  S   UNL d   1      32.872  18.997 -23.370  0.00  0.00     0.285 S 
ATOM      8  O   UNL d   1      33.221  19.209 -24.087  0.00  0.00    -0.198 OA
ATOM      9  O   UNL d   1      32.524  18.786 -22.654  0.00  0.00    -0.198 OA
BRANCH   7  10
ATOM     10  N   UNL d   1      33.229  19.649 -23.005  0.00  0.00    -0.157 NA
BRANCH  10  11
ATOM     11  C   UNL d   1      32.895  19.968 -22.315  0.00  0.00     0.114 C 
BRANCH  11  12
ATOM     12  C   UNL d   1      33.191  20.672 -22.005  0.00  0.00     0.041 C 
BRANCH  12  13
ATOM     13  C   UNL d   1      32.926  20.954 -21.276  0.00  0.00     0.083 C 
BRANCH  13  14
ATOM     14  N   UNL d   1      32.766  21.755 -21.169  0.00  0.00    -0.285 N 
ATOM     15  C   UNL d   1      32.145  22.065 -20.726  0.00  0.00     0.183 A 
ATOM     16  N   UNL d   1      32.197  22.891 -20.771  0.00  0.00    -0.222 NA
ATOM     17  C   UNL d   1      32.847  23.082 -21.239  0.00  0.00     0.120 A 
ATOM     18  C   UNL d   1      33.200  22.376 -21.485  0.00  0.00     0.102 A 
ENDBRANCH  13  14
ENDBRANCH  12  13
ENDBRANCH  11  12
ENDBRANCH  10  11
ENDBRANCH   7  10
ENDBRANCH   1   7
BRANCH   2  19
ATOM     19  C   UNL d   1      32.825  16.199 -23.932  0.00  0.00     0.021 C 
ATOM     20  C   UNL d   1      33.155  15.453 -23.853  0.00  0.00     0.004 C 
ATOM     21  C   UNL d   1      32.415  16.096 -23.227  0.00  0.00     0.004 C 
ATOM     22  C   UNL d   1      33.240  16.295 -24.639  0.00  0.00     0.004 C 
ENDBRANCH   2  19
BRANCH   4  23
ATOM     23  O   UNL d   1      31.454  16.401 -24.826  0.00  0.00    -0.328 OA
ATOM     24  C   UNL d   1      30.652  16.426 -25.022  0.00  0.00     0.181 C 
ENDBRANCH   4  23
TORSDOF 8
ENDMDL
MODEL 2
REMARK VINA RESULT:      -2.3      1.707      5.684
REMARK  8 active torsions:
REMARK  status: ('A' for Active; 'I' for Inactive)
REMARK    1  A    between atoms: C_2  and  S_1 
REMARK    2  A    between atoms: N_11  and  S_1 
REMARK    3  A    between atoms: C_10  and  C_3 
REMARK    4  A    between atoms: N_6  and  C_18 
REMARK    5  A    between atoms: C_20  and  N_11 
REMARK    6  A    between atoms: O_17  and  C_12 
REMARK    7  A    between atoms: C_18  and  C_19 
REMARK    8  A    between atoms: C_19  and  C_20 
ROOT
ATOM      1  C   UNL d   1      33.071  20.651 -21.719  0.00  0.00     0.105 A 
ATOM      2  C   UNL d   1      32.788  22.040 -21.539  0.00  0.00     0.000 A 
ATOM      3  C   UNL d   1      32.845  21.382 -22.032  0.00  0.00     0.011 A 
ATOM      4  C   UNL d   1      32.956  21.967 -20.733  0.00  0.00     0.090 A 
ATOM      5  C   UNL d   1      33.241  20.576 -20.911  0.00  0.00     0.015 A 
ATOM      6  C   UNL d   1      33.183  21.234 -20.418  0.00  0.00     0.025 A 
ENDROOT
BRANCH   1   7
ATOM      7  S   UNL d   1      33.128  19.994 -22.212  0.00  0.00     0.285 S 
ATOM      8  O   UNL d   1      33.238  20.489 -22.861  0.00  0.00    -0.198 OA
ATOM      9  O   UNL d   1      33.019  19.498 -21.563  0.00  0.00    -0.198 OA
BRANCH   7  10
ATOM     10  N   UNL d   1      33.186  19.333 -22.708  0.00  0.00    -0.157 NA
BRANCH  10  11
ATOM     11  C   UNL d   1      32.497  18.943 -22.957  0.00  0.00     0.114 C 
BRANCH  11  12
ATOM     12  C   UNL d   1      32.556  18.265 -23.421  0.00  0.00     0.041 C 
BRANCH  12  13
ATOM     13  C   UNL d   1      31.878  17.850 -23.646  0.00  0.00     0.083 C 
BRANCH  13  14
ATOM     14  N   UNL d   1      31.939  17.114 -24.012  0.00  0.00    -0.285 N 
ATOM     15  C   UNL d   1      32.487  16.912 -24.593  0.00  0.00     0.183 A 
ATOM     16  N   UNL d   1      32.348  16.122 -24.800  0.00  0.00    -0.222 NA
ATOM     17  C   UNL d   1      31.719  15.845 -24.346  0.00  0.00     0.120 A 
ATOM     18  C   UNL d   1      31.466  16.462 -23.857  0.00  0.00     0.102 A 
ENDBRANCH  13  14
ENDBRANCH  12  13
ENDBRANCH  11  12
ENDBRANCH  10  11
ENDBRANCH   7  10
ENDBRANCH   1   7
BRANCH   2  19
ATOM     19  C   UNL d   1      32.563  22.768 -21.848  0.00  0.00     0.021 C 
ATOM     20  C   UNL d   1      32.336  23.494 -22.155  0.00  0.00     0.004 C 
ATOM     21  C   UNL d   1      33.241  22.780 -22.314  0.00  0.00     0.004 C 
ATOM     22  C   UNL d   1      31.880  22.763 -21.384  0.00  0.00     0.004 C 
ENDBRANCH   2  19
BRANCH   4  23
ATOM     23  O   UNL d   1      32.899  22.625 -20.240  0.00  0.00    -0.328 OA
ATOM     24  C   UNL d   1      33.213  22.597 -19.476  0.00  0.00     0.181 C 
ENDBRANCH   4  23
TORSDOF 8
ENDMDL
