MODEL 1
REMARK VINA RESULT:      14.5      0.000      0.000
REMARK  8 active torsions:
REMARK  status: ('A' for Active; 'I' for Inactive)
REMARK    1  A    between atoms: N_9  and  C_1 
REMARK    2  A    between atoms: C_12  and  C_2 
REMARK    3  A    between atoms: C_28  and  N_6 
REMARK    4  A    between atoms: C_10  and  C_12 
REMARK    5  A    between atoms: C_16  and  C_14 
REMARK    6  A    between atoms: C_20  and  C_16 
REMARK    7  A    between atoms: O_31  and  C_20 
REMARK    8  A    between atoms: C_34  and  C_28 
ROOT
ATOM      1  C   UNL d   1     -41.401-121.653 -51.969  0.00  0.00     0.154 A 
ATOM      2  C   UNL d   1     -41.378-122.373 -51.551  0.00  0.00     0.092 A 
ATOM      3  N   UNL d   1     -41.512-121.662 -52.799  0.00  0.00    -0.210 NA
ATOM      4  N   UNL d   1     -41.576-123.094 -52.783  0.00  0.00    -0.258 N 
ATOM      5  C   UNL d   1     -41.600-122.379 -53.209  0.00  0.00     0.152 A 
ATOM      6  C   UNL d   1     -41.465-123.103 -51.958  0.00  0.00     0.269 A 
ATOM      7  C   UNL d   1     -41.709-122.386 -54.020  0.00  0.00     0.035 A 
ATOM      8  C   UNL d   1     -41.663-123.812 -53.192  0.00  0.00     0.084 A 
ATOM      9  O   UNL d   1     -41.443-123.817 -51.544  0.00  0.00    -0.266 OA
ATOM     10  C   UNL d   1     -41.771-123.808 -54.001  0.00  0.00     0.019 A 
ATOM     11  C   UNL d   1     -41.794-123.094 -54.415  0.00  0.00     0.005 A 
ATOM     12  C   UNL d   1     -41.732-121.673 -54.434  0.00  0.00     0.003 C 
ENDROOT
BRANCH   1  13
ATOM     13  N   UNL d   1     -41.314-120.935 -51.569  0.00  0.00    -0.284 N 
ATOM     14  C   UNL d   1     -41.264-120.234 -52.001  0.00  0.00     0.129 A 
ATOM     15  C   UNL d   1     -41.178-119.521 -51.598  0.00  0.00     0.296 A 
ATOM     16  O   UNL d   1     -41.128-118.815 -52.023  0.00  0.00    -0.264 OA
ATOM     17  N   UNL d   1     -41.142-119.505 -50.773  0.00  0.00    -0.204 NA
ATOM     18  C   UNL d   1     -41.192-120.210 -50.349  0.00  0.00     0.121 A 
ATOM     19  C   UNL d   1     -41.279-120.931 -50.747  0.00  0.00     0.102 A 
BRANCH  14  20
ATOM     20  C   UNL d   1     -41.300-120.250 -52.816  0.00  0.00     0.091 C 
BRANCH  20  21
ATOM     21  C   UNL d   1     -41.762-119.700 -53.223  0.00  0.00     0.298 C 
ATOM     22  O   UNL d   1     -42.364-119.960 -53.732  0.00  0.00    -0.259 OA
BRANCH  21  23
ATOM     23  O   UNL d   1     -41.637-118.892 -53.132  0.00  0.00    -0.296 OA
ATOM     24  C   UNL d   1     -41.587-118.400 -53.792  0.00  0.00     0.185 C 
ENDBRANCH  21  23
ENDBRANCH  20  21
ENDBRANCH  14  20
ENDBRANCH   1  13
BRANCH   2  25
ATOM     25  C   UNL d   1     -41.268-122.373 -50.735  0.00  0.00     0.019 C 
BRANCH  25  26
ATOM     26  C   UNL d   1     -41.826-122.730 -50.243  0.00  0.00     0.088 A 
ATOM     27  C   UNL d   1     -41.794-122.754 -49.420  0.00  0.00     0.272 A 
ATOM     28  N   UNL d   1     -42.464-123.165 -49.157  0.00  0.00    -0.259 N 
ATOM     29  O   UNL d   1     -41.203-122.429 -48.940  0.00  0.00    -0.266 OA
ATOM     30  C   UNL d   1     -42.903-123.391 -49.818  0.00  0.00     0.153 A 
ATOM     31  S   UNL d   1     -42.503-123.118 -50.489  0.00  0.00    -0.053 SA
ATOM     32  S   UNL d   1     -43.605-123.808 -49.808  0.00  0.00    -0.052 SA
BRANCH  28  33
ATOM     33  C   UNL d   1     -42.658-123.322 -48.366  0.00  0.00     0.084 C 
BRANCH  33  34
ATOM     34  C   UNL d   1     -42.063-123.292 -47.787  0.00  0.00     0.019 C 
ATOM     35  C   UNL d   1     -42.275-123.182 -46.993  0.00  0.00     0.002 C 
ENDBRANCH  33  34
ENDBRANCH  28  33
ENDBRANCH  25  26
ENDBRANCH   2  25
TORSDOF 8
ENDMDL
