MODEL 1
REMARK VINA RESULT:      41.1      0.000      0.000
REMARK  3 active torsions:
REMARK  status: ('A' for Active; 'I' for Inactive)
REMARK    1  A    between atoms: C_10  and  C_5 
REMARK    2  A    between atoms: C_16  and  C_10 
REMARK    3  A    between atoms: C_17  and  C_16 
ROOT
ATOM      1  C   UNL d   1      14.723  13.092  -1.292  0.00  0.00     0.111 A 
ATOM      2  C   UNL d   1      14.109  13.137  -2.594  0.00  0.00     0.062 A 
ATOM      3  C   UNL d   1      14.420  12.265  -1.228  0.00  0.00     0.213 A 
ATOM      4  C   UNL d   1      13.843  12.388  -2.518  0.00  0.00     0.101 A 
ATOM      5  C   UNL d   1      14.550  13.490  -1.979  0.00  0.00     0.018 A 
ATOM      6  O   UNL d   1      13.999  11.954  -1.836  0.00  0.00    -0.288 OA
ATOM      7  C   UNL d   1      13.954  13.580  -3.282  0.00  0.00     0.194 A 
ATOM      8  C   UNL d   1      15.159  13.440  -0.685  0.00  0.00     0.105 C 
ATOM      9  N   UNL d   1      15.599  13.809  -0.086  0.00  0.00    -0.191 NA
ATOM     10  C   UNL d   1      13.407  12.040  -3.126  0.00  0.00     0.002 A 
ATOM     11  C   UNL d   1      13.235  12.438  -3.812  0.00  0.00     0.042 A 
ATOM     12  C   UNL d   1      13.532  13.260  -3.884  0.00  0.00     0.019 A 
ATOM     13  O   UNL d   1      14.242  14.386  -3.360  0.00  0.00    -0.287 OA
ATOM     14  N   UNL d   1      14.560  11.780  -0.535  0.00  0.00    -0.120 N 
ATOM     15  C   UNL d   1      12.822  11.779  -4.114  0.00  0.00     0.009 C 
ATOM     16  C   UNL d   1      12.988  12.703  -4.543  0.00  0.00     0.009 C 
ENDROOT
BRANCH   5  17
ATOM     17  C   UNL d   1      14.846  14.293  -2.039  0.00  0.00     0.001 C 
BRANCH  17  18
ATOM     18  C   UNL d   1      14.342  14.919  -1.857  0.00  0.00     0.000 C 
BRANCH  18  19
ATOM     19  C   UNL d   1      14.672  15.674  -1.813  0.00  0.00     0.000 A 
ATOM     20  C   UNL d   1      14.984  15.923  -1.082  0.00  0.00     0.000 A 
ATOM     21  C   UNL d   1      15.313  16.666  -1.025  0.00  0.00     0.000 A 
ATOM     22  C   UNL d   1      15.337  17.171  -1.684  0.00  0.00     0.000 A 
ATOM     23  C   UNL d   1      15.025  16.923  -2.414  0.00  0.00     0.000 A 
ATOM     24  C   UNL d   1      14.697  16.182  -2.476  0.00  0.00     0.000 A 
ENDBRANCH  18  19
ENDBRANCH  17  18
ENDBRANCH   5  17
TORSDOF 3
ENDMDL
MODEL 2
REMARK VINA RESULT:      43.8      1.562      4.014
REMARK  3 active torsions:
REMARK  status: ('A' for Active; 'I' for Inactive)
REMARK    1  A    between atoms: C_10  and  C_5 
REMARK    2  A    between atoms: C_16  and  C_10 
REMARK    3  A    between atoms: C_17  and  C_16 
ROOT
ATOM      1  C   UNL d   1      14.038  14.418  -2.881  0.00  0.00     0.111 A 
ATOM      2  C   UNL d   1      14.275  13.268  -2.047  0.00  0.00     0.062 A 
ATOM      3  C   UNL d   1      14.520  14.880  -2.303  0.00  0.00     0.213 A 
ATOM      4  C   UNL d   1      14.708  13.701  -1.536  0.00  0.00     0.101 A 
ATOM      5  C   UNL d   1      13.940  13.627  -2.722  0.00  0.00     0.018 A 
ATOM      6  O   UNL d   1      14.829  14.505  -1.664  0.00  0.00    -0.288 OA
ATOM      7  C   UNL d   1      14.150  12.454  -1.922  0.00  0.00     0.194 A 
ATOM      8  C   UNL d   1      13.707  14.773  -3.547  0.00  0.00     0.105 C 
ATOM      9  N   UNL d   1      13.365  15.111  -4.224  0.00  0.00    -0.191 NA
ATOM     10  C   UNL d   1      15.039  13.346  -0.869  0.00  0.00     0.002 A 
ATOM     11  C   UNL d   1      14.940  12.556  -0.711  0.00  0.00     0.042 A 
ATOM     12  C   UNL d   1      14.463  12.090  -1.280  0.00  0.00     0.019 A 
ATOM     13  O   UNL d   1      13.684  11.990  -2.475  0.00  0.00    -0.287 OA
ATOM     14  N   UNL d   1      14.669  15.718  -2.400  0.00  0.00    -0.120 N 
ATOM     15  C   UNL d   1      15.396  12.618  -0.015  0.00  0.00     0.009 C 
ATOM     16  C   UNL d   1      14.930  11.793  -0.423  0.00  0.00     0.009 C 
ENDROOT
BRANCH   5  17
ATOM     17  C   UNL d   1      13.471  13.181  -3.286  0.00  0.00     0.001 C 
BRANCH  17  18
ATOM     18  C   UNL d   1      13.733  12.437  -3.524  0.00  0.00     0.000 C 
BRANCH  18  19
ATOM     19  C   UNL d   1      13.620  12.226  -4.313  0.00  0.00     0.000 A 
ATOM     20  C   UNL d   1      14.287  12.208  -4.812  0.00  0.00     0.000 A 
ATOM     21  C   UNL d   1      14.190  12.002  -5.595  0.00  0.00     0.000 A 
ATOM     22  C   UNL d   1      13.438  11.812  -5.892  0.00  0.00     0.000 A 
ATOM     23  C   UNL d   1      12.772  11.829  -5.394  0.00  0.00     0.000 A 
ATOM     24  C   UNL d   1      12.864  12.035  -4.613  0.00  0.00     0.000 A 
ENDBRANCH  18  19
ENDBRANCH  17  18
ENDBRANCH   5  17
TORSDOF 3
ENDMDL
