MODEL 1
REMARK VINA RESULT:      32.4      0.000      0.000
REMARK  6 active torsions:
REMARK  status: ('A' for Active; 'I' for Inactive)
REMARK    1  A    between atoms: N_2  and  S_1 
REMARK    2  A    between atoms: C_6  and  S_1 
REMARK    3  A    between atoms: C_4  and  N_2 
REMARK    4  A    between atoms: C_5  and  C_3 
REMARK    5  A    between atoms: O_12  and  C_5 
REMARK    6  A    between atoms: C_18  and  O_12 
ROOT
ATOM      1  C   UNL d   1     -59.128 -98.813 -45.068  0.00  0.00     0.082 A 
ATOM      2  C   UNL d   1     -58.427 -98.791 -44.644  0.00  0.00     0.099 A 
ATOM      3  C   UNL d   1     -59.849 -98.848 -44.668  0.00  0.00     0.007 A 
ATOM      4  C   UNL d   1     -58.448 -98.802 -43.820  0.00  0.00     0.020 A 
ATOM      5  C   UNL d   1     -59.866 -98.860 -43.846  0.00  0.00     0.000 A 
ATOM      6  C   UNL d   1     -59.165 -98.837 -43.422  0.00  0.00     0.002 A 
ENDROOT
BRANCH   2   7
ATOM      7  N   UNL d   1     -57.689 -98.755 -45.042  0.00  0.00    -0.158 NA
BRANCH   7   8
ATOM      8  S   UNL d   1     -57.081 -99.254 -44.800  0.00  0.00     0.285 S 
ATOM      9  O   UNL d   1     -57.575 -99.570 -44.188  0.00  0.00    -0.198 OA
ATOM     10  O   UNL d   1     -56.583 -98.964 -45.386  0.00  0.00    -0.198 OA
BRANCH   8  11
ATOM     11  C   UNL d   1     -56.475 -99.769 -44.539  0.00  0.00     0.105 A 
ATOM     12  C   UNL d   1     -55.688 -99.507 -44.546  0.00  0.00     0.013 A 
ATOM     13  C   UNL d   1     -55.090-100.015 -44.288  0.00  0.00     0.001 A 
ATOM     14  C   UNL d   1     -55.295-100.772 -44.031  0.00  0.00     0.000 A 
ATOM     15  C   UNL d   1     -56.073-101.037 -44.022  0.00  0.00     0.001 A 
ATOM     16  C   UNL d   1     -54.712-101.295 -43.769  0.00  0.00     0.000 C 
ATOM     17  C   UNL d   1     -56.671-100.529 -44.279  0.00  0.00     0.013 A 
ENDBRANCH   8  11
ENDBRANCH   7   8
ENDBRANCH   2   7
BRANCH   1  18
ATOM     18  C   UNL d   1     -59.108 -98.801 -45.922  0.00  0.00     0.302 C 
ATOM     19  O   UNL d   1     -58.393 -98.834 -46.311  0.00  0.00    -0.259 OA
BRANCH  18  20
ATOM     20  O   UNL d   1     -59.811 -98.756 -46.361  0.00  0.00    -0.271 OA
BRANCH  20  21
ATOM     21  C   UNL d   1     -59.943 -99.301 -46.981  0.00  0.00     0.126 C 
ATOM     22  C   UNL d   1     -59.785 -99.088 -47.752  0.00  0.00     0.029 C 
ENDBRANCH  20  21
ENDBRANCH  18  20
ENDBRANCH   1  18
TORSDOF 6
ENDMDL
