MODEL 1
REMARK VINA RESULT:      -8.9      0.000      0.000
REMARK  1 active torsions:
REMARK  status: ('A' for Active; 'I' for Inactive)
REMARK    1  A    between atoms: C_6  and  C_1 
ROOT
ATOM      1  C   UNL d   1      53.683  32.307  54.120  0.00  0.00     0.163 A 
ATOM      2  N   UNL d   1      53.794  31.565  54.462  0.00  0.00    -0.225 NA
ATOM      3  N   UNL d   1      53.291  32.223  53.389  0.00  0.00    -0.225 NA
ATOM      4  C   UNL d   1      53.472  30.992  53.950  0.00  0.00     0.101 A 
ATOM      5  C   UNL d   1      53.157  31.404  53.278  0.00  0.00     0.101 A 
ATOM      6  C   UNL d   1      53.412  30.188  53.977  0.00  0.00     0.021 A 
ATOM      7  C   UNL d   1      52.803  30.983  52.679  0.00  0.00     0.021 A 
ATOM      8  C   UNL d   1      53.049  29.778  53.359  0.00  0.00     0.002 A 
ATOM      9  C   UNL d   1      52.756  30.161  52.733  0.00  0.00     0.002 A 
ENDROOT
BRANCH   1  10
ATOM     10  C   UNL d   1      53.931  33.014  54.467  0.00  0.00     0.039 A 
ATOM     11  C   UNL d   1      54.711  33.145  54.700  0.00  0.00     0.024 A 
ATOM     12  C   UNL d   1      54.935  33.855  55.043  0.00  0.00     0.099 A 
ATOM     13  N   UNL d   1      54.422  34.474  55.180  0.00  0.00    -0.242 NA
ATOM     14  C   UNL d   1      53.614  34.353  54.945  0.00  0.00     0.099 A 
ATOM     15  C   UNL d   1      53.382  33.618  54.590  0.00  0.00     0.024 A 
ENDBRANCH   1  10
TORSDOF 1
ENDMDL
MODEL 2
REMARK VINA RESULT:      -8.9      0.964      3.533
REMARK  1 active torsions:
REMARK  status: ('A' for Active; 'I' for Inactive)
REMARK    1  A    between atoms: C_6  and  C_1 
ROOT
ATOM      1  C   UNL d   1      53.793  31.701  53.948  0.00  0.00     0.163 A 
ATOM      2  N   UNL d   1      53.691  31.999  54.709  0.00  0.00    -0.225 NA
ATOM      3  N   UNL d   1      54.344  32.171  53.533  0.00  0.00    -0.225 NA
ATOM      4  C   UNL d   1      54.179  32.670  54.793  0.00  0.00     0.101 A 
ATOM      5  C   UNL d   1      54.587  32.777  54.057  0.00  0.00     0.101 A 
ATOM      6  C   UNL d   1      54.319  33.189  55.395  0.00  0.00     0.021 A 
ATOM      7  C   UNL d   1      55.108  33.396  53.974  0.00  0.00     0.021 A 
ATOM      8  C   UNL d   1      54.852  33.811  55.292  0.00  0.00     0.002 A 
ATOM      9  C   UNL d   1      55.232  33.911  54.607  0.00  0.00     0.002 A 
ENDROOT
BRANCH   1  10
ATOM     10  C   UNL d   1      53.399  31.035  53.660  0.00  0.00     0.039 A 
ATOM     11  C   UNL d   1      52.840  31.076  53.055  0.00  0.00     0.024 A 
ATOM     12  C   UNL d   1      52.461  30.402  52.784  0.00  0.00     0.099 A 
ATOM     13  N   UNL d   1      52.599  29.654  53.080  0.00  0.00    -0.242 NA
ATOM     14  C   UNL d   1      53.173  29.597  53.705  0.00  0.00     0.099 A 
ATOM     15  C   UNL d   1      53.566  30.295  53.985  0.00  0.00     0.024 A 
ENDBRANCH   1  10
TORSDOF 1
ENDMDL
MODEL 3
REMARK VINA RESULT:      -8.6      2.141      3.495
REMARK  1 active torsions:
REMARK  status: ('A' for Active; 'I' for Inactive)
REMARK    1  A    between atoms: C_6  and  C_1 
ROOT
ATOM      1  C   UNL d   1      52.382  33.752  53.564  0.00  0.00     0.163 A 
ATOM      2  N   UNL d   1      52.794  34.319  53.997  0.00  0.00    -0.225 NA
ATOM      3  N   UNL d   1      52.725  33.002  53.684  0.00  0.00    -0.225 NA
ATOM      4  C   UNL d   1      53.412  33.936  54.404  0.00  0.00     0.101 A 
ATOM      5  C   UNL d   1      53.369  33.111  54.208  0.00  0.00     0.101 A 
ATOM      6  C   UNL d   1      53.992  34.187  54.906  0.00  0.00     0.021 A 
ATOM      7  C   UNL d   1      53.909  32.594  54.528  0.00  0.00     0.021 A 
ATOM      8  C   UNL d   1      54.531  33.647  55.221  0.00  0.00     0.002 A 
ATOM      9  C   UNL d   1      54.491  32.879  55.039  0.00  0.00     0.002 A 
ENDROOT
BRANCH   1  10
ATOM     10  C   UNL d   1      51.729  33.924  53.088  0.00  0.00     0.039 A 
ATOM     11  C   UNL d   1      51.799  34.111  52.288  0.00  0.00     0.024 A 
ATOM     12  C   UNL d   1      51.137  34.278  51.834  0.00  0.00     0.099 A 
ATOM     13  N   UNL d   1      50.375  34.274  52.126  0.00  0.00    -0.242 NA
ATOM     14  C   UNL d   1      50.288  34.084  52.950  0.00  0.00     0.099 A 
ATOM     15  C   UNL d   1      50.973  33.910  53.419  0.00  0.00     0.024 A 
ENDBRANCH   1  10
TORSDOF 1
ENDMDL
MODEL 4
REMARK VINA RESULT:      -8.1      2.103      2.803
REMARK  1 active torsions:
REMARK  status: ('A' for Active; 'I' for Inactive)
REMARK    1  A    between atoms: C_6  and  C_1 
ROOT
ATOM      1  C   UNL d   1      52.863  33.689  53.689  0.00  0.00     0.163 A 
ATOM      2  N   UNL d   1      52.150  33.354  53.930  0.00  0.00    -0.225 NA
ATOM      3  N   UNL d   1      52.737  34.163  53.015  0.00  0.00    -0.225 NA
ATOM      4  C   UNL d   1      51.553  33.611  53.408  0.00  0.00     0.101 A 
ATOM      5  C   UNL d   1      51.921  34.118  52.835  0.00  0.00     0.101 A 
ATOM      6  C   UNL d   1      50.759  33.476  53.356  0.00  0.00     0.021 A 
ATOM      7  C   UNL d   1      51.469  34.455  52.250  0.00  0.00     0.021 A 
ATOM      8  C   UNL d   1      50.317  33.828  52.754  0.00  0.00     0.002 A 
ATOM      9  C   UNL d   1      50.659  34.299  52.220  0.00  0.00     0.002 A 
ENDROOT
BRANCH   1  10
ATOM     10  C   UNL d   1      53.583  33.561  54.073  0.00  0.00     0.039 A 
ATOM     11  C   UNL d   1      54.151  33.036  53.788  0.00  0.00     0.024 A 
ATOM     12  C   UNL d   1      54.860  32.924  54.186  0.00  0.00     0.099 A 
ATOM     13  N   UNL d   1      55.057  33.311  54.877  0.00  0.00    -0.242 NA
ATOM     14  C   UNL d   1      54.480  33.856  55.182  0.00  0.00     0.099 A 
ATOM     15  C   UNL d   1      53.747  33.971  54.770  0.00  0.00     0.024 A 
ENDBRANCH   1  10
TORSDOF 1
ENDMDL
