MODEL 1
REMARK VINA RESULT:      74.7      0.000      0.000
REMARK  6 active torsions:
REMARK  status: ('A' for Active; 'I' for Inactive)
REMARK    1  A    between atoms: C_8  and  C_1 
REMARK    2  A    between atoms: N_7  and  C_2 
REMARK    3  A    between atoms: C_10  and  C_4 
REMARK       I    between atoms: C_6  and  N_7 
REMARK       I    between atoms: N_9  and  C_6 
REMARK    4  A    between atoms: O_13  and  C_8 
REMARK    5  A    between atoms: C_14  and  N_9 
REMARK    6  A    between atoms: C_17  and  O_13 
ROOT
ATOM      1  C   UNL d   1     -51.147  26.302  34.086  0.00  0.00     0.111 A 
ATOM      2  C   UNL d   1     -51.272  26.130  34.873  0.00  0.00     0.098 A 
ATOM      3  S   UNL d   1     -51.527  25.719  33.649  0.00  0.00    -0.080 SA
ATOM      4  C   UNL d   1     -51.881  25.195  34.175  0.00  0.00     0.031 A 
ATOM      5  C   UNL d   1     -51.718  25.458  34.943  0.00  0.00     0.026 A 
ENDROOT
BRANCH   2   6
ATOM      6  N   UNL d   1     -50.968  26.602  35.478  0.00  0.00    -0.190 NA
ATOM      7  C   UNL d   1     -51.132  26.419  36.242  0.00  0.00     0.369 C 
ATOM      8  N   UNL d   1     -50.837  26.878  36.862  0.00  0.00    -0.191 NA
ATOM      9  O   UNL d   1     -51.597  25.767  36.406  0.00  0.00    -0.242 OA
BRANCH   8  10
ATOM     10  C   UNL d   1     -51.011  26.684  37.659  0.00  0.00     0.086 A 
ATOM     11  C   UNL d   1     -51.108  27.305  38.205  0.00  0.00     0.019 A 
ATOM     12  C   UNL d   1     -51.277  27.120  38.981  0.00  0.00     0.002 A 
ATOM     13  C   UNL d   1     -51.348  26.331  39.216  0.00  0.00     0.000 A 
ATOM     14  C   UNL d   1     -51.251  25.723  38.675  0.00  0.00     0.002 A 
ATOM     15  C   UNL d   1     -51.083  25.897  37.902  0.00  0.00     0.019 A 
ENDBRANCH   8  10
ENDBRANCH   2   6
BRANCH   1  16
ATOM     16  C   UNL d   1     -50.711  26.954  33.781  0.00  0.00     0.308 C 
ATOM     17  O   UNL d   1     -51.076  27.531  33.312  0.00  0.00    -0.258 OA
BRANCH  16  18
ATOM     18  O   UNL d   1     -49.919  27.022  33.948  0.00  0.00    -0.271 OA
BRANCH  18  19
ATOM     19  C   UNL d   1     -49.422  27.499  33.440  0.00  0.00     0.126 C 
ATOM     20  C   UNL d   1     -48.630  27.668  33.710  0.00  0.00     0.029 C 
ENDBRANCH  18  19
ENDBRANCH  16  18
ENDBRANCH   1  16
BRANCH   4  21
ATOM     21  C   UNL d   1     -52.298  24.559  33.891  0.00  0.00     0.006 A 
ATOM     22  C   UNL d   1     -53.116  24.623  33.713  0.00  0.00     0.001 A 
ATOM     23  C   UNL d   1     -53.533  23.973  33.425  0.00  0.00     0.000 A 
ATOM     24  C   UNL d   1     -53.169  23.278  33.311  0.00  0.00     0.000 A 
ATOM     25  C   UNL d   1     -52.326  23.189  33.488  0.00  0.00     0.000 A 
ATOM     26  C   UNL d   1     -51.919  23.835  33.773  0.00  0.00     0.001 A 
ENDBRANCH   4  21
TORSDOF 6
ENDMDL
MODEL 2
REMARK VINA RESULT:      75.7      3.727      6.574
REMARK  6 active torsions:
REMARK  status: ('A' for Active; 'I' for Inactive)
REMARK    1  A    between atoms: C_8  and  C_1 
REMARK    2  A    between atoms: N_7  and  C_2 
REMARK    3  A    between atoms: C_10  and  C_4 
REMARK       I    between atoms: C_6  and  N_7 
REMARK       I    between atoms: N_9  and  C_6 
REMARK    4  A    between atoms: O_13  and  C_8 
REMARK    5  A    between atoms: C_14  and  N_9 
REMARK    6  A    between atoms: C_17  and  O_13 
ROOT
ATOM      1  C   UNL d   1     -47.599  30.118  35.404  0.00  0.00     0.111 A 
ATOM      2  C   UNL d   1     -48.000  29.751  34.797  0.00  0.00     0.098 A 
ATOM      3  S   UNL d   1     -47.558  30.917  35.216  0.00  0.00    -0.080 SA
ATOM      4  C   UNL d   1     -47.936  31.030  34.495  0.00  0.00     0.031 A 
ATOM      5  C   UNL d   1     -48.213  30.294  34.235  0.00  0.00     0.026 A 
ENDROOT
BRANCH   2   6
ATOM      6  N   UNL d   1     -48.147  28.939  34.797  0.00  0.00    -0.190 NA
ATOM      7  C   UNL d   1     -48.805  28.656  34.433  0.00  0.00     0.369 C 
ATOM      8  N   UNL d   1     -48.970  27.846  34.422  0.00  0.00    -0.191 NA
ATOM      9  O   UNL d   1     -49.317  29.179  34.069  0.00  0.00    -0.242 OA
BRANCH   8  10
ATOM     10  C   UNL d   1     -49.657  27.555  34.041  0.00  0.00     0.086 A 
ATOM     11  C   UNL d   1     -49.786  26.732  34.035  0.00  0.00     0.019 A 
ATOM     12  C   UNL d   1     -50.454  26.444  33.665  0.00  0.00     0.002 A 
ATOM     13  C   UNL d   1     -50.989  26.962  33.306  0.00  0.00     0.000 A 
ATOM     14  C   UNL d   1     -50.857  27.771  33.315  0.00  0.00     0.002 A 
ATOM     15  C   UNL d   1     -50.196  28.066  33.680  0.00  0.00     0.019 A 
ENDBRANCH   8  10
ENDBRANCH   2   6
BRANCH   1  16
ATOM     16  C   UNL d   1     -47.286  29.747  36.091  0.00  0.00     0.308 C 
ATOM     17  O   UNL d   1     -46.669  29.197  36.037  0.00  0.00    -0.258 OA
BRANCH  16  18
ATOM     18  O   UNL d   1     -47.592  29.928  36.821  0.00  0.00    -0.271 OA
BRANCH  18  19
ATOM     19  C   UNL d   1     -47.141  29.741  37.524  0.00  0.00     0.126 C 
ATOM     20  C   UNL d   1     -46.363  30.084  37.595  0.00  0.00     0.029 C 
ENDBRANCH  18  19
ENDBRANCH  16  18
ENDBRANCH   1  16
BRANCH   4  21
ATOM     21  C   UNL d   1     -47.978  31.775  34.175  0.00  0.00     0.006 A 
ATOM     22  C   UNL d   1     -47.282  32.214  34.009  0.00  0.00     0.001 A 
ATOM     23  C   UNL d   1     -47.332  32.970  33.683  0.00  0.00     0.000 A 
ATOM     24  C   UNL d   1     -48.038  33.294  33.522  0.00  0.00     0.000 A 
ATOM     25  C   UNL d   1     -48.769  32.859  33.685  0.00  0.00     0.000 A 
ATOM     26  C   UNL d   1     -48.713  32.112  34.006  0.00  0.00     0.001 A 
ENDBRANCH   4  21
TORSDOF 6
ENDMDL
MODEL 3
REMARK VINA RESULT:      76.5      2.901      3.699
REMARK  6 active torsions:
REMARK  status: ('A' for Active; 'I' for Inactive)
REMARK    1  A    between atoms: C_8  and  C_1 
REMARK    2  A    between atoms: N_7  and  C_2 
REMARK    3  A    between atoms: C_10  and  C_4 
REMARK       I    between atoms: C_6  and  N_7 
REMARK       I    between atoms: N_9  and  C_6 
REMARK    4  A    between atoms: O_13  and  C_8 
REMARK    5  A    between atoms: C_14  and  N_9 
REMARK    6  A    between atoms: C_17  and  O_13 
ROOT
ATOM      1  C   UNL d   1     -50.651  26.667  33.469  0.00  0.00     0.111 A 
ATOM      2  C   UNL d   1     -49.908  26.939  33.664  0.00  0.00     0.098 A 
ATOM      3  S   UNL d   1     -50.596  25.851  33.388  0.00  0.00    -0.080 SA
ATOM      4  C   UNL d   1     -49.817  25.632  33.536  0.00  0.00     0.031 A 
ATOM      5  C   UNL d   1     -49.388  26.320  33.709  0.00  0.00     0.026 A 
ENDROOT
BRANCH   2   6
ATOM      6  N   UNL d   1     -49.754  27.739  33.790  0.00  0.00    -0.190 NA
ATOM      7  C   UNL d   1     -49.146  27.955  34.269  0.00  0.00     0.369 C 
ATOM      8  N   UNL d   1     -48.975  28.751  34.407  0.00  0.00    -0.191 NA
ATOM      9  O   UNL d   1     -48.692  27.375  34.623  0.00  0.00    -0.242 OA
BRANCH   8  10
ATOM     10  C   UNL d   1     -48.340  28.972  34.908  0.00  0.00     0.086 A 
ATOM     11  C   UNL d   1     -47.700  29.387  34.573  0.00  0.00     0.019 A 
ATOM     12  C   UNL d   1     -47.079  29.603  35.057  0.00  0.00     0.002 A 
ATOM     13  C   UNL d   1     -47.090  29.412  35.861  0.00  0.00     0.000 A 
ATOM     14  C   UNL d   1     -47.723  29.004  36.185  0.00  0.00     0.002 A 
ATOM     15  C   UNL d   1     -48.344  28.785  35.713  0.00  0.00     0.019 A 
ENDBRANCH   8  10
ENDBRANCH   2   6
BRANCH   1  16
ATOM     16  C   UNL d   1     -51.343  27.136  33.369  0.00  0.00     0.308 C 
ATOM     17  O   UNL d   1     -51.296  27.960  33.307  0.00  0.00    -0.258 OA
BRANCH  16  18
ATOM     18  O   UNL d   1     -52.071  26.777  33.332  0.00  0.00    -0.271 OA
BRANCH  18  19
ATOM     19  C   UNL d   1     -52.731  27.120  33.756  0.00  0.00     0.126 C 
ATOM     20  C   UNL d   1     -53.514  26.970  33.452  0.00  0.00     0.029 C 
ENDBRANCH  18  19
ENDBRANCH  16  18
ENDBRANCH   1  16
BRANCH   4  21
ATOM     21  C   UNL d   1     -49.603  24.851  33.494  0.00  0.00     0.006 A 
ATOM     22  C   UNL d   1     -48.807  24.627  33.350  0.00  0.00     0.001 A 
ATOM     23  C   UNL d   1     -48.597  23.831  33.308  0.00  0.00     0.000 A 
ATOM     24  C   UNL d   1     -49.144  23.264  33.404  0.00  0.00     0.000 A 
ATOM     25  C   UNL d   1     -49.970  23.471  33.553  0.00  0.00     0.000 A 
ATOM     26  C   UNL d   1     -50.172  24.260  33.593  0.00  0.00     0.001 A 
ENDBRANCH   4  21
TORSDOF 6
ENDMDL
