MODEL 1
REMARK VINA RESULT:      -4.0      0.000      0.000
REMARK  4 active torsions:
REMARK  status: ('A' for Active; 'I' for Inactive)
REMARK    1  A    between atoms: N_7  and  C_3 
REMARK       I    between atoms: C_8  and  N_7 
REMARK    2  A    between atoms: C_14  and  C_8 
REMARK    3  A    between atoms: C_15  and  C_14 
REMARK    4  A    between atoms: C_16  and  C_14 
ROOT
ATOM      1  C   UNL d   1     -41.309-121.779 -52.498  0.00  0.00     0.343 A 
ATOM      2  N   UNL d   1     -41.278-121.891 -51.690  0.00  0.00    -0.241 N 
ATOM      3  C   UNL d   1     -41.383-122.640 -51.373  0.00  0.00     0.159 A 
ATOM      4  N   UNL d   1     -41.447-122.420 -52.998  0.00  0.00    -0.224 N 
ATOM      5  C   UNL d   1     -41.520-123.281 -51.872  0.00  0.00     0.099 A 
ATOM      6  C   UNL d   1     -41.554-123.180 -52.694  0.00  0.00     0.271 A 
ATOM      7  O   UNL d   1     -41.204-121.024 -52.816  0.00  0.00    -0.245 OA
ATOM      8  O   UNL d   1     -41.690-123.813 -53.188  0.00  0.00    -0.266 OA
ATOM      9  C   UNL d   1     -41.141-121.250 -51.191  0.00  0.00     0.105 C 
ATOM     10  C   UNL d   1     -41.478-122.306 -53.815  0.00  0.00     0.107 C 
ENDROOT
BRANCH   3  11
ATOM     11  N   UNL d   1     -41.351-122.754 -50.555  0.00  0.00    -0.190 NA
ATOM     12  C   UNL d   1     -41.966-123.142 -50.171  0.00  0.00     0.280 C 
ATOM     13  O   UNL d   1     -42.613-123.417 -50.599  0.00  0.00    -0.265 OA
BRANCH  12  14
ATOM     14  C   UNL d   1     -41.933-123.254 -49.356  0.00  0.00     0.058 C 
BRANCH  14  15
ATOM     15  C   UNL d   1     -41.197-123.319 -48.971  0.00  0.00     0.005 C 
ATOM     16  C   UNL d   1     -41.123-123.816 -48.312  0.00  0.00     0.000 C 
ENDBRANCH  14  15
BRANCH  14  17
ATOM     17  C   UNL d   1     -42.603-123.303 -48.925  0.00  0.00     0.005 C 
ATOM     18  C   UNL d   1     -42.843-122.683 -48.430  0.00  0.00     0.000 C 
ENDBRANCH  14  17
ENDBRANCH  12  14
ENDBRANCH   3  11
TORSDOF 4
ENDMDL
MODEL 2
REMARK VINA RESULT:      -3.8      1.424      4.165
REMARK  4 active torsions:
REMARK  status: ('A' for Active; 'I' for Inactive)
REMARK    1  A    between atoms: N_7  and  C_3 
REMARK       I    between atoms: C_8  and  N_7 
REMARK    2  A    between atoms: C_14  and  C_8 
REMARK    3  A    between atoms: C_15  and  C_14 
REMARK    4  A    between atoms: C_16  and  C_14 
ROOT
ATOM      1  C   UNL d   1     -41.155-122.903 -51.097  0.00  0.00     0.343 A 
ATOM      2  N   UNL d   1     -41.165-123.043 -51.901  0.00  0.00    -0.241 N 
ATOM      3  C   UNL d   1     -41.160-122.416 -52.430  0.00  0.00     0.159 A 
ATOM      4  N   UNL d   1     -41.141-122.129 -50.815  0.00  0.00    -0.224 N 
ATOM      5  C   UNL d   1     -41.146-121.642 -52.148  0.00  0.00     0.099 A 
ATOM      6  C   UNL d   1     -41.136-121.487 -51.333  0.00  0.00     0.271 A 
ATOM      7  O   UNL d   1     -41.159-123.535 -50.566  0.00  0.00    -0.245 OA
ATOM      8  O   UNL d   1     -41.123-120.722 -51.054  0.00  0.00    -0.266 OA
ATOM      9  C   UNL d   1     -41.179-123.817 -52.184  0.00  0.00     0.105 C 
ATOM     10  C   UNL d   1     -41.131-121.987 -50.001  0.00  0.00     0.107 C 
ENDROOT
BRANCH   3  11
ATOM     11  N   UNL d   1     -41.170-122.558 -53.244  0.00  0.00    -0.190 NA
ATOM     12  C   UNL d   1     -41.777-122.253 -53.707  0.00  0.00     0.280 C 
ATOM     13  O   UNL d   1     -42.377-121.807 -53.360  0.00  0.00    -0.265 OA
BRANCH  12  14
ATOM     14  C   UNL d   1     -41.785-122.395 -54.517  0.00  0.00     0.058 C 
BRANCH  14  15
ATOM     15  C   UNL d   1     -42.392-122.080 -54.993  0.00  0.00     0.005 C 
ATOM     16  C   UNL d   1     -42.201-121.724 -55.717  0.00  0.00     0.000 C 
ENDBRANCH  14  15
BRANCH  14  17
ATOM     17  C   UNL d   1     -41.213-122.836 -54.859  0.00  0.00     0.005 C 
ATOM     18  C   UNL d   1     -41.398-123.499 -55.320  0.00  0.00     0.000 C 
ENDBRANCH  14  17
ENDBRANCH  12  14
ENDBRANCH   3  11
TORSDOF 4
ENDMDL
MODEL 3
REMARK VINA RESULT:      -3.7      1.480      2.511
REMARK  4 active torsions:
REMARK  status: ('A' for Active; 'I' for Inactive)
REMARK    1  A    between atoms: N_7  and  C_3 
REMARK       I    between atoms: C_8  and  N_7 
REMARK    2  A    between atoms: C_14  and  C_8 
REMARK    3  A    between atoms: C_15  and  C_14 
REMARK    4  A    between atoms: C_16  and  C_14 
ROOT
ATOM      1  C   UNL d   1     -41.771-122.876 -54.800  0.00  0.00     0.343 A 
ATOM      2  N   UNL d   1     -41.480-123.079 -54.065  0.00  0.00    -0.241 N 
ATOM      3  C   UNL d   1     -41.533-122.551 -53.439  0.00  0.00     0.159 A 
ATOM      4  N   UNL d   1     -42.119-122.138 -54.916  0.00  0.00    -0.224 N 
ATOM      5  C   UNL d   1     -41.881-121.813 -53.555  0.00  0.00     0.099 A 
ATOM      6  C   UNL d   1     -42.180-121.595 -54.297  0.00  0.00     0.271 A 
ATOM      7  O   UNL d   1     -41.717-123.409 -55.429  0.00  0.00    -0.245 OA
ATOM      8  O   UNL d   1     -42.523-120.865 -54.412  0.00  0.00    -0.266 OA
ATOM      9  C   UNL d   1     -41.133-123.817 -53.949  0.00  0.00     0.105 C 
ATOM     10  C   UNL d   1     -42.413-121.933 -55.660  0.00  0.00     0.107 C 
ENDROOT
BRANCH   3  11
ATOM     11  N   UNL d   1     -41.239-122.756 -52.695  0.00  0.00    -0.190 NA
ATOM     12  C   UNL d   1     -41.627-122.501 -52.016  0.00  0.00     0.280 C 
ATOM     13  O   UNL d   1     -42.308-122.042 -52.077  0.00  0.00    -0.265 OA
BRANCH  12  14
ATOM     14  C   UNL d   1     -41.332-122.706 -51.276  0.00  0.00     0.058 C 
BRANCH  14  15
ATOM     15  C   UNL d   1     -41.244-123.508 -51.066  0.00  0.00     0.005 C 
ATOM     16  C   UNL d   1     -41.662-123.808 -50.416  0.00  0.00     0.000 C 
ENDBRANCH  14  15
BRANCH  14  17
ATOM     17  C   UNL d   1     -41.127-122.142 -50.749  0.00  0.00     0.005 C 
ATOM     18  C   UNL d   1     -41.144-122.287 -49.933  0.00  0.00     0.000 C 
ENDBRANCH  14  17
ENDBRANCH  12  14
ENDBRANCH   3  11
TORSDOF 4
ENDMDL
MODEL 4
REMARK VINA RESULT:      -2.1      1.212      3.690
REMARK  4 active torsions:
REMARK  status: ('A' for Active; 'I' for Inactive)
REMARK    1  A    between atoms: N_7  and  C_3 
REMARK       I    between atoms: C_8  and  N_7 
REMARK    2  A    between atoms: C_14  and  C_8 
REMARK    3  A    between atoms: C_15  and  C_14 
REMARK    4  A    between atoms: C_16  and  C_14 
ROOT
ATOM      1  C   UNL d   1     -42.978-122.544 -49.641  0.00  0.00     0.343 A 
ATOM      2  N   UNL d   1     -42.801-122.392 -50.423  0.00  0.00    -0.241 N 
ATOM      3  C   UNL d   1     -42.073-122.610 -50.732  0.00  0.00     0.159 A 
ATOM      4  N   UNL d   1     -42.425-122.918 -49.159  0.00  0.00    -0.224 N 
ATOM      5  C   UNL d   1     -41.519-122.984 -50.250  0.00  0.00     0.099 A 
ATOM      6  C   UNL d   1     -41.688-123.144 -49.454  0.00  0.00     0.271 A 
ATOM      7  O   UNL d   1     -43.712-122.324 -49.332  0.00  0.00    -0.245 OA
ATOM      8  O   UNL d   1     -41.140-123.514 -48.977  0.00  0.00    -0.266 OA
ATOM      9  C   UNL d   1     -43.355-122.018 -50.905  0.00  0.00     0.105 C 
ATOM     10  C   UNL d   1     -42.604-123.072 -48.367  0.00  0.00     0.107 C 
ENDROOT
BRANCH   3  11
ATOM     11  N   UNL d   1     -41.893-122.457 -51.523  0.00  0.00    -0.190 NA
ATOM     12  C   UNL d   1     -41.597-123.056 -52.001  0.00  0.00     0.280 C 
ATOM     13  O   UNL d   1     -41.480-123.811 -51.692  0.00  0.00    -0.265 OA
BRANCH  12  14
ATOM     14  C   UNL d   1     -41.419-122.901 -52.789  0.00  0.00     0.058 C 
BRANCH  14  15
ATOM     15  C   UNL d   1     -41.186-123.519 -53.297  0.00  0.00     0.005 C 
ATOM     16  C   UNL d   1     -41.489-123.552 -54.067  0.00  0.00     0.000 C 
ENDBRANCH  14  15
BRANCH  14  17
ATOM     17  C   UNL d   1     -41.466-122.158 -53.079  0.00  0.00     0.005 C 
ATOM     18  C   UNL d   1     -41.135-121.959 -53.812  0.00  0.00     0.000 C 
ENDBRANCH  14  17
ENDBRANCH  12  14
ENDBRANCH   3  11
TORSDOF 4
ENDMDL
