MODEL 1
REMARK VINA RESULT:      -2.6      0.000      0.000
REMARK  7 active torsions:
REMARK  status: ('A' for Active; 'I' for Inactive)
REMARK    1  A    between atoms: C_2  and  S_1 
REMARK    2  A    between atoms: N_7  and  S_1 
REMARK    3  A    between atoms: C_5  and  C_6 
REMARK    4  A    between atoms: C_6  and  C_8 
REMARK    5  A    between atoms: C_15  and  N_7 
REMARK    6  A    between atoms: C_8  and  C_12 
REMARK    7  A    between atoms: C_18  and  C_15 
ROOT
ATOM      1  C   UNL d   1      31.815  16.751 -24.026  0.00  0.00     0.105 A 
ATOM      2  C   UNL d   1      32.010  16.253 -24.641  0.00  0.00     0.012 A 
ATOM      3  C   UNL d   1      31.063  16.684 -23.656  0.00  0.00     0.013 A 
ATOM      4  C   UNL d   1      30.530  16.113 -23.919  0.00  0.00     0.001 A 
ATOM      5  C   UNL d   1      31.477  15.683 -24.904  0.00  0.00     0.001 A 
ATOM      6  C   UNL d   1      30.745  15.606 -24.554  0.00  0.00     0.000 A 
ATOM      7  C   UNL d   1      32.772  16.331 -25.007  0.00  0.00     0.001 C 
ENDROOT
BRANCH   1   8
ATOM      8  S   UNL d   1      32.346  17.320 -23.764  0.00  0.00     0.285 S 
ATOM      9  O   UNL d   1      32.653  16.780 -23.215  0.00  0.00    -0.198 OA
ATOM     10  O   UNL d   1      32.035  17.867 -24.320  0.00  0.00    -0.198 OA
BRANCH   8  11
ATOM     11  N   UNL d   1      32.889  17.902 -23.496  0.00  0.00    -0.153 NA
BRANCH  11  12
ATOM     12  C   UNL d   1      32.655  18.457 -22.929  0.00  0.00     0.157 C 
BRANCH  12  13
ATOM     13  C   UNL d   1      33.185  19.036 -22.675  0.00  0.00     0.256 C 
ATOM     14  O   UNL d   1      33.009  19.496 -22.009  0.00  0.00    -0.281 OA
ENDBRANCH  12  13
ENDBRANCH  11  12
ENDBRANCH   8  11
ENDBRANCH   1   8
BRANCH   4  15
ATOM     15  C   UNL d   1      29.775  16.047 -23.545  0.00  0.00     0.006 C 
BRANCH  15  16
ATOM     16  C   UNL d   1      29.099  16.157 -23.998  0.00  0.00     0.070 C 
BRANCH  16  17
ATOM     17  C   UNL d   1      28.348  16.155 -23.636  0.00  0.00     0.211 C 
ATOM     18  O   UNL d   1      28.029  16.869 -23.372  0.00  0.00    -0.644 OA
ATOM     19  O   UNL d   1      27.934  15.455 -23.544  0.00  0.00    -0.644 OA
ENDBRANCH  16  17
ENDBRANCH  15  16
ENDBRANCH   4  15
TORSDOF 7
ENDMDL
MODEL 2
REMARK VINA RESULT:      -2.6      1.275      3.902
REMARK  7 active torsions:
REMARK  status: ('A' for Active; 'I' for Inactive)
REMARK    1  A    between atoms: C_2  and  S_1 
REMARK    2  A    between atoms: N_7  and  S_1 
REMARK    3  A    between atoms: C_5  and  C_6 
REMARK    4  A    between atoms: C_6  and  C_8 
REMARK    5  A    between atoms: C_15  and  N_7 
REMARK    6  A    between atoms: C_8  and  C_12 
REMARK    7  A    between atoms: C_18  and  C_15 
ROOT
ATOM      1  C   UNL d   1      31.529  16.603 -24.103  0.00  0.00     0.105 A 
ATOM      2  C   UNL d   1      32.166  16.221 -24.440  0.00  0.00     0.012 A 
ATOM      3  C   UNL d   1      31.631  17.363 -23.758  0.00  0.00     0.013 A 
ATOM      4  C   UNL d   1      32.376  17.716 -23.765  0.00  0.00     0.001 A 
ATOM      5  C   UNL d   1      32.911  16.574 -24.446  0.00  0.00     0.001 A 
ATOM      6  C   UNL d   1      33.024  17.311 -24.115  0.00  0.00     0.000 A 
ATOM      7  C   UNL d   1      32.050  15.454 -24.784  0.00  0.00     0.001 C 
ENDROOT
BRANCH   1   8
ATOM      8  S   UNL d   1      30.787  16.252 -24.096  0.00  0.00     0.285 S 
ATOM      9  O   UNL d   1      30.619  16.593 -24.833  0.00  0.00    -0.198 OA
ATOM     10  O   UNL d   1      30.957  15.906 -23.350  0.00  0.00    -0.198 OA
BRANCH   8  11
ATOM     11  N   UNL d   1      30.028  15.893 -24.090  0.00  0.00    -0.153 NA
BRANCH  11  12
ATOM     12  C   UNL d   1      29.395  16.268 -23.712  0.00  0.00     0.157 C 
BRANCH  12  13
ATOM     13  C   UNL d   1      28.645  15.925 -23.723  0.00  0.00     0.256 C 
ATOM     14  O   UNL d   1      27.995  16.338 -23.415  0.00  0.00    -0.281 OA
ENDBRANCH  12  13
ENDBRANCH  11  12
ENDBRANCH   8  11
ENDBRANCH   1   8
BRANCH   4  15
ATOM     15  C   UNL d   1      32.477  18.480 -23.418  0.00  0.00     0.006 C 
BRANCH  15  16
ATOM     16  C   UNL d   1      33.104  18.600 -22.901  0.00  0.00     0.070 C 
BRANCH  16  17
ATOM     17  C   UNL d   1      33.178  19.324 -22.496  0.00  0.00     0.211 C 
ATOM     18  O   UNL d   1      33.189  19.323 -21.671  0.00  0.00    -0.644 OA
ATOM     19  O   UNL d   1      33.240  20.027 -22.912  0.00  0.00    -0.644 OA
ENDBRANCH  16  17
ENDBRANCH  15  16
ENDBRANCH   4  15
TORSDOF 7
ENDMDL
MODEL 3
REMARK VINA RESULT:      -0.8      1.809      2.983
REMARK  7 active torsions:
REMARK  status: ('A' for Active; 'I' for Inactive)
REMARK    1  A    between atoms: C_2  and  S_1 
REMARK    2  A    between atoms: N_7  and  S_1 
REMARK    3  A    between atoms: C_5  and  C_6 
REMARK    4  A    between atoms: C_6  and  C_8 
REMARK    5  A    between atoms: C_15  and  N_7 
REMARK    6  A    between atoms: C_8  and  C_12 
REMARK    7  A    between atoms: C_18  and  C_15 
ROOT
ATOM      1  C   UNL d   1      32.808  19.284 -23.198  0.00  0.00     0.105 A 
ATOM      2  C   UNL d   1      32.957  19.494 -23.972  0.00  0.00     0.012 A 
ATOM      3  C   UNL d   1      32.527  18.512 -23.021  0.00  0.00     0.013 A 
ATOM      4  C   UNL d   1      32.403  17.974 -23.633  0.00  0.00     0.001 A 
ATOM      5  C   UNL d   1      32.833  18.956 -24.584  0.00  0.00     0.001 A 
ATOM      6  C   UNL d   1      32.560  18.204 -24.426  0.00  0.00     0.000 A 
ATOM      7  C   UNL d   1      33.241  20.277 -24.138  0.00  0.00     0.001 C 
ENDROOT
BRANCH   1   8
ATOM      8  S   UNL d   1      32.932  19.820 -22.588  0.00  0.00     0.285 S 
ATOM      9  O   UNL d   1      33.241  19.212 -22.117  0.00  0.00    -0.198 OA
ATOM     10  O   UNL d   1      32.618  20.435 -23.066  0.00  0.00    -0.198 OA
BRANCH   8  11
ATOM     11  N   UNL d   1      33.058  20.368 -21.965  0.00  0.00    -0.153 NA
BRANCH  11  12
ATOM     12  C   UNL d   1      32.447  20.539 -21.434  0.00  0.00     0.157 C 
BRANCH  12  13
ATOM     13  C   UNL d   1      32.619  20.878 -20.702  0.00  0.00     0.256 C 
ATOM     14  O   UNL d   1      32.350  21.642 -20.526  0.00  0.00    -0.281 OA
ENDBRANCH  12  13
ENDBRANCH  11  12
ENDBRANCH   8  11
ENDBRANCH   1   8
BRANCH   4  15
ATOM     15  C   UNL d   1      32.120  17.198 -23.453  0.00  0.00     0.006 C 
BRANCH  15  16
ATOM     16  C   UNL d   1      31.515  16.882 -23.910  0.00  0.00     0.070 C 
BRANCH  16  17
ATOM     17  C   UNL d   1      31.182  16.146 -23.711  0.00  0.00     0.211 C 
ATOM     18  O   UNL d   1      31.610  15.457 -23.862  0.00  0.00    -0.644 OA
ATOM     19  O   UNL d   1      30.438  16.107 -23.369  0.00  0.00    -0.644 OA
ENDBRANCH  16  17
ENDBRANCH  15  16
ENDBRANCH   4  15
TORSDOF 7
ENDMDL
MODEL 4
REMARK VINA RESULT:       0.2      4.719      7.610
REMARK  7 active torsions:
REMARK  status: ('A' for Active; 'I' for Inactive)
REMARK    1  A    between atoms: C_2  and  S_1 
REMARK    2  A    between atoms: N_7  and  S_1 
REMARK    3  A    between atoms: C_5  and  C_6 
REMARK    4  A    between atoms: C_6  and  C_8 
REMARK    5  A    between atoms: C_15  and  N_7 
REMARK    6  A    between atoms: C_8  and  C_12 
REMARK    7  A    between atoms: C_18  and  C_15 
ROOT
ATOM      1  C   UNL d   1      32.734  22.327 -20.295  0.00  0.00     0.105 A 
ATOM      2  C   UNL d   1      33.009  23.012 -20.641  0.00  0.00     0.012 A 
ATOM      3  C   UNL d   1      32.603  22.300 -19.466  0.00  0.00     0.013 A 
ATOM      4  C   UNL d   1      32.753  22.969 -19.008  0.00  0.00     0.001 A 
ATOM      5  C   UNL d   1      33.159  23.681 -20.184  0.00  0.00     0.001 A 
ATOM      6  C   UNL d   1      33.036  23.669 -19.378  0.00  0.00     0.000 A 
ATOM      7  C   UNL d   1      33.138  23.027 -21.480  0.00  0.00     0.001 C 
ENDROOT
BRANCH   1   8
ATOM      8  S   UNL d   1      32.584  21.661 -20.751  0.00  0.00     0.285 S 
ATOM      9  O   UNL d   1      33.101  21.219 -20.276  0.00  0.00    -0.198 OA
ATOM     10  O   UNL d   1      32.060  22.108 -21.232  0.00  0.00    -0.198 OA
BRANCH   8  11
ATOM     11  N   UNL d   1      32.430  20.979 -21.217  0.00  0.00    -0.153 NA
BRANCH  11  12
ATOM     12  C   UNL d   1      32.968  20.350 -21.221  0.00  0.00     0.157 C 
BRANCH  12  13
ATOM     13  C   UNL d   1      32.820  19.683 -21.683  0.00  0.00     0.256 C 
ATOM     14  O   UNL d   1      32.652  19.766 -22.490  0.00  0.00    -0.281 OA
ENDBRANCH  12  13
ENDBRANCH  11  12
ENDBRANCH   8  11
ENDBRANCH   1   8
BRANCH   4  15
ATOM     15  C   UNL d   1      32.621  22.940 -18.174  0.00  0.00     0.006 C 
BRANCH  15  16
ATOM     16  C   UNL d   1      33.240  22.719 -17.683  0.00  0.00     0.070 C 
BRANCH  16  17
ATOM     17  C   UNL d   1      33.084  22.433 -16.916  0.00  0.00     0.211 C 
ATOM     18  O   UNL d   1      32.771  22.947 -16.352  0.00  0.00    -0.644 OA
ATOM     19  O   UNL d   1      33.241  21.651 -16.727  0.00  0.00    -0.644 OA
ENDBRANCH  16  17
ENDBRANCH  15  16
ENDBRANCH   4  15
TORSDOF 7
ENDMDL
