MODEL 1
REMARK VINA RESULT:       2.0      0.000      0.000
REMARK  10 active torsions:
REMARK  status: ('A' for Active; 'I' for Inactive)
REMARK    1  A    between atoms: C_8  and  S_1 
REMARK    2  A    between atoms: N_18  and  S_1 
REMARK    3  A    between atoms: S_2  and  C_9 
REMARK    4  A    between atoms: N_19  and  S_2 
REMARK    5  A    between atoms: C_23  and  N_18 
REMARK    6  A    between atoms: C_24  and  N_19 
REMARK    7  A    between atoms: C_27  and  C_23 
REMARK    8  A    between atoms: C_28  and  C_24 
REMARK    9  A    between atoms: O_25  and  C_27 
REMARK   10  A    between atoms: O_26  and  C_28 
ROOT
ATOM      1  C   UNL d   1     -41.844-122.640 -51.138  0.00  0.00     0.040 A 
ATOM      2  C   UNL d   1     -41.861-122.550 -52.483  0.00  0.00     0.040 A 
ATOM      3  C   UNL d   1     -42.115-122.172 -51.780  0.00  0.00     0.196 A 
ATOM      4  C   UNL d   1     -41.449-123.226 -52.238  0.00  0.00     0.003 A 
ATOM      5  C   UNL d   1     -41.444-123.273 -51.411  0.00  0.00     0.003 A 
ATOM      6  C   UNL d   1     -41.613-123.075 -49.795  0.00  0.00     0.105 A 
ATOM      7  C   UNL d   1     -41.626-122.865 -53.845  0.00  0.00     0.105 A 
ATOM      8  C   UNL d   1     -41.937-122.528 -50.320  0.00  0.00     0.016 A 
ATOM      9  C   UNL d   1     -41.954-122.362 -53.276  0.00  0.00     0.016 A 
ATOM     10  C   UNL d   1     -41.123-123.724 -52.831  0.00  0.00     0.001 A 
ATOM     11  C   UNL d   1     -41.123-123.816 -50.885  0.00  0.00     0.001 A 
ATOM     12  O   UNL d   1     -42.552-121.470 -51.737  0.00  0.00    -0.287 OA
ATOM     13  C   UNL d   1     -41.214-123.541 -53.630  0.00  0.00     0.013 A 
ATOM     14  C   UNL d   1     -41.214-123.707 -50.082  0.00  0.00     0.013 A 
ENDROOT
BRANCH   6  15
ATOM     15  S   UNL d   1     -41.709-122.959 -48.963  0.00  0.00     0.285 S 
ATOM     16  O   UNL d   1     -41.149-122.325 -48.986  0.00  0.00    -0.198 OA
ATOM     17  O   UNL d   1     -42.248-123.577 -48.968  0.00  0.00    -0.198 OA
BRANCH  15  18
ATOM     18  N   UNL d   1     -41.804-122.849 -48.160  0.00  0.00    -0.155 NA
BRANCH  18  19
ATOM     19  C   UNL d   1     -42.208-123.407 -47.687  0.00  0.00     0.138 C 
BRANCH  19  20
ATOM     20  C   UNL d   1     -42.387-123.250 -46.897  0.00  0.00     0.138 C 
BRANCH  20  21
ATOM     21  O   UNL d   1     -43.127-123.013 -46.683  0.00  0.00    -0.325 OA
ATOM     22  C   UNL d   1     -43.750-123.539 -46.676  0.00  0.00     0.182 C 
ENDBRANCH  20  21
ENDBRANCH  19  20
ENDBRANCH  18  19
ENDBRANCH  15  18
ENDBRANCH   6  15
BRANCH   7  23
ATOM     23  S   UNL d   1     -41.707-122.697 -54.669  0.00  0.00     0.285 S 
ATOM     24  O   UNL d   1     -42.106-123.434 -54.775  0.00  0.00    -0.198 OA
ATOM     25  O   UNL d   1     -41.307-121.968 -54.539  0.00  0.00    -0.198 OA
BRANCH  23  26
ATOM     26  N   UNL d   1     -41.780-122.527 -55.460  0.00  0.00    -0.155 NA
BRANCH  26  27
ATOM     27  C   UNL d   1     -42.185-121.853 -55.709  0.00  0.00     0.138 C 
BRANCH  27  28
ATOM     28  C   UNL d   1     -42.004-121.505 -56.411  0.00  0.00     0.138 C 
BRANCH  28  29
ATOM     29  O   UNL d   1     -41.948-120.669 -56.457  0.00  0.00    -0.325 OA
ATOM     30  C   UNL d   1     -41.607-120.299 -57.089  0.00  0.00     0.182 C 
ENDBRANCH  28  29
ENDBRANCH  27  28
ENDBRANCH  26  27
ENDBRANCH  23  26
ENDBRANCH   7  23
TORSDOF 10
ENDMDL
MODEL 2
REMARK VINA RESULT:       2.8      0.581      6.275
REMARK  10 active torsions:
REMARK  status: ('A' for Active; 'I' for Inactive)
REMARK    1  A    between atoms: C_8  and  S_1 
REMARK    2  A    between atoms: N_18  and  S_1 
REMARK    3  A    between atoms: S_2  and  C_9 
REMARK    4  A    between atoms: N_19  and  S_2 
REMARK    5  A    between atoms: C_23  and  N_18 
REMARK    6  A    between atoms: C_24  and  N_19 
REMARK    7  A    between atoms: C_27  and  C_23 
REMARK    8  A    between atoms: C_28  and  C_24 
REMARK    9  A    between atoms: O_25  and  C_27 
REMARK   10  A    between atoms: O_26  and  C_28 
ROOT
ATOM      1  C   UNL d   1     -41.724-122.373 -52.650  0.00  0.00     0.040 A 
ATOM      2  C   UNL d   1     -41.565-122.431 -51.313  0.00  0.00     0.040 A 
ATOM      3  C   UNL d   1     -41.745-121.915 -51.947  0.00  0.00     0.196 A 
ATOM      4  C   UNL d   1     -41.444-123.175 -51.657  0.00  0.00     0.003 A 
ATOM      5  C   UNL d   1     -41.544-123.129 -52.478  0.00  0.00     0.003 A 
ATOM      6  C   UNL d   1     -41.805-122.709 -54.038  0.00  0.00     0.105 A 
ATOM      7  C   UNL d   1     -41.311-122.956 -50.020  0.00  0.00     0.105 A 
ATOM      8  C   UNL d   1     -41.859-122.146 -53.438  0.00  0.00     0.016 A 
ATOM      9  C   UNL d   1     -41.502-122.312 -50.503  0.00  0.00     0.016 A 
ATOM     10  C   UNL d   1     -41.252-123.817 -51.149  0.00  0.00     0.001 A 
ATOM     11  C   UNL d   1     -41.491-123.688 -53.078  0.00  0.00     0.001 A 
ATOM     12  O   UNL d   1     -41.910-121.106 -51.882  0.00  0.00    -0.287 OA
ATOM     13  C   UNL d   1     -41.187-123.703 -50.335  0.00  0.00     0.013 A 
ATOM     14  C   UNL d   1     -41.623-123.467 -53.852  0.00  0.00     0.013 A 
ENDROOT
BRANCH   6  15
ATOM     15  S   UNL d   1     -41.943-122.477 -54.840  0.00  0.00     0.285 S 
ATOM     16  O   UNL d   1     -41.126-122.611 -55.019  0.00  0.00    -0.198 OA
ATOM     17  O   UNL d   1     -42.728-122.354 -54.638  0.00  0.00    -0.198 OA
BRANCH  15  18
ATOM     18  N   UNL d   1     -42.078-122.252 -55.612  0.00  0.00    -0.155 NA
BRANCH  18  19
ATOM     19  C   UNL d   1     -41.579-121.707 -56.002  0.00  0.00     0.138 C 
BRANCH  19  20
ATOM     20  C   UNL d   1     -41.887-121.103 -56.473  0.00  0.00     0.138 C 
BRANCH  20  21
ATOM     21  O   UNL d   1     -41.496-120.855 -57.131  0.00  0.00    -0.325 OA
ATOM     22  C   UNL d   1     -41.318-120.066 -57.240  0.00  0.00     0.182 C 
ENDBRANCH  20  21
ENDBRANCH  19  20
ENDBRANCH  18  19
ENDBRANCH  15  18
ENDBRANCH   6  15
BRANCH   7  23
ATOM     23  S   UNL d   1     -41.240-122.862 -49.184  0.00  0.00     0.285 S 
ATOM     24  O   UNL d   1     -41.358-122.030 -49.272  0.00  0.00    -0.198 OA
ATOM     25  O   UNL d   1     -41.124-123.693 -49.120  0.00  0.00    -0.198 OA
BRANCH  23  26
ATOM     26  N   UNL d   1     -41.169-122.781 -48.378  0.00  0.00    -0.155 NA
BRANCH  26  27
ATOM     27  C   UNL d   1     -41.836-122.810 -47.894  0.00  0.00     0.138 C 
BRANCH  27  28
ATOM     28  C   UNL d   1     -41.891-123.359 -47.309  0.00  0.00     0.138 C 
BRANCH  28  29
ATOM     29  O   UNL d   1     -42.489-123.285 -46.725  0.00  0.00    -0.325 OA
ATOM     30  C   UNL d   1     -43.228-123.592 -46.830  0.00  0.00     0.182 C 
ENDBRANCH  28  29
ENDBRANCH  27  28
ENDBRANCH  26  27
ENDBRANCH  23  26
ENDBRANCH   7  23
TORSDOF 10
ENDMDL
