MODEL 1
REMARK VINA RESULT:      -5.0      0.000      0.000
REMARK  4 active torsions:
REMARK  status: ('A' for Active; 'I' for Inactive)
REMARK    1  A    between atoms: C_3  and  C_2 
REMARK    2  A    between atoms: C_14  and  C_12 
REMARK    3  A    between atoms: C_15  and  C_14 
REMARK    4  A    between atoms: C_16  and  C_15 
ROOT
ATOM      1  N   UNL d   1      57.395  -0.782  30.991  0.00  0.00    -0.244 NA
ATOM      2  C   UNL d   1      57.137  -0.071  31.313  0.00  0.00     0.081 A 
ATOM      3  C   UNL d   1      57.409   0.682  30.954  0.00  0.00     0.019 A 
ATOM      4  C   UNL d   1      57.904  -0.803  30.338  0.00  0.00     0.099 A 
ATOM      5  C   UNL d   1      57.918   0.660  30.301  0.00  0.00     0.003 A 
ATOM      6  C   UNL d   1      58.179  -0.115  29.976  0.00  0.00     0.019 A 
ENDROOT
BRANCH   2   7
ATOM      7  C   UNL d   1      56.628  -0.049  31.966  0.00  0.00     0.018 A 
ATOM      8  C   UNL d   1      56.387   0.661  32.308  0.00  0.00     0.002 A 
ATOM      9  C   UNL d   1      55.898   0.682  32.936  0.00  0.00     0.007 A 
ATOM     10  C   UNL d   1      55.590  -0.006  33.297  0.00  0.00     0.035 A 
ATOM     11  C   UNL d   1      55.841  -0.781  32.940  0.00  0.00     0.007 A 
ATOM     12 BR   UNL d   1      55.101   0.015  33.925  0.00  0.00    -0.049 Br
ATOM     13  C   UNL d   1      56.330  -0.801  32.312  0.00  0.00     0.002 A 
ENDBRANCH   2   7
BRANCH   6  14
ATOM     14  C   UNL d   1      58.680  -0.136  29.333  0.00  0.00     0.002 C 
BRANCH  14  15
ATOM     15  C   UNL d   1      59.478  -0.237  29.428  0.00  0.00     0.000 C 
BRANCH  15  16
ATOM     16  C   UNL d   1      59.980  -0.251  28.786  0.00  0.00     0.000 C 
ATOM     17  C   UNL d   1      60.763  -0.367  28.895  0.00  0.00     0.000 C 
ENDBRANCH  15  16
ENDBRANCH  14  15
ENDBRANCH   6  14
TORSDOF 4
ENDMDL
MODEL 2
REMARK VINA RESULT:      -5.0      1.837      4.493
REMARK  4 active torsions:
REMARK  status: ('A' for Active; 'I' for Inactive)
REMARK    1  A    between atoms: C_3  and  C_2 
REMARK    2  A    between atoms: C_14  and  C_12 
REMARK    3  A    between atoms: C_15  and  C_14 
REMARK    4  A    between atoms: C_16  and  C_15 
ROOT
ATOM      1  N   UNL d   1      56.898  -0.771  31.485  0.00  0.00    -0.244 NA
ATOM      2  C   UNL d   1      57.367  -0.136  31.256  0.00  0.00     0.081 A 
ATOM      3  C   UNL d   1      57.396   0.576  31.767  0.00  0.00     0.019 A 
ATOM      4  C   UNL d   1      56.456  -0.754  32.185  0.00  0.00     0.099 A 
ATOM      5  C   UNL d   1      56.954   0.594  32.466  0.00  0.00     0.003 A 
ATOM      6  C   UNL d   1      56.461  -0.100  32.689  0.00  0.00     0.019 A 
ENDROOT
BRANCH   2   7
ATOM      7  C   UNL d   1      57.809  -0.153  30.556  0.00  0.00     0.018 A 
ATOM      8  C   UNL d   1      58.115  -0.855  30.250  0.00  0.00     0.002 A 
ATOM      9  C   UNL d   1      58.540  -0.872  29.577  0.00  0.00     0.007 A 
ATOM     10  C   UNL d   1      58.712  -0.188  29.129  0.00  0.00     0.035 A 
ATOM     11  C   UNL d   1      58.389   0.578  29.445  0.00  0.00     0.007 A 
ATOM     12 BR   UNL d   1      59.137  -0.205  28.456  0.00  0.00    -0.049 Br
ATOM     13  C   UNL d   1      57.964   0.595  30.118  0.00  0.00     0.002 A 
ENDBRANCH   2   7
BRANCH   6  14
ATOM     14  C   UNL d   1      56.025  -0.083  33.377  0.00  0.00     0.002 C 
BRANCH  14  15
ATOM     15  C   UNL d   1      55.296   0.268  33.402  0.00  0.00     0.000 C 
BRANCH  15  16
ATOM     16  C   UNL d   1      54.816   0.196  34.057  0.00  0.00     0.000 C 
ATOM     17  C   UNL d   1      54.188   0.682  34.146  0.00  0.00     0.000 C 
ENDBRANCH  15  16
ENDBRANCH  14  15
ENDBRANCH   6  14
TORSDOF 4
ENDMDL
MODEL 3
REMARK VINA RESULT:      -3.1      1.220      2.214
REMARK  4 active torsions:
REMARK  status: ('A' for Active; 'I' for Inactive)
REMARK    1  A    between atoms: C_3  and  C_2 
REMARK    2  A    between atoms: C_14  and  C_12 
REMARK    3  A    between atoms: C_15  and  C_14 
REMARK    4  A    between atoms: C_16  and  C_15 
ROOT
ATOM      1  N   UNL d   1      56.516   0.681  32.691  0.00  0.00    -0.244 NA
ATOM      2  C   UNL d   1      55.977   0.110  32.935  0.00  0.00     0.081 A 
ATOM      3  C   UNL d   1      55.970  -0.668  32.531  0.00  0.00     0.019 A 
ATOM      4  C   UNL d   1      57.050   0.538  32.075  0.00  0.00     0.099 A 
ATOM      5  C   UNL d   1      56.505  -0.811  31.915  0.00  0.00     0.003 A 
ATOM      6  C   UNL d   1      57.071  -0.182  31.673  0.00  0.00     0.019 A 
ENDROOT
BRANCH   2   7
ATOM      7  C   UNL d   1      55.443   0.253  33.552  0.00  0.00     0.018 A 
ATOM      8  C   UNL d   1      54.640   0.381  33.413  0.00  0.00     0.002 A 
ATOM      9  C   UNL d   1      54.126   0.519  34.005  0.00  0.00     0.007 A 
ATOM     10  C   UNL d   1      54.353   0.544  34.809  0.00  0.00     0.035 A 
ATOM     11  C   UNL d   1      55.216   0.408  34.976  0.00  0.00     0.007 A 
ATOM     12 BR   UNL d   1      53.840   0.682  35.401  0.00  0.00    -0.049 Br
ATOM     13  C   UNL d   1      55.730   0.271  34.383  0.00  0.00     0.002 A 
ENDBRANCH   2   7
BRANCH   6  14
ATOM     14  C   UNL d   1      57.597  -0.323  31.066  0.00  0.00     0.002 C 
BRANCH  14  15
ATOM     15  C   UNL d   1      57.942   0.288  30.662  0.00  0.00     0.000 C 
BRANCH  15  16
ATOM     16  C   UNL d   1      58.186   0.197  29.890  0.00  0.00     0.000 C 
ATOM     17  C   UNL d   1      58.867   0.535  29.645  0.00  0.00     0.000 C 
ENDBRANCH  15  16
ENDBRANCH  14  15
ENDBRANCH   6  14
TORSDOF 4
ENDMDL
MODEL 4
REMARK VINA RESULT:      -2.2      1.984      4.412
REMARK  4 active torsions:
REMARK  status: ('A' for Active; 'I' for Inactive)
REMARK    1  A    between atoms: C_3  and  C_2 
REMARK    2  A    between atoms: C_14  and  C_12 
REMARK    3  A    between atoms: C_15  and  C_14 
REMARK    4  A    between atoms: C_16  and  C_15 
ROOT
ATOM      1  N   UNL d   1      57.458  -0.506  30.783  0.00  0.00    -0.244 NA
ATOM      2  C   UNL d   1      58.132  -0.048  30.884  0.00  0.00     0.081 A 
ATOM      3  C   UNL d   1      58.136   0.571  31.506  0.00  0.00     0.019 A 
ATOM      4  C   UNL d   1      56.784  -0.397  31.252  0.00  0.00     0.099 A 
ATOM      5  C   UNL d   1      57.462   0.680  31.975  0.00  0.00     0.003 A 
ATOM      6  C   UNL d   1      56.753   0.175  31.846  0.00  0.00     0.019 A 
ENDROOT
BRANCH   2   7
ATOM      7  C   UNL d   1      58.806  -0.157  30.415  0.00  0.00     0.018 A 
ATOM      8  C   UNL d   1      59.366   0.440  30.309  0.00  0.00     0.002 A 
ATOM      9  C   UNL d   1      60.013   0.335  29.858  0.00  0.00     0.007 A 
ATOM     10  C   UNL d   1      60.179  -0.379  29.457  0.00  0.00     0.035 A 
ATOM     11  C   UNL d   1      59.585  -1.033  29.560  0.00  0.00     0.007 A 
ATOM     12 BR   UNL d   1      60.826  -0.483  29.006  0.00  0.00    -0.049 Br
ATOM     13  C   UNL d   1      58.937  -0.928  30.012  0.00  0.00     0.002 A 
ENDBRANCH   2   7
BRANCH   6  14
ATOM     14  C   UNL d   1      56.090   0.283  32.308  0.00  0.00     0.002 C 
BRANCH  14  15
ATOM     15  C   UNL d   1      56.099   0.107  33.098  0.00  0.00     0.000 C 
BRANCH  15  16
ATOM     16  C   UNL d   1      55.482  -0.295  33.447  0.00  0.00     0.000 C 
ATOM     17  C   UNL d   1      55.344  -0.211  34.230  0.00  0.00     0.000 C 
ENDBRANCH  15  16
ENDBRANCH  14  15
ENDBRANCH   6  14
TORSDOF 4
ENDMDL
MODEL 5
REMARK VINA RESULT:      -2.0      9.769     10.442
REMARK  4 active torsions:
REMARK  status: ('A' for Active; 'I' for Inactive)
REMARK    1  A    between atoms: C_3  and  C_2 
REMARK    2  A    between atoms: C_14  and  C_12 
REMARK    3  A    between atoms: C_15  and  C_14 
REMARK    4  A    between atoms: C_16  and  C_15 
ROOT
ATOM      1  N   UNL d   1      58.589  -9.808  32.642  0.00  0.00    -0.244 NA
ATOM      2  C   UNL d   1      59.209  -9.664  32.121  0.00  0.00     0.081 A 
ATOM      3  C   UNL d   1      59.999  -9.466  32.446  0.00  0.00     0.019 A 
ATOM      4  C   UNL d   1      58.694  -9.770  33.462  0.00  0.00     0.099 A 
ATOM      5  C   UNL d   1      60.104  -9.427  33.266  0.00  0.00     0.003 A 
ATOM      6  C   UNL d   1      59.423  -9.586  33.802  0.00  0.00     0.019 A 
ENDROOT
BRANCH   2   7
ATOM      7  C   UNL d   1      59.104  -9.703  31.301  0.00  0.00     0.018 A 
ATOM      8  C   UNL d   1      59.741  -9.768  30.781  0.00  0.00     0.002 A 
ATOM      9  C   UNL d   1      59.641  -9.805  29.992  0.00  0.00     0.007 A 
ATOM     10  C   UNL d   1      58.890  -9.781  29.627  0.00  0.00     0.035 A 
ATOM     11  C   UNL d   1      58.191  -9.710  30.173  0.00  0.00     0.007 A 
ATOM     12 BR   UNL d   1      58.789  -9.817  28.838  0.00  0.00    -0.049 Br
ATOM     13  C   UNL d   1      58.292  -9.673  30.962  0.00  0.00     0.002 A 
ENDBRANCH   2   7
BRANCH   6  14
ATOM     14  C   UNL d   1      59.527  -9.548  34.609  0.00  0.00     0.002 C 
BRANCH  14  15
ATOM     15  C   UNL d   1      59.547  -8.836  34.995  0.00  0.00     0.000 C 
BRANCH  15  16
ATOM     16  C   UNL d   1      59.525  -8.798  35.809  0.00  0.00     0.000 C 
ATOM     17  C   UNL d   1      59.759  -8.132  36.183  0.00  0.00     0.000 C 
ENDBRANCH  15  16
ENDBRANCH  14  15
ENDBRANCH   6  14
TORSDOF 4
ENDMDL
