MODEL 1
REMARK VINA RESULT:      -7.3      0.000      0.000
REMARK  5 active torsions:
REMARK  status: ('A' for Active; 'I' for Inactive)
REMARK    1  A    between atoms: C_11  and  C_1 
REMARK    2  A    between atoms: C_14  and  N_4 
REMARK    3  A    between atoms: C_5  and  S_12 
REMARK    4  A    between atoms: C_16  and  C_11 
REMARK    5  A    between atoms: S_12  and  C_16 
ROOT
ATOM      1  C   UNL d   1     -47.763  13.388  23.054  0.00  0.00     0.057 A 
ATOM      2  C   UNL d   1     -48.584  13.444  23.180  0.00  0.00     0.067 A 
ATOM      3  N   UNL d   1     -48.828  14.179  22.922  0.00  0.00    -0.306 N 
ATOM      4  C   UNL d   1     -48.165  14.595  22.631  0.00  0.00     0.064 A 
ATOM      5  C   UNL d   1     -47.509  14.090  22.719  0.00  0.00     0.022 A 
ATOM      6  C   UNL d   1     -49.088  12.841  23.519  0.00  0.00     0.019 C 
ATOM      7  C   UNL d   1     -48.161  15.365  22.313  0.00  0.00     0.019 C 
ENDROOT
BRANCH   1   8
ATOM      8  C   UNL d   1     -47.373  12.696  23.267  0.00  0.00     0.204 C 
ATOM      9  O   UNL d   1     -47.784  12.127  23.685  0.00  0.00    -0.286 OA
BRANCH   8  10
ATOM     10  C   UNL d   1     -46.579  12.578  23.063  0.00  0.00     0.080 C 
BRANCH  10  11
ATOM     11  S   UNL d   1     -46.250  11.828  23.089  0.00  0.00    -0.044 SA
BRANCH  11  12
ATOM     12  C   UNL d   1     -45.432  11.724  23.005  0.00  0.00     0.201 A 
ATOM     13  N   UNL d   1     -44.983  11.075  23.211  0.00  0.00    -0.268 N 
ATOM     14  C   UNL d   1     -44.189  11.235  23.018  0.00  0.00     0.171 A 
ATOM     15  C   UNL d   1     -45.184  10.335  23.557  0.00  0.00     0.084 A 
ATOM     16  C   UNL d   1     -43.601  10.660  23.171  0.00  0.00     0.039 A 
ATOM     17  N   UNL d   1     -44.167  11.983  22.696  0.00  0.00    -0.128 NA
ATOM     18  C   UNL d   1     -43.798   9.936  23.510  0.00  0.00     0.005 A 
ATOM     19  C   UNL d   1     -44.584   9.784  23.698  0.00  0.00     0.019 A 
ATOM     20  N   UNL d   1     -44.916  12.277  22.689  0.00  0.00    -0.121 NA
ENDBRANCH  11  12
ENDBRANCH  10  11
ENDBRANCH   8  10
ENDBRANCH   1   8
BRANCH   3  21
ATOM     21  C   UNL d   1     -49.580  14.540  22.910  0.00  0.00     0.064 A 
ATOM     22  C   UNL d   1     -49.804  15.047  23.522  0.00  0.00     0.018 A 
ATOM     23  C   UNL d   1     -50.545  15.403  23.510  0.00  0.00     0.002 A 
ATOM     24  C   UNL d   1     -51.060  15.258  22.894  0.00  0.00     0.000 A 
ATOM     25  C   UNL d   1     -50.836  14.747  22.275  0.00  0.00     0.002 A 
ATOM     26  C   UNL d   1     -50.098  14.396  22.293  0.00  0.00     0.018 A 
ENDBRANCH   3  21
TORSDOF 5
ENDMDL
MODEL 2
REMARK VINA RESULT:      -6.5      1.724      2.340
REMARK  5 active torsions:
REMARK  status: ('A' for Active; 'I' for Inactive)
REMARK    1  A    between atoms: C_11  and  C_1 
REMARK    2  A    between atoms: C_14  and  N_4 
REMARK    3  A    between atoms: C_5  and  S_12 
REMARK    4  A    between atoms: C_16  and  C_11 
REMARK    5  A    between atoms: S_12  and  C_16 
ROOT
ATOM      1  C   UNL d   1     -47.715  13.260  22.229  0.00  0.00     0.057 A 
ATOM      2  C   UNL d   1     -48.226  13.089  22.865  0.00  0.00     0.067 A 
ATOM      3  N   UNL d   1     -48.944  12.857  22.555  0.00  0.00    -0.306 N 
ATOM      4  C   UNL d   1     -48.897  12.879  21.722  0.00  0.00     0.064 A 
ATOM      5  C   UNL d   1     -48.126  13.131  21.533  0.00  0.00     0.022 A 
ATOM      6  C   UNL d   1     -48.035  13.145  23.697  0.00  0.00     0.019 C 
ATOM      7  C   UNL d   1     -49.503  12.685  21.183  0.00  0.00     0.019 C 
ENDROOT
BRANCH   1   8
ATOM      8  C   UNL d   1     -46.949  13.508  22.388  0.00  0.00     0.204 C 
ATOM      9  O   UNL d   1     -46.829  14.279  22.633  0.00  0.00    -0.286 OA
BRANCH   8  10
ATOM     10  C   UNL d   1     -46.309  12.988  22.303  0.00  0.00     0.080 C 
BRANCH  10  11
ATOM     11  S   UNL d   1     -45.549  13.277  22.209  0.00  0.00    -0.044 SA
BRANCH  11  12
ATOM     12  C   UNL d   1     -44.896  12.770  22.261  0.00  0.00     0.201 A 
ATOM     13  N   UNL d   1     -44.172  12.838  21.891  0.00  0.00    -0.268 N 
ATOM     14  C   UNL d   1     -43.699  12.192  22.119  0.00  0.00     0.171 A 
ATOM     15  C   UNL d   1     -43.860  13.412  21.361  0.00  0.00     0.084 A 
ATOM     16  C   UNL d   1     -42.922  12.120  21.820  0.00  0.00     0.039 A 
ATOM     17  N   UNL d   1     -44.145  11.737  22.628  0.00  0.00    -0.128 NA
ATOM     18  C   UNL d   1     -42.617  12.682  21.300  0.00  0.00     0.005 A 
ATOM     19  C   UNL d   1     -43.089  13.318  21.079  0.00  0.00     0.019 A 
ATOM     20  N   UNL d   1     -44.865  12.086  22.713  0.00  0.00    -0.121 NA
ENDBRANCH  11  12
ENDBRANCH  10  11
ENDBRANCH   8  10
ENDBRANCH   1   8
BRANCH   3  21
ATOM     21  C   UNL d   1     -49.656  12.623  22.922  0.00  0.00     0.064 A 
ATOM     22  C   UNL d   1     -50.277  13.161  23.000  0.00  0.00     0.018 A 
ATOM     23  C   UNL d   1     -50.979  12.929  23.361  0.00  0.00     0.002 A 
ATOM     24  C   UNL d   1     -51.063  12.169  23.644  0.00  0.00     0.000 A 
ATOM     25  C   UNL d   1     -50.438  11.624  23.567  0.00  0.00     0.002 A 
ATOM     26  C   UNL d   1     -49.743  11.861  23.207  0.00  0.00     0.018 A 
ENDBRANCH   3  21
TORSDOF 5
ENDMDL
MODEL 3
REMARK VINA RESULT:      -5.6      8.111     10.106
REMARK  5 active torsions:
REMARK  status: ('A' for Active; 'I' for Inactive)
REMARK    1  A    between atoms: C_11  and  C_1 
REMARK    2  A    between atoms: C_14  and  N_4 
REMARK    3  A    between atoms: C_5  and  S_12 
REMARK    4  A    between atoms: C_16  and  C_11 
REMARK    5  A    between atoms: S_12  and  C_16 
ROOT
ATOM      1  C   UNL d   1     -39.723  14.944  19.973  0.00  0.00     0.057 A 
ATOM      2  C   UNL d   1     -39.201  15.318  20.504  0.00  0.00     0.067 A 
ATOM      3  N   UNL d   1     -39.334  15.008  21.247  0.00  0.00    -0.306 N 
ATOM      4  C   UNL d   1     -39.940  14.436  21.195  0.00  0.00     0.064 A 
ATOM      5  C   UNL d   1     -40.173  14.408  20.396  0.00  0.00     0.022 A 
ATOM      6  C   UNL d   1     -38.625  15.920  20.309  0.00  0.00     0.019 C 
ATOM      7  C   UNL d   1     -40.252  13.982  21.821  0.00  0.00     0.019 C 
ENDROOT
BRANCH   1   8
ATOM      8  C   UNL d   1     -39.704  15.156  19.180  0.00  0.00     0.204 C 
ATOM      9  O   UNL d   1     -40.074  15.847  18.949  0.00  0.00    -0.286 OA
BRANCH   8  10
ATOM     10  C   UNL d   1     -39.318  14.679  18.623  0.00  0.00     0.080 C 
BRANCH  10  11
ATOM     11  S   UNL d   1     -39.390  14.833  17.822  0.00  0.00    -0.044 SA
BRANCH  11  12
ATOM     12  C   UNL d   1     -39.011  14.352  17.264  0.00  0.00     0.201 A 
ATOM     13  N   UNL d   1     -38.685  14.568  16.548  0.00  0.00    -0.268 N 
ATOM     14  C   UNL d   1     -38.369  13.888  16.188  0.00  0.00     0.171 A 
ATOM     15  C   UNL d   1     -38.627  15.310  16.155  0.00  0.00     0.084 A 
ATOM     16  C   UNL d   1     -37.997  13.948  15.441  0.00  0.00     0.039 A 
ATOM     17  N   UNL d   1     -38.508  13.263  16.693  0.00  0.00    -0.128 NA
ATOM     18  C   UNL d   1     -37.940  14.674  15.057  0.00  0.00     0.005 A 
ATOM     19  C   UNL d   1     -38.254  15.343  15.418  0.00  0.00     0.019 A 
ATOM     20  N   UNL d   1     -38.894  13.544  17.341  0.00  0.00    -0.121 NA
ENDBRANCH  11  12
ENDBRANCH  10  11
ENDBRANCH   8  10
ENDBRANCH   1   8
BRANCH   3  21
ATOM     21  C   UNL d   1     -38.980  15.168  21.985  0.00  0.00     0.064 A 
ATOM     22  C   UNL d   1     -38.327  14.728  22.235  0.00  0.00     0.018 A 
ATOM     23  C   UNL d   1     -37.979  14.886  22.962  0.00  0.00     0.002 A 
ATOM     24  C   UNL d   1     -38.277  15.477  23.440  0.00  0.00     0.000 A 
ATOM     25  C   UNL d   1     -38.935  15.922  23.191  0.00  0.00     0.002 A 
ATOM     26  C   UNL d   1     -39.277  15.760  22.466  0.00  0.00     0.018 A 
ENDBRANCH   3  21
TORSDOF 5
ENDMDL
MODEL 4
REMARK VINA RESULT:      -5.6      8.232     10.110
REMARK  5 active torsions:
REMARK  status: ('A' for Active; 'I' for Inactive)
REMARK    1  A    between atoms: C_11  and  C_1 
REMARK    2  A    between atoms: C_14  and  N_4 
REMARK    3  A    between atoms: C_5  and  S_12 
REMARK    4  A    between atoms: C_16  and  C_11 
REMARK    5  A    between atoms: S_12  and  C_16 
ROOT
ATOM      1  C   UNL d   1     -39.722  14.138  18.045  0.00  0.00     0.057 A 
ATOM      2  C   UNL d   1     -39.620  14.633  17.383  0.00  0.00     0.067 A 
ATOM      3  N   UNL d   1     -38.989  14.349  16.951  0.00  0.00    -0.306 N 
ATOM      4  C   UNL d   1     -38.685  13.671  17.333  0.00  0.00     0.064 A 
ATOM      5  C   UNL d   1     -39.152  13.552  18.013  0.00  0.00     0.022 A 
ATOM      6  C   UNL d   1     -40.090  15.321  17.187  0.00  0.00     0.019 C 
ATOM      7  C   UNL d   1     -38.041  13.205  17.084  0.00  0.00     0.019 C 
ENDROOT
BRANCH   1   8
ATOM      8  C   UNL d   1     -40.326  14.302  18.577  0.00  0.00     0.204 C 
ATOM      9  O   UNL d   1     -41.072  14.005  18.427  0.00  0.00    -0.286 OA
BRANCH   8  10
ATOM     10  C   UNL d   1     -40.182  14.760  19.252  0.00  0.00     0.080 C 
BRANCH  10  11
ATOM     11  S   UNL d   1     -40.333  14.458  19.999  0.00  0.00    -0.044 SA
BRANCH  11  12
ATOM     12  C   UNL d   1     -40.143  14.896  20.676  0.00  0.00     0.201 A 
ATOM     13  N   UNL d   1     -39.735  14.649  21.339  0.00  0.00    -0.268 N 
ATOM     14  C   UNL d   1     -39.684  15.289  21.868  0.00  0.00     0.171 A 
ATOM     15  C   UNL d   1     -39.391  13.910  21.547  0.00  0.00     0.084 A 
ATOM     16  C   UNL d   1     -39.292  15.192  22.600  0.00  0.00     0.039 A 
ATOM     17  N   UNL d   1     -40.063  15.920  21.518  0.00  0.00    -0.128 NA
ATOM     18  C   UNL d   1     -38.955  14.469  22.804  0.00  0.00     0.005 A 
ATOM     19  C   UNL d   1     -39.008  13.840  22.277  0.00  0.00     0.019 A 
ATOM     20  N   UNL d   1     -40.339  15.682  20.800  0.00  0.00    -0.121 NA
ENDBRANCH  11  12
ENDBRANCH  10  11
ENDBRANCH   8  10
ENDBRANCH   1   8
BRANCH   3  21
ATOM     21  C   UNL d   1     -38.636  14.616  16.244  0.00  0.00     0.064 A 
ATOM     22  C   UNL d   1     -38.478  14.083  15.634  0.00  0.00     0.018 A 
ATOM     23  C   UNL d   1     -38.130  14.347  14.937  0.00  0.00     0.002 A 
ATOM     24  C   UNL d   1     -37.940  15.134  14.847  0.00  0.00     0.000 A 
ATOM     25  C   UNL d   1     -38.097  15.675  15.461  0.00  0.00     0.002 A 
ATOM     26  C   UNL d   1     -38.444  15.406  16.151  0.00  0.00     0.018 A 
ENDBRANCH   3  21
TORSDOF 5
ENDMDL
MODEL 5
REMARK VINA RESULT:      -5.2      1.085      5.740
REMARK  5 active torsions:
REMARK  status: ('A' for Active; 'I' for Inactive)
REMARK    1  A    between atoms: C_11  and  C_1 
REMARK    2  A    between atoms: C_14  and  N_4 
REMARK    3  A    between atoms: C_5  and  S_12 
REMARK    4  A    between atoms: C_16  and  C_11 
REMARK    5  A    between atoms: S_12  and  C_16 
ROOT
ATOM      1  C   UNL d   1     -46.513  12.686  23.005  0.00  0.00     0.057 A 
ATOM      2  C   UNL d   1     -45.708  12.484  22.930  0.00  0.00     0.067 A 
ATOM      3  N   UNL d   1     -45.619  11.711  23.173  0.00  0.00    -0.306 N 
ATOM      4  C   UNL d   1     -46.365  11.415  23.405  0.00  0.00     0.064 A 
ATOM      5  C   UNL d   1     -46.911  12.033  23.295  0.00  0.00     0.022 A 
ATOM      6  C   UNL d   1     -45.081  12.995  22.648  0.00  0.00     0.019 C 
ATOM      7  C   UNL d   1     -46.530  10.649  23.690  0.00  0.00     0.019 C 
ENDROOT
BRANCH   1   8
ATOM      8  C   UNL d   1     -46.755  13.443  22.796  0.00  0.00     0.204 C 
ATOM      9  O   UNL d   1     -46.254  14.071  22.942  0.00  0.00    -0.286 OA
BRANCH   8  10
ATOM     10  C   UNL d   1     -47.495  13.567  22.442  0.00  0.00     0.080 C 
BRANCH  10  11
ATOM     11  S   UNL d   1     -48.016  14.118  22.751  0.00  0.00    -0.044 SA
BRANCH  11  12
ATOM     12  C   UNL d   1     -48.777  14.201  22.435  0.00  0.00     0.201 A 
ATOM     13  N   UNL d   1     -49.386  14.674  22.702  0.00  0.00    -0.268 N 
ATOM     14  C   UNL d   1     -50.041  14.565  22.201  0.00  0.00     0.171 A 
ATOM     15  C   UNL d   1     -49.445  15.207  23.350  0.00  0.00     0.084 A 
ATOM     16  C   UNL d   1     -50.749  14.986  22.345  0.00  0.00     0.039 A 
ATOM     17  N   UNL d   1     -49.821  14.024  21.632  0.00  0.00    -0.128 NA
ATOM     18  C   UNL d   1     -50.806  15.508  22.980  0.00  0.00     0.005 A 
ATOM     19  C   UNL d   1     -50.155  15.611  23.472  0.00  0.00     0.019 A 
ATOM     20  N   UNL d   1     -49.059  13.805  21.775  0.00  0.00    -0.121 NA
ENDBRANCH  11  12
ENDBRANCH  10  11
ENDBRANCH   8  10
ENDBRANCH   1   8
BRANCH   3  21
ATOM     21  C   UNL d   1     -44.948  11.218  23.219  0.00  0.00     0.064 A 
ATOM     22  C   UNL d   1     -44.252  11.430  22.829  0.00  0.00     0.018 A 
ATOM     23  C   UNL d   1     -43.590  10.944  22.874  0.00  0.00     0.002 A 
ATOM     24  C   UNL d   1     -43.619  10.252  23.303  0.00  0.00     0.000 A 
ATOM     25  C   UNL d   1     -44.320  10.034  23.698  0.00  0.00     0.002 A 
ATOM     26  C   UNL d   1     -44.974  10.522  23.649  0.00  0.00     0.018 A 
ENDBRANCH   3  21
TORSDOF 5
ENDMDL
MODEL 6
REMARK VINA RESULT:      -4.7      8.726     10.559
REMARK  5 active torsions:
REMARK  status: ('A' for Active; 'I' for Inactive)
REMARK    1  A    between atoms: C_11  and  C_1 
REMARK    2  A    between atoms: C_14  and  N_4 
REMARK    3  A    between atoms: C_5  and  S_12 
REMARK    4  A    between atoms: C_16  and  C_11 
REMARK    5  A    between atoms: S_12  and  C_16 
ROOT
ATOM      1  C   UNL d   1     -38.696  14.845  18.602  0.00  0.00     0.057 A 
ATOM      2  C   UNL d   1     -39.375  15.237  18.884  0.00  0.00     0.067 A 
ATOM      3  N   UNL d   1     -39.558  14.926  19.616  0.00  0.00    -0.306 N 
ATOM      4  C   UNL d   1     -38.999  14.336  19.805  0.00  0.00     0.064 A 
ATOM      5  C   UNL d   1     -38.469  14.297  19.164  0.00  0.00     0.022 A 
ATOM      6  C   UNL d   1     -39.808  15.856  18.481  0.00  0.00     0.019 C 
ATOM      7  C   UNL d   1     -38.975  13.875  20.499  0.00  0.00     0.019 C 
ENDROOT
BRANCH   1   8
ATOM      8  C   UNL d   1     -38.391  15.055  17.868  0.00  0.00     0.204 C 
ATOM      9  O   UNL d   1     -38.034  15.785  17.785  0.00  0.00    -0.286 OA
BRANCH   8  10
ATOM     10  C   UNL d   1     -38.444  14.536  17.224  0.00  0.00     0.080 C 
BRANCH  10  11
ATOM     11  S   UNL d   1     -37.962  14.635  16.570  0.00  0.00    -0.044 SA
BRANCH  11  12
ATOM     12  C   UNL d   1     -37.957  14.073  15.961  0.00  0.00     0.201 A 
ATOM     13  N   UNL d   1     -37.969  14.202  15.154  0.00  0.00    -0.268 N 
ATOM     14  C   UNL d   1     -37.958  13.463  14.772  0.00  0.00     0.171 A 
ATOM     15  C   UNL d   1     -37.988  14.906  14.695  0.00  0.00     0.084 A 
ATOM     16  C   UNL d   1     -37.966  13.428  13.936  0.00  0.00     0.039 A 
ATOM     17  N   UNL d   1     -37.940  12.892  15.353  0.00  0.00    -0.128 NA
ATOM     18  C   UNL d   1     -37.985  14.118  13.486  0.00  0.00     0.005 A 
ATOM     19  C   UNL d   1     -37.996  14.845  13.871  0.00  0.00     0.019 A 
ATOM     20  N   UNL d   1     -37.940  13.261  16.069  0.00  0.00    -0.121 NA
ENDBRANCH  11  12
ENDBRANCH  10  11
ENDBRANCH   8  10
ENDBRANCH   1   8
BRANCH   3  21
ATOM     21  C   UNL d   1     -40.171  15.100  20.154  0.00  0.00     0.064 A 
ATOM     22  C   UNL d   1     -40.848  14.628  20.176  0.00  0.00     0.018 A 
ATOM     23  C   UNL d   1     -41.452  14.800  20.706  0.00  0.00     0.002 A 
ATOM     24  C   UNL d   1     -41.385  15.436  21.212  0.00  0.00     0.000 A 
ATOM     25  C   UNL d   1     -40.704  15.914  21.193  0.00  0.00     0.002 A 
ATOM     26  C   UNL d   1     -40.106  15.738  20.663  0.00  0.00     0.018 A 
ENDBRANCH   3  21
TORSDOF 5
ENDMDL
