MODEL 1
REMARK VINA RESULT:     135.6      0.000      0.000
REMARK  4 active torsions:
REMARK  status: ('A' for Active; 'I' for Inactive)
REMARK       I    between atoms: C_3  and  N_1 
REMARK    1  A    between atoms: C_7  and  C_3 
REMARK    2  A    between atoms: C_8  and  C_4 
REMARK    3  A    between atoms: C_9  and  C_5 
REMARK    4  A    between atoms: O_25  and  C_18 
ROOT
ATOM      1  N   UNL d   1      60.451  48.603  50.719  0.00  0.00    -0.195 N 
ATOM      2  N   UNL d   1      59.799  49.095  50.885  0.00  0.00    -0.163 NA
ATOM      3  C   UNL d   1      61.247  48.844  50.763  0.00  0.00     0.282 C 
ATOM      4  C   UNL d   1      60.189  47.856  50.508  0.00  0.00     0.088 A 
ATOM      5  C   UNL d   1      59.122  48.646  50.775  0.00  0.00     0.103 A 
ATOM      6  C   UNL d   1      59.364  47.881  50.543  0.00  0.00     0.040 A 
ATOM      7  O   UNL d   1      61.440  49.611  50.981  0.00  0.00    -0.265 OA
ENDROOT
BRANCH   3   8
ATOM      8  C   UNL d   1      61.851  48.287  50.579  0.00  0.00     0.077 A 
ATOM      9  C   UNL d   1      62.179  47.821  51.165  0.00  0.00     0.104 A 
ATOM     10  N   UNL d   1      62.765  47.281  50.985  0.00  0.00    -0.242 NA
ATOM     11  C   UNL d   1      63.022  47.214  50.197  0.00  0.00     0.099 A 
ATOM     12  C   UNL d   1      62.694  47.680  49.608  0.00  0.00     0.021 A 
ATOM     13  C   UNL d   1      62.108  48.220  49.789  0.00  0.00     0.008 A 
ENDBRANCH   3   8
BRANCH   4  14
ATOM     14  C   UNL d   1      60.654  47.206  50.301  0.00  0.00     0.018 A 
ATOM     15  C   UNL d   1      60.813  46.620  50.859  0.00  0.00     0.004 A 
ATOM     16  C   UNL d   1      61.278  45.970  50.652  0.00  0.00     0.024 A 
ATOM     17  C   UNL d   1      61.583  45.907  49.889  0.00  0.00     0.094 A 
ATOM     18  C   UNL d   1      61.423  46.492  49.336  0.00  0.00     0.024 A 
ATOM     19  C   UNL d   1      60.959  47.142  49.542  0.00  0.00     0.004 A 
BRANCH  17  20
ATOM     20  O   UNL d   1      62.048  45.257  49.683  0.00  0.00    -0.328 OA
ATOM     21  C   UNL d   1      61.823  44.772  49.055  0.00  0.00     0.181 C 
ENDBRANCH  17  20
ENDBRANCH   4  14
BRANCH   5  22
ATOM     22  C   UNL d   1      58.360  48.908  50.878  0.00  0.00     0.019 A 
ATOM     23  C   UNL d   1      57.899  49.042  50.198  0.00  0.00     0.002 A 
ATOM     24  C   UNL d   1      57.107  49.315  50.301  0.00  0.00     0.007 A 
ATOM     25  C   UNL d   1      56.810  49.441  51.048  0.00  0.00     0.035 A 
ATOM     26  C   UNL d   1      57.271  49.307  51.729  0.00  0.00     0.007 A 
ATOM     27 BR   UNL d   1      56.033  49.707  51.129  0.00  0.00    -0.049 Br
ATOM     28  C   UNL d   1      58.067  49.033  51.623  0.00  0.00     0.002 A 
ENDBRANCH   5  22
TORSDOF 4
ENDMDL
