MODEL 1
REMARK VINA RESULT:      -2.2      0.000      0.000
REMARK  3 active torsions:
REMARK  status: ('A' for Active; 'I' for Inactive)
REMARK    1  A    between atoms: C_8  and  C_1 
REMARK    2  A    between atoms: N_4  and  C_2 
REMARK       I    between atoms: C_6  and  N_4 
REMARK    3  A    between atoms: C_9  and  C_6 
ROOT
ATOM      1  C   UNL d   1      32.575  23.207 -21.446  0.00  0.00     0.177 A 
ATOM      2  C   UNL d   1      32.868  22.483 -21.181  0.00  0.00     0.114 A 
ATOM      3  O   UNL d   1      32.463  23.702 -20.784  0.00  0.00    -0.301 OA
ATOM      4  C   UNL d   1      32.941  22.518 -20.362  0.00  0.00     0.043 A 
ATOM      5  C   UNL d   1      32.686  23.286 -20.114  0.00  0.00     0.102 A 
ATOM      6  C   UNL d   1      33.199  21.973 -19.807  0.00  0.00     0.004 A 
ATOM      7  C   UNL d   1      32.700  23.476 -19.318  0.00  0.00     0.025 A 
ATOM      8  C   UNL d   1      33.214  22.163 -19.000  0.00  0.00     0.000 A 
ATOM      9  C   UNL d   1      32.969  22.903 -18.752  0.00  0.00     0.002 A 
ENDROOT
BRANCH   2  10
ATOM     10  N   UNL d   1      33.055  21.828 -21.687  0.00  0.00    -0.206 NA
ATOM     11  C   UNL d   1      32.550  21.175 -21.711  0.00  0.00     0.279 C 
ATOM     12  O   UNL d   1      31.849  21.141 -21.243  0.00  0.00    -0.265 OA
BRANCH  11  13
ATOM     13  C   UNL d   1      32.726  20.529 -22.204  0.00  0.00     0.058 A 
ATOM     14  C   UNL d   1      32.924  20.624 -22.992  0.00  0.00     0.007 A 
ATOM     15  C   UNL d   1      33.096  19.964 -23.468  0.00  0.00     0.030 A 
ATOM     16  C   UNL d   1      33.068  19.206 -23.145  0.00  0.00     0.140 A 
ATOM     17  C   UNL d   1      32.872  19.099 -22.361  0.00  0.00     0.030 A 
ATOM     18  F   UNL d   1      33.237  18.546 -23.606  0.00  0.00    -0.204 F 
ATOM     19  C   UNL d   1      32.699  19.756 -21.881  0.00  0.00     0.007 A 
ENDBRANCH  11  13
ENDBRANCH   2  10
BRANCH   1  20
ATOM     20  C   UNL d   1      32.429  23.380 -22.237  0.00  0.00     0.321 C 
ATOM     21  O   UNL d   1      31.642  23.371 -22.529  0.00  0.00    -0.261 OA
ATOM     22  N   UNL d   1      33.059  23.566 -22.755  0.00  0.00    -0.101 N 
ENDBRANCH   1  20
TORSDOF 3
ENDMDL
MODEL 2
REMARK VINA RESULT:      -1.3      3.154      5.606
REMARK  3 active torsions:
REMARK  status: ('A' for Active; 'I' for Inactive)
REMARK    1  A    between atoms: C_8  and  C_1 
REMARK    2  A    between atoms: N_4  and  C_2 
REMARK       I    between atoms: C_6  and  N_4 
REMARK    3  A    between atoms: C_9  and  C_6 
ROOT
ATOM      1  C   UNL d   1      31.218  17.592 -24.344  0.00  0.00     0.177 A 
ATOM      2  C   UNL d   1      31.824  17.646 -23.787  0.00  0.00     0.114 A 
ATOM      3  O   UNL d   1      31.273  16.850 -24.722  0.00  0.00    -0.301 OA
ATOM      4  C   UNL d   1      32.257  16.946 -23.810  0.00  0.00     0.043 A 
ATOM      5  C   UNL d   1      31.910  16.447 -24.399  0.00  0.00     0.102 A 
ATOM      6  C   UNL d   1      32.912  16.688 -23.389  0.00  0.00     0.004 A 
ATOM      7  C   UNL d   1      32.233  15.709 -24.540  0.00  0.00     0.025 A 
ATOM      8  C   UNL d   1      33.241  15.941 -23.531  0.00  0.00     0.000 A 
ATOM      9  C   UNL d   1      32.910  15.453 -24.098  0.00  0.00     0.002 A 
ENDROOT
BRANCH   2  10
ATOM     10  N   UNL d   1      31.956  18.317 -23.286  0.00  0.00    -0.206 NA
ATOM     11  C   UNL d   1      32.638  18.772 -23.388  0.00  0.00     0.279 C 
ATOM     12  O   UNL d   1      33.210  18.586 -23.979  0.00  0.00    -0.265 OA
BRANCH  11  13
ATOM     13  C   UNL d   1      32.776  19.433 -22.901  0.00  0.00     0.058 A 
ATOM     14  C   UNL d   1      32.659  19.409 -22.092  0.00  0.00     0.007 A 
ATOM     15  C   UNL d   1      32.803  20.081 -21.624  0.00  0.00     0.030 A 
ATOM     16  C   UNL d   1      33.066  20.779 -21.977  0.00  0.00     0.140 A 
ATOM     17  C   UNL d   1      33.185  20.814 -22.782  0.00  0.00     0.030 A 
ATOM     18  F   UNL d   1      33.211  21.450 -21.523  0.00  0.00    -0.204 F 
ATOM     19  C   UNL d   1      33.043  20.145 -23.255  0.00  0.00     0.007 A 
ENDBRANCH  11  13
ENDBRANCH   2  10
BRANCH   1  20
ATOM     20  C   UNL d   1      30.668  18.189 -24.481  0.00  0.00     0.321 C 
ATOM     21  O   UNL d   1      30.797  18.744 -25.097  0.00  0.00    -0.261 OA
ATOM     22  N   UNL d   1      29.978  18.247 -24.010  0.00  0.00    -0.101 N 
ENDBRANCH   1  20
TORSDOF 3
ENDMDL
MODEL 3
REMARK VINA RESULT:      -1.0      1.414      2.492
REMARK  3 active torsions:
REMARK  status: ('A' for Active; 'I' for Inactive)
REMARK    1  A    between atoms: C_8  and  C_1 
REMARK    2  A    between atoms: N_4  and  C_2 
REMARK       I    between atoms: C_6  and  N_4 
REMARK    3  A    between atoms: C_9  and  C_6 
ROOT
ATOM      1  C   UNL d   1      32.542  21.853 -21.327  0.00  0.00     0.177 A 
ATOM      2  C   UNL d   1      32.842  21.543 -22.030  0.00  0.00     0.114 A 
ATOM      3  O   UNL d   1      32.445  22.676 -21.423  0.00  0.00    -0.301 OA
ATOM      4  C   UNL d   1      32.934  22.161 -22.565  0.00  0.00     0.043 A 
ATOM      5  C   UNL d   1      32.684  22.873 -22.182  0.00  0.00     0.102 A 
ATOM      6  C   UNL d   1      33.207  22.186 -23.339  0.00  0.00     0.004 A 
ATOM      7  C   UNL d   1      32.717  23.582 -22.591  0.00  0.00     0.025 A 
ATOM      8  C   UNL d   1      33.241  22.903 -23.754  0.00  0.00     0.000 A 
ATOM      9  C   UNL d   1      33.000  23.595 -23.390  0.00  0.00     0.002 A 
ENDROOT
BRANCH   2  10
ATOM     10  N   UNL d   1      33.017  20.723 -22.156  0.00  0.00    -0.206 NA
ATOM     11  C   UNL d   1      32.608  20.303 -22.737  0.00  0.00     0.279 C 
ATOM     12  O   UNL d   1      32.016  20.670 -23.213  0.00  0.00    -0.265 OA
BRANCH  11  13
ATOM     13  C   UNL d   1      32.774  19.498 -22.867  0.00  0.00     0.058 A 
ATOM     14  C   UNL d   1      33.079  19.016 -22.280  0.00  0.00     0.007 A 
ATOM     15  C   UNL d   1      33.238  18.215 -22.430  0.00  0.00     0.030 A 
ATOM     16  C   UNL d   1      33.087  17.900 -23.178  0.00  0.00     0.140 A 
ATOM     17  C   UNL d   1      32.784  18.369 -23.770  0.00  0.00     0.030 A 
ATOM     18  F   UNL d   1      33.241  17.107 -23.338  0.00  0.00    -0.204 F 
ATOM     19  C   UNL d   1      32.623  19.172 -23.624  0.00  0.00     0.007 A 
ENDBRANCH  11  13
ENDBRANCH   2  10
BRANCH   1  20
ATOM     20  C   UNL d   1      32.376  21.399 -20.661  0.00  0.00     0.321 C 
ATOM     21  O   UNL d   1      31.597  21.114 -20.532  0.00  0.00    -0.261 OA
ATOM     22  N   UNL d   1      32.979  21.218 -20.109  0.00  0.00    -0.101 N 
ENDBRANCH   1  20
TORSDOF 3
ENDMDL
MODEL 4
REMARK VINA RESULT:       0.4      2.017      3.017
REMARK  3 active torsions:
REMARK  status: ('A' for Active; 'I' for Inactive)
REMARK    1  A    between atoms: C_8  and  C_1 
REMARK    2  A    between atoms: N_4  and  C_2 
REMARK       I    between atoms: C_6  and  N_4 
REMARK    3  A    between atoms: C_9  and  C_6 
ROOT
ATOM      1  C   UNL d   1      33.203  20.872 -23.495  0.00  0.00     0.177 A 
ATOM      2  C   UNL d   1      33.223  20.165 -23.070  0.00  0.00     0.114 A 
ATOM      3  O   UNL d   1      33.192  21.505 -22.951  0.00  0.00    -0.301 OA
ATOM      4  C   UNL d   1      33.224  20.347 -22.268  0.00  0.00     0.043 A 
ATOM      5  C   UNL d   1      33.204  21.190 -22.195  0.00  0.00     0.102 A 
ATOM      6  C   UNL d   1      33.240  19.877 -21.595  0.00  0.00     0.004 A 
ATOM      7  C   UNL d   1      33.201  21.528 -21.449  0.00  0.00     0.025 A 
ATOM      8  C   UNL d   1      33.236  20.219 -20.839  0.00  0.00     0.000 A 
ATOM      9  C   UNL d   1      33.217  21.033 -20.761  0.00  0.00     0.002 A 
ENDROOT
BRANCH   2  10
ATOM     10  N   UNL d   1      33.239  19.394 -23.424  0.00  0.00    -0.206 NA
ATOM     11  C   UNL d   1      32.625  18.864 -23.273  0.00  0.00     0.279 C 
ATOM     12  O   UNL d   1      31.977  19.069 -22.773  0.00  0.00    -0.265 OA
BRANCH  11  13
ATOM     13  C   UNL d   1      32.633  18.106 -23.615  0.00  0.00     0.058 A 
ATOM     14  C   UNL d   1      33.193  17.544 -23.416  0.00  0.00     0.007 A 
ATOM     15  C   UNL d   1      33.184  16.792 -23.770  0.00  0.00     0.030 A 
ATOM     16  C   UNL d   1      32.605  16.609 -24.328  0.00  0.00     0.140 A 
ATOM     17  C   UNL d   1      32.042  17.160 -24.535  0.00  0.00     0.030 A 
ATOM     18  F   UNL d   1      32.586  15.867 -24.686  0.00  0.00    -0.204 F 
ATOM     19  C   UNL d   1      32.047  17.914 -24.183  0.00  0.00     0.007 A 
ENDBRANCH  11  13
ENDBRANCH   2  10
BRANCH   1  20
ATOM     20  C   UNL d   1      33.197  20.912 -24.317  0.00  0.00     0.321 C 
ATOM     21  O   UNL d   1      33.238  20.207 -24.771  0.00  0.00    -0.261 OA
ATOM     22  N   UNL d   1      33.150  21.651 -24.706  0.00  0.00    -0.101 N 
ENDBRANCH   1  20
TORSDOF 3
ENDMDL
MODEL 5
REMARK VINA RESULT:       0.5      4.667      6.543
REMARK  3 active torsions:
REMARK  status: ('A' for Active; 'I' for Inactive)
REMARK    1  A    between atoms: C_8  and  C_1 
REMARK    2  A    between atoms: N_4  and  C_2 
REMARK       I    between atoms: C_6  and  N_4 
REMARK    3  A    between atoms: C_9  and  C_6 
ROOT
ATOM      1  C   UNL d   1      31.396  15.982 -24.106  0.00  0.00     0.177 A 
ATOM      2  C   UNL d   1      31.083  16.691 -24.391  0.00  0.00     0.114 A 
ATOM      3  O   UNL d   1      30.763  15.466 -23.936  0.00  0.00    -0.301 OA
ATOM      4  C   UNL d   1      30.263  16.624 -24.401  0.00  0.00     0.043 A 
ATOM      5  C   UNL d   1      30.064  15.853 -24.115  0.00  0.00     0.102 A 
ATOM      6  C   UNL d   1      29.670  17.144 -24.626  0.00  0.00     0.004 A 
ATOM      7  C   UNL d   1      29.276  15.634 -24.066  0.00  0.00     0.025 A 
ATOM      8  C   UNL d   1      28.872  16.924 -24.577  0.00  0.00     0.000 A 
ATOM      9  C   UNL d   1      28.671  16.180 -24.301  0.00  0.00     0.002 A 
ENDROOT
BRANCH   2  10
ATOM     10  N   UNL d   1      31.549  17.359 -24.627  0.00  0.00    -0.206 NA
ATOM     11  C   UNL d   1      31.511  18.057 -24.187  0.00  0.00     0.279 C 
ATOM     12  O   UNL d   1      31.019  18.123 -23.504  0.00  0.00    -0.265 OA
BRANCH  11  13
ATOM     13  C   UNL d   1      31.964  18.717 -24.411  0.00  0.00     0.058 A 
ATOM     14  C   UNL d   1      32.782  18.698 -24.432  0.00  0.00     0.007 A 
ATOM     15  C   UNL d   1      33.216  19.369 -24.659  0.00  0.00     0.030 A 
ATOM     16  C   UNL d   1      32.820  20.063 -24.866  0.00  0.00     0.140 A 
ATOM     17  C   UNL d   1      32.007  20.095 -24.849  0.00  0.00     0.030 A 
ATOM     18  F   UNL d   1      33.240  20.734 -25.092  0.00  0.00    -0.204 F 
ATOM     19  C   UNL d   1      31.568  19.425 -24.622  0.00  0.00     0.007 A 
ENDBRANCH  11  13
ENDBRANCH   2  10
BRANCH   1  20
ATOM     20  C   UNL d   1      32.202  15.841 -24.017  0.00  0.00     0.321 C 
ATOM     21  O   UNL d   1      32.562  15.932 -23.264  0.00  0.00    -0.261 OA
ATOM     22  N   UNL d   1      32.667  15.607 -24.672  0.00  0.00    -0.101 N 
ENDBRANCH   1  20
TORSDOF 3
ENDMDL
