MODEL 1
REMARK VINA RESULT:      28.1      0.000      0.000
REMARK  2 active torsions:
REMARK  status: ('A' for Active; 'I' for Inactive)
REMARK    1  A    between atoms: C_5  and  N_1 
REMARK    2  A    between atoms: C_7  and  C_5 
ROOT
ATOM      1  N   UNL d   1     -57.189 -98.757 -44.500  0.00  0.00    -0.251 N 
ATOM      2  C   UNL d   1     -57.390 -98.758 -45.296  0.00  0.00     0.378 A 
ATOM      3  O   UNL d   1     -58.214 -98.759 -45.354  0.00  0.00    -0.258 OA
ATOM      4  C   UNL d   1     -57.893 -98.757 -44.059  0.00  0.00     0.092 A 
ATOM      5  C   UNL d   1     -58.524 -98.758 -44.588  0.00  0.00     0.121 A 
ATOM      6  O   UNL d   1     -56.865 -98.759 -45.932  0.00  0.00    -0.237 OA
ATOM      7  C   UNL d   1     -58.026 -98.756 -43.247  0.00  0.00     0.020 A 
ATOM      8  C   UNL d   1     -59.300 -98.758 -44.299  0.00  0.00     0.026 A 
ATOM      9  C   UNL d   1     -58.800 -98.756 -42.960  0.00  0.00     0.002 A 
ATOM     10  C   UNL d   1     -59.435 -98.757 -43.484  0.00  0.00     0.002 A 
ENDROOT
BRANCH   1  11
ATOM     11  C   UNL d   1     -56.425 -98.757 -44.189  0.00  0.00     0.086 C 
BRANCH  11  12
ATOM     12  C   UNL d   1     -55.928 -99.392 -44.327  0.00  0.00     0.028 A 
ATOM     13  C   UNL d   1     -55.205 -99.450 -43.929  0.00  0.00     0.059 A 
ATOM     14 CL   UNL d   1     -55.016 -98.843 -43.394  0.00  0.00    -0.082 Cl
ATOM     15  C   UNL d   1     -54.711-100.087 -44.069  0.00  0.00     0.011 A 
ATOM     16  C   UNL d   1     -54.931-100.678 -44.611  0.00  0.00     0.001 A 
ATOM     17  C   UNL d   1     -55.653-100.622 -45.009  0.00  0.00     0.000 A 
ATOM     18  C   UNL d   1     -56.149 -99.980 -44.867  0.00  0.00     0.002 A 
ENDBRANCH  11  12
ENDBRANCH   1  11
TORSDOF 2
ENDMDL
