MODEL 1
REMARK VINA RESULT:      68.5      0.000      0.000
REMARK  4 active torsions:
REMARK  status: ('A' for Active; 'I' for Inactive)
REMARK    1  A    between atoms: S_9  and  C_2 
REMARK    2  A    between atoms: C_11  and  C_3 
REMARK    3  A    between atoms: C_7  and  C_10 
REMARK       I    between atoms: N_8  and  C_7 
REMARK    4  A    between atoms: C_10  and  S_9 
ROOT
ATOM      1  N   UNL d   1     -51.130  25.956  33.313  0.00  0.00    -0.220 NA
ATOM      2  C   UNL d   1     -50.299  25.999  33.312  0.00  0.00     0.114 A 
ATOM      3  C   UNL d   1     -51.497  25.221  33.319  0.00  0.00     0.163 A 
ATOM      4  N   UNL d   1     -51.047  24.530  33.324  0.00  0.00    -0.227 NA
ATOM      5  C   UNL d   1     -49.849  25.308  33.317  0.00  0.00     0.042 A 
ATOM      6  C   UNL d   1     -50.230  24.573  33.323  0.00  0.00     0.085 A 
ATOM      7  C   UNL d   1     -49.040  25.351  33.316  0.00  0.00     0.004 A 
ATOM      8  C   UNL d   1     -49.790  23.889  33.328  0.00  0.00     0.019 A 
ATOM      9  C   UNL d   1     -48.590  24.660  33.321  0.00  0.00     0.000 A 
ATOM     10  C   UNL d   1     -48.971  23.926  33.327  0.00  0.00     0.002 A 
ENDROOT
BRANCH   2  11
ATOM     11  S   UNL d   1     -49.924  26.730  33.306  0.00  0.00    -0.062 SA
BRANCH  11  12
ATOM     12  C   UNL d   1     -49.895  27.186  33.982  0.00  0.00     0.098 C 
BRANCH  12  13
ATOM     13  C   UNL d   1     -49.732  27.996  33.940  0.00  0.00     0.271 C 
ATOM     14  N   UNL d   1     -49.166  28.335  34.430  0.00  0.00    -0.272 N 
ATOM     15  C   UNL d   1     -49.010  29.136  34.384  0.00  0.00     0.083 A 
ATOM     16  C   UNL d   1     -48.761  27.857  34.967  0.00  0.00     0.083 A 
ATOM     17  C   UNL d   1     -48.446  29.480  34.871  0.00  0.00     0.019 A 
ATOM     18  C   UNL d   1     -48.032  29.015  35.413  0.00  0.00     0.003 A 
ATOM     19  C   UNL d   1     -48.193  28.205  35.457  0.00  0.00     0.019 A 
ATOM     20  O   UNL d   1     -50.143  28.466  33.399  0.00  0.00    -0.266 OA
ENDBRANCH  12  13
ENDBRANCH  11  12
ENDBRANCH   2  11
BRANCH   3  21
ATOM     21  C   UNL d   1     -52.316  25.172  33.319  0.00  0.00     0.036 A 
ATOM     22  C   UNL d   1     -52.766  25.863  33.334  0.00  0.00     0.003 A 
ATOM     23  C   UNL d   1     -53.594  25.815  33.334  0.00  0.00     0.000 A 
ATOM     24  C   UNL d   1     -53.959  25.076  33.321  0.00  0.00     0.000 A 
ATOM     25  C   UNL d   1     -53.508  24.384  33.307  0.00  0.00     0.000 A 
ATOM     26  C   UNL d   1     -52.694  24.432  33.306  0.00  0.00     0.003 A 
ENDBRANCH   3  21
TORSDOF 4
ENDMDL
