MODEL 1
REMARK VINA RESULT:      -1.5      0.000      0.000
REMARK  5 active torsions:
REMARK  status: ('A' for Active; 'I' for Inactive)
REMARK       I    between atoms: C_3  and  N_1 
REMARK    1  A    between atoms: C_8  and  C_3 
REMARK    2  A    between atoms: S_4  and  N_9 
REMARK    3  A    between atoms: C_16  and  C_5 
REMARK    4  A    between atoms: C_10  and  C_6 
REMARK    5  A    between atoms: N_9  and  C_21 
ROOT
ATOM      1  N   UNL d   1      32.649  22.164 -22.103  0.00  0.00    -0.193 N 
ATOM      2  N   UNL d   1      32.751  21.551 -22.649  0.00  0.00    -0.163 NA
ATOM      3  C   UNL d   1      32.565  22.964 -22.288  0.00  0.00     0.303 C 
ATOM      4  C   UNL d   1      32.648  21.827 -21.345  0.00  0.00     0.088 A 
ATOM      5  C   UNL d   1      32.813  20.842 -22.233  0.00  0.00     0.103 A 
ATOM      6  C   UNL d   1      32.748  21.017 -21.430  0.00  0.00     0.040 A 
ATOM      7  O   UNL d   1      32.467  23.512 -21.676  0.00  0.00    -0.263 OA
ENDROOT
BRANCH   5   8
ATOM      8  C   UNL d   1      32.919  20.095 -22.560  0.00  0.00     0.019 A 
ATOM      9  C   UNL d   1      32.997  19.433 -22.065  0.00  0.00     0.003 A 
ATOM     10  C   UNL d   1      33.103  18.691 -22.392  0.00  0.00     0.020 A 
ATOM     11  C   UNL d   1      33.132  18.595 -23.212  0.00  0.00     0.093 A 
ATOM     12  C   UNL d   1      33.053  19.257 -23.703  0.00  0.00     0.020 A 
ATOM     13  C   UNL d   1      32.946  20.009 -23.373  0.00  0.00     0.003 A 
BRANCH  11  14
ATOM     14  N   UNL d   1      33.238  17.851 -23.548  0.00  0.00    -0.162 NA
BRANCH  14  15
ATOM     15  S   UNL d   1      32.626  17.475 -23.941  0.00  0.00     0.266 S 
ATOM     16  O   UNL d   1      31.994  16.951 -24.032  0.00  0.00    -0.203 OA
ATOM     17  O   UNL d   1      32.552  17.096 -23.208  0.00  0.00    -0.203 OA
ATOM     18  C   UNL d   1      32.680  17.836 -24.677  0.00  0.00     0.165 C 
ENDBRANCH  14  15
ENDBRANCH  11  14
ENDBRANCH   5   8
BRANCH   4  19
ATOM     19  C   UNL d   1      32.561  22.237 -20.643  0.00  0.00     0.018 A 
ATOM     20  C   UNL d   1      33.234  22.626 -20.303  0.00  0.00     0.002 A 
ATOM     21  C   UNL d   1      33.078  23.016 -19.604  0.00  0.00     0.000 A 
ATOM     22  C   UNL d   1      32.330  23.034 -19.253  0.00  0.00     0.000 A 
ATOM     23  C   UNL d   1      31.706  22.672 -19.573  0.00  0.00     0.000 A 
ATOM     24  C   UNL d   1      31.805  22.258 -20.285  0.00  0.00     0.002 A 
ENDBRANCH   4  19
BRANCH   3  25
ATOM     25  C   UNL d   1      32.578  23.207 -23.063  0.00  0.00     0.158 A 
ATOM     26  O   UNL d   1      33.241  23.169 -23.581  0.00  0.00    -0.300 OA
ATOM     27  C   UNL d   1      33.002  23.475 -24.310  0.00  0.00     0.123 A 
ATOM     28  C   UNL d   1      32.215  23.698 -24.249  0.00  0.00     0.029 A 
ATOM     29  C   UNL d   1      31.967  23.527 -23.477  0.00  0.00     0.032 A 
ENDBRANCH   3  25
TORSDOF 5
ENDMDL
MODEL 2
REMARK VINA RESULT:       1.2      0.902      2.793
REMARK  5 active torsions:
REMARK  status: ('A' for Active; 'I' for Inactive)
REMARK       I    between atoms: C_3  and  N_1 
REMARK    1  A    between atoms: C_8  and  C_3 
REMARK    2  A    between atoms: S_4  and  N_9 
REMARK    3  A    between atoms: C_16  and  C_5 
REMARK    4  A    between atoms: C_10  and  C_6 
REMARK    5  A    between atoms: N_9  and  C_21 
ROOT
ATOM      1  N   UNL d   1      32.767  21.522 -22.729  0.00  0.00    -0.193 N 
ATOM      2  N   UNL d   1      32.817  20.713 -22.558  0.00  0.00    -0.163 NA
ATOM      3  C   UNL d   1      32.656  22.124 -22.176  0.00  0.00     0.303 C 
ATOM      4  C   UNL d   1      32.847  21.610 -23.550  0.00  0.00     0.088 A 
ATOM      5  C   UNL d   1      32.927  20.306 -23.266  0.00  0.00     0.103 A 
ATOM      6  C   UNL d   1      32.945  20.863 -23.875  0.00  0.00     0.040 A 
ATOM      7  O   UNL d   1      32.618  22.909 -22.436  0.00  0.00    -0.263 OA
ENDROOT
BRANCH   5   8
ATOM      8  C   UNL d   1      33.005  19.492 -23.350  0.00  0.00     0.019 A 
ATOM      9  C   UNL d   1      33.077  19.159 -24.108  0.00  0.00     0.003 A 
ATOM     10  C   UNL d   1      33.155  18.349 -24.190  0.00  0.00     0.020 A 
ATOM     11  C   UNL d   1      33.162  17.859 -23.524  0.00  0.00     0.093 A 
ATOM     12  C   UNL d   1      33.091  18.194 -22.770  0.00  0.00     0.020 A 
ATOM     13  C   UNL d   1      33.012  19.014 -22.686  0.00  0.00     0.003 A 
BRANCH  11  14
ATOM     14  N   UNL d   1      33.240  17.043 -23.600  0.00  0.00    -0.162 NA
BRANCH  14  15
ATOM     15  S   UNL d   1      32.605  16.578 -23.821  0.00  0.00     0.266 S 
ATOM     16  O   UNL d   1      31.933  16.109 -23.709  0.00  0.00    -0.203 OA
ATOM     17  O   UNL d   1      32.494  16.554 -23.001  0.00  0.00    -0.203 OA
ATOM     18  C   UNL d   1      32.693  16.587 -24.639  0.00  0.00     0.165 C 
ENDBRANCH  14  15
ENDBRANCH  11  14
ENDBRANCH   5   8
BRANCH   4  19
ATOM     19  C   UNL d   1      32.830  22.320 -23.955  0.00  0.00     0.018 A 
ATOM     20  C   UNL d   1      33.241  22.990 -23.636  0.00  0.00     0.002 A 
ATOM     21  C   UNL d   1      33.184  23.665 -24.089  0.00  0.00     0.000 A 
ATOM     22  C   UNL d   1      32.762  23.699 -24.800  0.00  0.00     0.000 A 
ATOM     23  C   UNL d   1      32.381  23.073 -25.093  0.00  0.00     0.000 A 
ATOM     24  C   UNL d   1      32.405  22.357 -24.674  0.00  0.00     0.002 A 
ENDBRANCH   4  19
BRANCH   3  25
ATOM     25  C   UNL d   1      32.587  21.946 -21.386  0.00  0.00     0.158 A 
ATOM     26  O   UNL d   1      31.880  21.713 -20.993  0.00  0.00    -0.300 OA
ATOM     27  C   UNL d   1      32.069  21.589 -20.199  0.00  0.00     0.123 A 
ATOM     28  C   UNL d   1      32.869  21.740 -20.098  0.00  0.00     0.029 A 
ATOM     29  C   UNL d   1      33.175  21.959 -20.837  0.00  0.00     0.032 A 
ENDBRANCH   3  25
TORSDOF 5
ENDMDL
