MODEL 1
REMARK VINA RESULT:     -11.3      0.000      0.000
REMARK  3 active torsions:
REMARK  status: ('A' for Active; 'I' for Inactive)
REMARK    1  A    between atoms: C_4  and  C_1 
REMARK       I    between atoms: N_7  and  C_4 
REMARK    2  A    between atoms: C_9  and  N_7 
REMARK    3  A    between atoms: N_8  and  C_11 
ROOT
ATOM      1  C   UNL d   1      52.711  34.528  53.716  0.00  0.00     0.263 C 
ATOM      2  N   UNL d   1      53.016  33.780  53.871  0.00  0.00    -0.210 NA
ATOM      3  O   UNL d   1      53.078  35.203  54.020  0.00  0.00    -0.270 OA
ENDROOT
BRANCH   1   4
ATOM      4  C   UNL d   1      52.044  34.385  53.243  0.00  0.00     0.113 A 
ATOM      5  C   UNL d   1      50.769  34.088  52.720  0.00  0.00     0.025 A 
ATOM      6  C   UNL d   1      51.504  34.271  52.829  0.00  0.00     0.074 A 
ATOM      7  C   UNL d   1      50.046  33.878  53.073  0.00  0.00     0.002 C 
ATOM      8  C   UNL d   1      50.409  34.042  51.975  0.00  0.00     0.002 C 
ATOM      9  C   UNL d   1      51.269  34.261  52.035  0.00  0.00     0.012 C 
ATOM     10  C   UNL d   1      51.706  34.280  53.521  0.00  0.00    -0.023 A 
ATOM     11  C   UNL d   1      52.124  34.466  52.283  0.00  0.00     0.172 A 
ATOM     12  C   UNL d   1      52.159  34.364  54.038  0.00  0.00    -0.018 A 
ATOM     13  C   UNL d   1      52.564  34.552  52.729  0.00  0.00     0.024 A 
ATOM     14  O   UNL d   1      52.143  34.524  51.456  0.00  0.00    -0.291 OA
ENDBRANCH   1   4
BRANCH   2  15
ATOM     15  C   UNL d   1      53.700  33.707  54.339  0.00  0.00     0.100 A 
ATOM     16  C   UNL d   1      54.069  32.972  54.397  0.00  0.00     0.082 A 
ATOM     17  C   UNL d   1      54.745  32.900  54.860  0.00  0.00     0.019 A 
ATOM     18  C   UNL d   1      55.054  33.558  55.264  0.00  0.00     0.002 A 
ATOM     19  C   UNL d   1      54.675  34.288  55.196  0.00  0.00     0.002 A 
ATOM     20  C   UNL d   1      54.000  34.363  54.735  0.00  0.00     0.021 A 
BRANCH  16  21
ATOM     21  N   UNL d   1      53.761  32.319  53.996  0.00  0.00    -0.302 N 
ATOM     22  C   UNL d   1      53.982  32.075  53.240  0.00  0.00     0.080 A 
ATOM     23  C   UNL d   1      53.538  31.398  53.049  0.00  0.00     0.021 A 
ATOM     24  C   UNL d   1      53.046  31.232  53.694  0.00  0.00     0.021 A 
ATOM     25  C   UNL d   1      53.183  31.801  54.280  0.00  0.00     0.080 A 
ENDBRANCH  16  21
ENDBRANCH   2  15
TORSDOF 3
ENDMDL
MODEL 2
REMARK VINA RESULT:     -11.2      1.456      3.480
REMARK  3 active torsions:
REMARK  status: ('A' for Active; 'I' for Inactive)
REMARK    1  A    between atoms: C_4  and  C_1 
REMARK       I    between atoms: N_7  and  C_4 
REMARK    2  A    between atoms: C_9  and  N_7 
REMARK    3  A    between atoms: N_8  and  C_11 
ROOT
ATOM      1  C   UNL d   1      52.558  32.068  52.845  0.00  0.00     0.263 C 
ATOM      2  N   UNL d   1      52.891  32.574  53.402  0.00  0.00    -0.210 NA
ATOM      3  O   UNL d   1      52.075  32.366  52.243  0.00  0.00    -0.270 OA
ENDROOT
BRANCH   1   4
ATOM      4  C   UNL d   1      52.827  31.315  53.064  0.00  0.00     0.113 A 
ATOM      5  C   UNL d   1      53.565  30.145  53.334  0.00  0.00     0.025 A 
ATOM      6  C   UNL d   1      53.026  30.681  53.253  0.00  0.00     0.074 A 
ATOM      7  C   UNL d   1      54.366  29.943  53.236  0.00  0.00     0.002 C 
ATOM      8  C   UNL d   1      53.422  29.388  53.642  0.00  0.00     0.002 C 
ATOM      9  C   UNL d   1      52.751  29.969  53.573  0.00  0.00     0.012 C 
ATOM     10  C   UNL d   1      53.268  31.302  52.974  0.00  0.00    -0.023 A 
ATOM     11  C   UNL d   1      52.197  30.680  53.431  0.00  0.00     0.172 A 
ATOM     12  C   UNL d   1      53.200  31.953  52.750  0.00  0.00    -0.018 A 
ATOM     13  C   UNL d   1      52.098  31.274  53.235  0.00  0.00     0.024 A 
ATOM     14  O   UNL d   1      51.694  30.103  53.750  0.00  0.00    -0.291 OA
ENDBRANCH   1   4
BRANCH   2  15
ATOM     15  C   UNL d   1      52.738  33.390  53.355  0.00  0.00     0.100 A 
ATOM     16  C   UNL d   1      53.129  33.902  53.870  0.00  0.00     0.082 A 
ATOM     17  C   UNL d   1      52.978  34.709  53.824  0.00  0.00     0.019 A 
ATOM     18  C   UNL d   1      52.438  35.007  53.266  0.00  0.00     0.002 A 
ATOM     19  C   UNL d   1      52.054  34.484  52.756  0.00  0.00     0.002 A 
ATOM     20  C   UNL d   1      52.203  33.678  52.800  0.00  0.00     0.021 A 
BRANCH  16  21
ATOM     21  N   UNL d   1      53.665  33.604  54.424  0.00  0.00    -0.302 N 
ATOM     22  C   UNL d   1      54.479  33.535  54.313  0.00  0.00     0.080 A 
ATOM     23  C   UNL d   1      54.806  33.211  55.006  0.00  0.00     0.021 A 
ATOM     24  C   UNL d   1      54.186  33.084  55.539  0.00  0.00     0.021 A 
ATOM     25  C   UNL d   1      53.479  33.327  55.180  0.00  0.00     0.080 A 
ENDBRANCH  16  21
ENDBRANCH   2  15
TORSDOF 3
ENDMDL
MODEL 3
REMARK VINA RESULT:     -10.8      1.323      3.282
REMARK  3 active torsions:
REMARK  status: ('A' for Active; 'I' for Inactive)
REMARK    1  A    between atoms: C_4  and  C_1 
REMARK       I    between atoms: N_7  and  C_4 
REMARK    2  A    between atoms: C_9  and  N_7 
REMARK    3  A    between atoms: N_8  and  C_11 
ROOT
ATOM      1  C   UNL d   1      53.864  32.591  53.992  0.00  0.00     0.263 C 
ATOM      2  N   UNL d   1      53.201  33.052  53.840  0.00  0.00    -0.210 NA
ATOM      3  O   UNL d   1      54.547  32.930  54.311  0.00  0.00    -0.270 OA
ENDROOT
BRANCH   1   4
ATOM      4  C   UNL d   1      53.642  31.826  53.760  0.00  0.00     0.113 A 
ATOM      5  C   UNL d   1      53.311  30.641  53.071  0.00  0.00     0.025 A 
ATOM      6  C   UNL d   1      53.454  31.183  53.592  0.00  0.00     0.074 A 
ATOM      7  C   UNL d   1      53.284  30.443  52.265  0.00  0.00     0.002 C 
ATOM      8  C   UNL d   1      53.070  29.871  53.260  0.00  0.00     0.002 C 
ATOM      9  C   UNL d   1      53.221  30.457  53.913  0.00  0.00     0.012 C 
ATOM     10  C   UNL d   1      53.657  31.816  53.310  0.00  0.00    -0.023 A 
ATOM     11  C   UNL d   1      53.418  31.176  54.440  0.00  0.00     0.172 A 
ATOM     12  C   UNL d   1      53.856  32.478  53.343  0.00  0.00    -0.018 A 
ATOM     13  C   UNL d   1      53.597  31.779  54.508  0.00  0.00     0.024 A 
ATOM     14  O   UNL d   1      53.217  30.585  54.985  0.00  0.00    -0.291 OA
ENDBRANCH   1   4
BRANCH   2  15
ATOM     15  C   UNL d   1      53.222  33.866  54.009  0.00  0.00     0.100 A 
ATOM     16  C   UNL d   1      52.580  34.337  53.793  0.00  0.00     0.082 A 
ATOM     17  C   UNL d   1      52.601  35.143  53.961  0.00  0.00     0.019 A 
ATOM     18  C   UNL d   1      53.259  35.479  54.341  0.00  0.00     0.002 A 
ATOM     19  C   UNL d   1      53.895  34.996  54.551  0.00  0.00     0.002 A 
ATOM     20  C   UNL d   1      53.877  34.192  54.386  0.00  0.00     0.021 A 
BRANCH  16  21
ATOM     21  N   UNL d   1      51.927  34.002  53.415  0.00  0.00    -0.302 N 
ATOM     22  C   UNL d   1      51.818  33.956  52.599  0.00  0.00     0.080 A 
ATOM     23  C   UNL d   1      51.090  33.579  52.459  0.00  0.00     0.021 A 
ATOM     24  C   UNL d   1      50.757  33.396  53.194  0.00  0.00     0.021 A 
ATOM     25  C   UNL d   1      51.273  33.657  53.787  0.00  0.00     0.080 A 
ENDBRANCH  16  21
ENDBRANCH   2  15
TORSDOF 3
ENDMDL
MODEL 4
REMARK VINA RESULT:     -10.3      1.132      2.126
REMARK  3 active torsions:
REMARK  status: ('A' for Active; 'I' for Inactive)
REMARK    1  A    between atoms: C_4  and  C_1 
REMARK       I    between atoms: N_7  and  C_4 
REMARK    2  A    between atoms: C_9  and  N_7 
REMARK    3  A    between atoms: N_8  and  C_11 
ROOT
ATOM      1  C   UNL d   1      52.019  33.096  53.199  0.00  0.00     0.263 C 
ATOM      2  N   UNL d   1      52.457  33.605  53.673  0.00  0.00    -0.210 NA
ATOM      3  O   UNL d   1      52.249  32.307  53.105  0.00  0.00    -0.270 OA
ENDROOT
BRANCH   1   4
ATOM      4  C   UNL d   1      51.396  33.564  52.914  0.00  0.00     0.113 A 
ATOM      5  C   UNL d   1      50.213  34.304  52.716  0.00  0.00     0.025 A 
ATOM      6  C   UNL d   1      50.891  33.956  52.653  0.00  0.00     0.074 A 
ATOM      7  C   UNL d   1      49.555  34.462  53.199  0.00  0.00     0.002 C 
ATOM      8  C   UNL d   1      49.867  34.755  52.113  0.00  0.00     0.002 C 
ATOM      9  C   UNL d   1      50.660  34.374  51.977  0.00  0.00     0.012 C 
ATOM     10  C   UNL d   1      51.091  33.591  53.243  0.00  0.00    -0.023 A 
ATOM     11  C   UNL d   1      51.451  33.920  52.016  0.00  0.00     0.172 A 
ATOM     12  C   UNL d   1      51.518  33.195  53.616  0.00  0.00    -0.018 A 
ATOM     13  C   UNL d   1      51.865  33.556  52.328  0.00  0.00     0.024 A 
ATOM     14  O   UNL d   1      51.452  34.246  51.254  0.00  0.00    -0.291 OA
ENDBRANCH   1   4
BRANCH   2  15
ATOM     15  C   UNL d   1      53.138  33.321  54.058  0.00  0.00     0.100 A 
ATOM     16  C   UNL d   1      53.605  33.847  54.488  0.00  0.00     0.082 A 
ATOM     17  C   UNL d   1      54.278  33.566  54.869  0.00  0.00     0.019 A 
ATOM     18  C   UNL d   1      54.485  32.762  54.823  0.00  0.00     0.002 A 
ATOM     19  C   UNL d   1      54.008  32.246  54.390  0.00  0.00     0.002 A 
ATOM     20  C   UNL d   1      53.337  32.524  54.008  0.00  0.00     0.021 A 
BRANCH  16  21
ATOM     21  N   UNL d   1      53.398  34.646  54.532  0.00  0.00    -0.302 N 
ATOM     22  C   UNL d   1      52.923  34.985  55.115  0.00  0.00     0.080 A 
ATOM     23  C   UNL d   1      52.857  35.798  54.951  0.00  0.00     0.021 A 
ATOM     24  C   UNL d   1      53.293  35.950  54.265  0.00  0.00     0.021 A 
ATOM     25  C   UNL d   1      53.629  35.239  54.005  0.00  0.00     0.080 A 
ENDBRANCH  16  21
ENDBRANCH   2  15
TORSDOF 3
ENDMDL
MODEL 5
REMARK VINA RESULT:      -9.9      1.329      2.549
REMARK  3 active torsions:
REMARK  status: ('A' for Active; 'I' for Inactive)
REMARK    1  A    between atoms: C_4  and  C_1 
REMARK       I    between atoms: N_7  and  C_4 
REMARK    2  A    between atoms: C_9  and  N_7 
REMARK    3  A    between atoms: N_8  and  C_11 
ROOT
ATOM      1  C   UNL d   1      52.088  32.224  52.849  0.00  0.00     0.263 C 
ATOM      2  N   UNL d   1      52.751  32.167  53.333  0.00  0.00    -0.210 NA
ATOM      3  O   UNL d   1      51.782  31.552  52.475  0.00  0.00    -0.270 OA
ENDROOT
BRANCH   1   4
ATOM      4  C   UNL d   1      51.885  33.028  52.870  0.00  0.00     0.113 A 
ATOM      5  C   UNL d   1      51.802  34.428  52.729  0.00  0.00     0.025 A 
ATOM      6  C   UNL d   1      51.695  33.691  52.903  0.00  0.00     0.074 A 
ATOM      7  C   UNL d   1      52.275  34.987  52.338  0.00  0.00     0.002 C 
ATOM      8  C   UNL d   1      51.299  35.039  52.976  0.00  0.00     0.002 C 
ATOM      9  C   UNL d   1      51.120  34.200  53.212  0.00  0.00     0.012 C 
ATOM     10  C   UNL d   1      52.197  33.248  52.633  0.00  0.00    -0.023 A 
ATOM     11  C   UNL d   1      51.093  33.298  53.356  0.00  0.00     0.172 A 
ATOM     12  C   UNL d   1      52.492  32.631  52.525  0.00  0.00    -0.018 A 
ATOM     13  C   UNL d   1      51.335  32.719  53.277  0.00  0.00     0.024 A 
ATOM     14  O   UNL d   1      50.425  33.579  53.758  0.00  0.00    -0.291 OA
ENDBRANCH   1   4
BRANCH   2  15
ATOM     15  C   UNL d   1      53.113  31.426  53.444  0.00  0.00     0.100 A 
ATOM     16  C   UNL d   1      53.769  31.371  53.941  0.00  0.00     0.082 A 
ATOM     17  C   UNL d   1      54.126  30.638  54.051  0.00  0.00     0.019 A 
ATOM     18  C   UNL d   1      53.832  29.962  53.668  0.00  0.00     0.002 A 
ATOM     19  C   UNL d   1      53.175  30.031  53.174  0.00  0.00     0.002 A 
ATOM     20  C   UNL d   1      52.816  30.761  53.062  0.00  0.00     0.021 A 
BRANCH  16  21
ATOM     21  N   UNL d   1      54.060  32.044  54.321  0.00  0.00    -0.302 N 
ATOM     22  C   UNL d   1      53.843  32.300  55.074  0.00  0.00     0.080 A 
ATOM     23  C   UNL d   1      54.267  32.996  55.240  0.00  0.00     0.021 A 
ATOM     24  C   UNL d   1      54.743  33.162  54.584  0.00  0.00     0.021 A 
ATOM     25  C   UNL d   1      54.616  32.574  54.014  0.00  0.00     0.080 A 
ENDBRANCH  16  21
ENDBRANCH   2  15
TORSDOF 3
ENDMDL
MODEL 6
REMARK VINA RESULT:      -9.0      1.454      3.920
REMARK  3 active torsions:
REMARK  status: ('A' for Active; 'I' for Inactive)
REMARK    1  A    between atoms: C_4  and  C_1 
REMARK       I    between atoms: N_7  and  C_4 
REMARK    2  A    between atoms: C_9  and  N_7 
REMARK    3  A    between atoms: N_8  and  C_11 
ROOT
ATOM      1  C   UNL d   1      54.023  32.178  54.136  0.00  0.00     0.263 C 
ATOM      2  N   UNL d   1      53.403  32.560  53.757  0.00  0.00    -0.210 NA
ATOM      3  O   UNL d   1      54.066  31.352  54.145  0.00  0.00    -0.270 OA
ENDROOT
BRANCH   1   4
ATOM      4  C   UNL d   1      54.489  32.792  54.441  0.00  0.00     0.113 A 
ATOM      5  C   UNL d   1      55.397  33.848  54.663  0.00  0.00     0.025 A 
ATOM      6  C   UNL d   1      54.866  33.300  54.719  0.00  0.00     0.074 A 
ATOM      7  C   UNL d   1      55.939  34.243  54.172  0.00  0.00     0.002 C 
ATOM      8  C   UNL d   1      55.627  34.334  55.294  0.00  0.00     0.002 C 
ATOM      9  C   UNL d   1      55.003  33.714  55.423  0.00  0.00     0.012 C 
ATOM     10  C   UNL d   1      54.747  32.941  54.104  0.00  0.00    -0.023 A 
ATOM     11  C   UNL d   1      54.390  33.038  55.371  0.00  0.00     0.172 A 
ATOM     12  C   UNL d   1      54.439  32.462  53.711  0.00  0.00    -0.018 A 
ATOM     13  C   UNL d   1      54.088  32.590  55.042  0.00  0.00     0.024 A 
ATOM     14  O   UNL d   1      54.341  33.285  56.161  0.00  0.00    -0.291 OA
ENDBRANCH   1   4
BRANCH   2  15
ATOM     15  C   UNL d   1      52.814  32.109  53.379  0.00  0.00     0.100 A 
ATOM     16  C   UNL d   1      52.162  32.493  53.052  0.00  0.00     0.082 A 
ATOM     17  C   UNL d   1      51.580  32.046  52.679  0.00  0.00     0.019 A 
ATOM     18  C   UNL d   1      51.647  31.220  52.631  0.00  0.00     0.002 A 
ATOM     19  C   UNL d   1      52.306  30.848  52.962  0.00  0.00     0.002 A 
ATOM     20  C   UNL d   1      52.888  31.290  53.335  0.00  0.00     0.021 A 
BRANCH  16  21
ATOM     21  N   UNL d   1      52.096  33.315  53.101  0.00  0.00    -0.302 N 
ATOM     22  C   UNL d   1      51.707  33.730  53.698  0.00  0.00     0.080 A 
ATOM     23  C   UNL d   1      51.775  34.542  53.533  0.00  0.00     0.021 A 
ATOM     24  C   UNL d   1      52.208  34.619  52.832  0.00  0.00     0.021 A 
ATOM     25  C   UNL d   1      52.407  33.861  52.563  0.00  0.00     0.080 A 
ENDBRANCH  16  21
ENDBRANCH   2  15
TORSDOF 3
ENDMDL
MODEL 7
REMARK VINA RESULT:      -8.8      0.983      3.359
REMARK  3 active torsions:
REMARK  status: ('A' for Active; 'I' for Inactive)
REMARK    1  A    between atoms: C_4  and  C_1 
REMARK       I    between atoms: N_7  and  C_4 
REMARK    2  A    between atoms: C_9  and  N_7 
REMARK    3  A    between atoms: N_8  and  C_11 
ROOT
ATOM      1  C   UNL d   1      52.926  34.472  53.934  0.00  0.00     0.263 C 
ATOM      2  N   UNL d   1      52.605  33.782  53.622  0.00  0.00    -0.210 NA
ATOM      3  O   UNL d   1      52.530  35.193  53.854  0.00  0.00    -0.270 OA
ENDROOT
BRANCH   1   4
ATOM      4  C   UNL d   1      53.639  34.229  54.281  0.00  0.00     0.113 A 
ATOM      5  C   UNL d   1      54.953  33.808  54.571  0.00  0.00     0.025 A 
ATOM      6  C   UNL d   1      54.221  34.029  54.595  0.00  0.00     0.074 A 
ATOM      7  C   UNL d   1      55.613  33.640  54.095  0.00  0.00     0.002 C 
ATOM      8  C   UNL d   1      55.402  33.623  55.243  0.00  0.00     0.002 C 
ATOM      9  C   UNL d   1      54.554  33.875  55.337  0.00  0.00     0.012 C 
ATOM     10  C   UNL d   1      53.933  34.163  53.947  0.00  0.00    -0.023 A 
ATOM     11  C   UNL d   1      53.687  34.147  55.244  0.00  0.00     0.172 A 
ATOM     12  C   UNL d   1      53.423  34.349  53.518  0.00  0.00    -0.018 A 
ATOM     13  C   UNL d   1      53.198  34.322  54.882  0.00  0.00     0.024 A 
ATOM     14  O   UNL d   1      53.777  34.062  56.064  0.00  0.00    -0.291 OA
ENDBRANCH   1   4
BRANCH   2  15
ATOM     15  C   UNL d   1      51.876  33.814  53.225  0.00  0.00     0.100 A 
ATOM     16  C   UNL d   1      51.556  33.120  52.915  0.00  0.00     0.082 A 
ATOM     17  C   UNL d   1      50.834  33.152  52.522  0.00  0.00     0.019 A 
ATOM     18  C   UNL d   1      50.430  33.873  52.437  0.00  0.00     0.002 A 
ATOM     19  C   UNL d   1      50.761  34.561  52.751  0.00  0.00     0.002 A 
ATOM     20  C   UNL d   1      51.481  34.532  53.144  0.00  0.00     0.021 A 
BRANCH  16  21
ATOM     21  N   UNL d   1      51.958  32.403  53.001  0.00  0.00    -0.302 N 
ATOM     22  C   UNL d   1      51.835  31.854  53.603  0.00  0.00     0.080 A 
ATOM     23  C   UNL d   1      52.354  31.216  53.479  0.00  0.00     0.021 A 
ATOM     24  C   UNL d   1      52.793  31.380  52.798  0.00  0.00     0.021 A 
ATOM     25  C   UNL d   1      52.550  32.114  52.500  0.00  0.00     0.080 A 
ENDBRANCH  16  21
ENDBRANCH   2  15
TORSDOF 3
ENDMDL
