MODEL 1
REMARK VINA RESULT:      -2.4      0.000      0.000
REMARK  6 active torsions:
REMARK  status: ('A' for Active; 'I' for Inactive)
REMARK    1  A    between atoms: S_10  and  C_3 
REMARK    2  A    between atoms: C_14  and  C_7 
REMARK    3  A    between atoms: C_18  and  S_10 
REMARK       I    between atoms: N_11  and  C_12 
REMARK    4  A    between atoms: C_13  and  N_11 
REMARK    5  A    between atoms: C_12  and  C_18 
REMARK    6  A    between atoms: O_20  and  C_16 
ROOT
ATOM      1  N   UNL d   1      33.134  21.992 -22.868  0.00  0.00    -0.186 N 
ATOM      2  N   UNL d   1      33.071  22.085 -22.058  0.00  0.00    -0.162 NA
ATOM      3  C   UNL d   1      33.181  21.315 -23.345  0.00  0.00     0.217 A 
ATOM      4  C   UNL d   1      33.163  22.647 -23.367  0.00  0.00     0.187 A 
ATOM      5  N   UNL d   1      33.237  21.564 -24.123  0.00  0.00    -0.120 NA
ATOM      6  N   UNL d   1      33.226  22.389 -24.138  0.00  0.00    -0.127 NA
ATOM      7  C   UNL d   1      33.034  22.847 -21.738  0.00  0.00     0.103 A 
ATOM      8  C   UNL d   1      33.126  23.412 -23.042  0.00  0.00     0.042 A 
ATOM      9  C   UNL d   1      33.063  23.509 -22.235  0.00  0.00     0.024 A 
ENDROOT
BRANCH   3  10
ATOM     10  S   UNL d   1      33.174  20.527 -23.099  0.00  0.00    -0.041 SA
BRANCH  10  11
ATOM     11  C   UNL d   1      33.203  19.924 -23.645  0.00  0.00     0.101 C 
BRANCH  11  12
ATOM     12  C   UNL d   1      33.066  19.153 -23.414  0.00  0.00     0.286 C 
ATOM     13  N   UNL d   1      32.786  18.589 -23.951  0.00  0.00    -0.206 NA
ATOM     14  O   UNL d   1      33.206  18.923 -22.634  0.00  0.00    -0.265 OA
BRANCH  13  15
ATOM     15  C   UNL d   1      32.647  17.809 -23.716  0.00  0.00     0.107 A 
ATOM     16  C   UNL d   1      31.929  17.445 -23.880  0.00  0.00     0.112 A 
ATOM     17  C   UNL d   1      31.798  16.661 -23.641  0.00  0.00     0.026 A 
ATOM     18  C   UNL d   1      32.389  16.259 -23.243  0.00  0.00     0.002 A 
ATOM     19  C   UNL d   1      33.110  16.611 -23.073  0.00  0.00     0.002 A 
ATOM     20  C   UNL d   1      33.241  17.395 -23.312  0.00  0.00     0.021 A 
BRANCH  16  21
ATOM     21  O   UNL d   1      31.337  17.868 -24.287  0.00  0.00    -0.327 OA
ATOM     22  C   UNL d   1      30.703  17.460 -24.636  0.00  0.00     0.181 C 
ENDBRANCH  16  21
ENDBRANCH  13  15
ENDBRANCH  11  12
ENDBRANCH  10  11
ENDBRANCH   3  10
BRANCH   7  23
ATOM     23  C   UNL d   1      32.970  22.934 -20.917  0.00  0.00     0.039 A 
ATOM     24  C   UNL d   1      33.190  23.622 -20.553  0.00  0.00     0.101 A 
ATOM     25  N   UNL d   1      33.124  23.702 -19.747  0.00  0.00    -0.242 NA
ATOM     26  C   UNL d   1      32.832  23.079 -19.288  0.00  0.00     0.099 A 
ATOM     27  C   UNL d   1      32.608  22.379 -19.658  0.00  0.00     0.021 A 
ATOM     28  C   UNL d   1      32.675  22.300 -20.478  0.00  0.00     0.005 A 
ENDBRANCH   7  23
TORSDOF 6
ENDMDL
MODEL 2
REMARK VINA RESULT:      -0.3      2.307      5.976
REMARK  6 active torsions:
REMARK  status: ('A' for Active; 'I' for Inactive)
REMARK    1  A    between atoms: S_10  and  C_3 
REMARK    2  A    between atoms: C_14  and  C_7 
REMARK    3  A    between atoms: C_18  and  S_10 
REMARK       I    between atoms: N_11  and  C_12 
REMARK    4  A    between atoms: C_13  and  N_11 
REMARK    5  A    between atoms: C_12  and  C_18 
REMARK    6  A    between atoms: O_20  and  C_16 
ROOT
ATOM      1  N   UNL d   1      31.139  16.778 -24.492  0.00  0.00    -0.186 N 
ATOM      2  N   UNL d   1      30.416  16.992 -24.176  0.00  0.00    -0.162 NA
ATOM      3  C   UNL d   1      31.858  17.185 -24.550  0.00  0.00     0.217 A 
ATOM      4  C   UNL d   1      31.247  16.035 -24.831  0.00  0.00     0.187 A 
ATOM      5  N   UNL d   1      32.393  16.690 -24.922  0.00  0.00    -0.120 NA
ATOM      6  N   UNL d   1      32.017  15.977 -25.097  0.00  0.00    -0.127 NA
ATOM      7  C   UNL d   1      29.786  16.455 -24.199  0.00  0.00     0.103 A 
ATOM      8  C   UNL d   1      30.614  15.497 -24.853  0.00  0.00     0.042 A 
ATOM      9  C   UNL d   1      29.891  15.707 -24.539  0.00  0.00     0.024 A 
ENDROOT
BRANCH   3  10
ATOM     10  S   UNL d   1      32.025  17.950 -24.288  0.00  0.00    -0.041 SA
BRANCH  10  11
ATOM     11  C   UNL d   1      32.755  18.283 -24.424  0.00  0.00     0.101 C 
BRANCH  11  12
ATOM     12  C   UNL d   1      32.903  19.054 -24.200  0.00  0.00     0.286 C 
ATOM     13  N   UNL d   1      32.795  19.300 -23.418  0.00  0.00    -0.206 NA
ATOM     14  O   UNL d   1      33.166  19.605 -24.755  0.00  0.00    -0.265 OA
BRANCH  13  15
ATOM     15  C   UNL d   1      32.945  20.080 -23.191  0.00  0.00     0.107 A 
ATOM     16  C   UNL d   1      33.067  20.269 -22.401  0.00  0.00     0.112 A 
ATOM     17  C   UNL d   1      33.217  21.056 -22.182  0.00  0.00     0.026 A 
ATOM     18  C   UNL d   1      33.241  21.635 -22.758  0.00  0.00     0.002 A 
ATOM     19  C   UNL d   1      33.120  21.460 -23.550  0.00  0.00     0.002 A 
ATOM     20  C   UNL d   1      32.970  20.673 -23.769  0.00  0.00     0.021 A 
BRANCH  16  21
ATOM     21  O   UNL d   1      33.040  19.668 -21.824  0.00  0.00    -0.327 OA
ATOM     22  C   UNL d   1      32.987  19.868 -21.020  0.00  0.00     0.181 C 
ENDBRANCH  16  21
ENDBRANCH  13  15
ENDBRANCH  11  12
ENDBRANCH  10  11
ENDBRANCH   3  10
BRANCH   7  23
ATOM     23  C   UNL d   1      29.057  16.678 -23.878  0.00  0.00     0.039 A 
ATOM     24  C   UNL d   1      28.859  17.458 -23.795  0.00  0.00     0.101 A 
ATOM     25  N   UNL d   1      28.141  17.671 -23.479  0.00  0.00    -0.242 NA
ATOM     26  C   UNL d   1      27.603  17.092 -23.237  0.00  0.00     0.099 A 
ATOM     27  C   UNL d   1      27.804  16.297 -23.321  0.00  0.00     0.021 A 
ATOM     28  C   UNL d   1      28.535  16.083 -23.643  0.00  0.00     0.005 A 
ENDBRANCH   7  23
TORSDOF 6
ENDMDL
