MODEL 1
REMARK VINA RESULT:      30.4      0.000      0.000
REMARK  4 active torsions:
REMARK  status: ('A' for Active; 'I' for Inactive)
REMARK    1  A    between atoms: C_2  and  C_1 
REMARK    2  A    between atoms: C_13  and  N_5 
REMARK    3  A    between atoms: C_16  and  C_13 
REMARK    4  A    between atoms: C_17  and  C_16 
ROOT
ATOM      1  C   UNL d   1      59.491  49.683  50.622  0.00  0.00     0.112 A 
ATOM      2  C   UNL d   1      59.668  49.692  51.426  0.00  0.00     0.176 A 
ATOM      3  N   UNL d   1      60.494  49.687  51.509  0.00  0.00    -0.285 N 
ATOM      4  C   UNL d   1      60.209  49.672  50.209  0.00  0.00     0.219 A 
ATOM      5  C   UNL d   1      60.820  49.675  50.756  0.00  0.00     0.124 A 
ATOM      6  O   UNL d   1      60.296  49.661  49.380  0.00  0.00    -0.285 OA
ATOM      7  N   UNL d   1      59.110  49.704  52.043  0.00  0.00    -0.128 N 
ENDROOT
BRANCH   1   8
ATOM      8  C   UNL d   1      58.725  49.684  50.313  0.00  0.00     0.169 A 
ATOM      9  N   UNL d   1      58.477  49.700  49.525  0.00  0.00    -0.225 NA
ATOM     10  C   UNL d   1      57.657  49.694  49.514  0.00  0.00     0.101 A 
ATOM     11  C   UNL d   1      57.115  49.705  48.894  0.00  0.00     0.021 A 
ATOM     12  C   UNL d   1      57.391  49.675  50.296  0.00  0.00     0.101 A 
ATOM     13  C   UNL d   1      56.299  49.695  49.053  0.00  0.00     0.002 A 
ATOM     14  C   UNL d   1      56.034  49.675  49.835  0.00  0.00     0.002 A 
ATOM     15  C   UNL d   1      56.583  49.665  50.458  0.00  0.00     0.021 A 
ATOM     16  N   UNL d   1      58.049  49.668  50.784  0.00  0.00    -0.225 NA
ENDBRANCH   1   8
BRANCH   3  17
ATOM     17  C   UNL d   1      60.910  49.694  52.227  0.00  0.00     0.082 C 
BRANCH  17  18
ATOM     18  C   UNL d   1      61.724  49.687  52.217  0.00  0.00     0.019 C 
BRANCH  18  19
ATOM     19  C   UNL d   1      62.142  49.566  52.918  0.00  0.00     0.002 C 
ATOM     20  C   UNL d   1      62.906  49.274  52.889  0.00  0.00     0.000 C 
ENDBRANCH  18  19
ENDBRANCH  17  18
ENDBRANCH   3  17
TORSDOF 4
ENDMDL
