MODEL 1
REMARK VINA RESULT:      -2.7      0.000      0.000
REMARK  2 active torsions:
REMARK  status: ('A' for Active; 'I' for Inactive)
REMARK    1  A    between atoms: C_4  and  N_2 
REMARK    2  A    between atoms: C_7  and  C_4 
REMARK       I    between atoms: N_8  and  C_7 
ROOT
ATOM      1  S   UNL d   1      33.239  20.000 -21.654  0.00  0.00     0.274 S 
ATOM      2  N   UNL d   1      33.239  19.747 -22.429  0.00  0.00    -0.192 N 
ATOM      3  C   UNL d   1      33.238  20.399 -22.932  0.00  0.00     0.275 A 
ATOM      4  C   UNL d   1      33.237  21.085 -22.456  0.00  0.00     0.069 A 
ATOM      5  C   UNL d   1      33.237  20.835 -21.656  0.00  0.00     0.109 A 
ATOM      6  O   UNL d   1      33.241  19.173 -21.644  0.00  0.00    -0.200 OA
ATOM      7  O   UNL d   1      33.239  20.057 -20.826  0.00  0.00    -0.200 OA
ATOM      8  O   UNL d   1      33.238  20.374 -23.771  0.00  0.00    -0.266 OA
ATOM      9  C   UNL d   1      33.235  21.873 -22.636  0.00  0.00     0.005 A 
ATOM     10  C   UNL d   1      33.237  21.382 -21.062  0.00  0.00     0.013 A 
ATOM     11  C   UNL d   1      33.234  22.440 -22.016  0.00  0.00     0.000 A 
ATOM     12  C   UNL d   1      33.235  22.196 -21.232  0.00  0.00     0.001 A 
ENDROOT
BRANCH   2  13
ATOM     13  C   UNL d   1      33.241  18.959 -22.660  0.00  0.00     0.156 C 
BRANCH  13  14
ATOM     14  C   UNL d   1      32.585  18.649 -23.055  0.00  0.00     0.283 C 
ATOM     15  N   UNL d   1      32.596  17.868 -23.301  0.00  0.00    -0.271 N 
ATOM     16  C   UNL d   1      33.240  17.380 -23.166  0.00  0.00     0.083 A 
ATOM     17  C   UNL d   1      31.931  17.560 -23.699  0.00  0.00     0.083 A 
ATOM     18  C   UNL d   1      33.236  16.599 -23.418  0.00  0.00     0.019 A 
ATOM     19  C   UNL d   1      32.587  16.285 -23.811  0.00  0.00     0.003 A 
ATOM     20  C   UNL d   1      31.936  16.777 -23.948  0.00  0.00     0.019 A 
ATOM     21  C   UNL d   1      32.582  15.490 -24.068  0.00  0.00     0.000 C 
ATOM     22  O   UNL d   1      31.924  19.140 -23.197  0.00  0.00    -0.265 OA
ENDBRANCH  13  14
ENDBRANCH   2  13
TORSDOF 2
ENDMDL
MODEL 2
REMARK VINA RESULT:      -1.8      1.173      4.220
REMARK  2 active torsions:
REMARK  status: ('A' for Active; 'I' for Inactive)
REMARK    1  A    between atoms: C_4  and  N_2 
REMARK    2  A    between atoms: C_7  and  C_4 
REMARK       I    between atoms: N_8  and  C_7 
ROOT
ATOM      1  S   UNL d   1      33.189  18.708 -22.496  0.00  0.00     0.274 S 
ATOM      2  N   UNL d   1      33.205  19.514 -22.617  0.00  0.00    -0.192 N 
ATOM      3  C   UNL d   1      33.181  19.673 -23.424  0.00  0.00     0.275 A 
ATOM      4  C   UNL d   1      33.148  18.941 -23.825  0.00  0.00     0.069 A 
ATOM      5  C   UNL d   1      33.153  18.337 -23.244  0.00  0.00     0.109 A 
ATOM      6  O   UNL d   1      33.225  19.068 -21.753  0.00  0.00    -0.200 OA
ATOM      7  O   UNL d   1      33.181  17.942 -22.176  0.00  0.00    -0.200 OA
ATOM      8  O   UNL d   1      33.188  20.435 -23.777  0.00  0.00    -0.266 OA
ATOM      9  C   UNL d   1      33.115  18.749 -24.609  0.00  0.00     0.005 A 
ATOM     10  C   UNL d   1      33.125  17.562 -23.467  0.00  0.00     0.013 A 
ATOM     11  C   UNL d   1      33.086  17.941 -24.839  0.00  0.00     0.000 A 
ATOM     12  C   UNL d   1      33.091  17.350 -24.270  0.00  0.00     0.001 A 
ENDROOT
BRANCH   2  13
ATOM     13  C   UNL d   1      33.241  20.072 -22.016  0.00  0.00     0.156 C 
BRANCH  13  14
ATOM     14  C   UNL d   1      32.681  20.679 -21.989  0.00  0.00     0.283 C 
ATOM     15  N   UNL d   1      32.690  21.208 -21.364  0.00  0.00    -0.271 N 
ATOM     16  C   UNL d   1      33.241  21.155 -20.760  0.00  0.00     0.083 A 
ATOM     17  C   UNL d   1      32.122  21.818 -21.342  0.00  0.00     0.083 A 
ATOM     18  C   UNL d   1      33.237  21.693 -20.140  0.00  0.00     0.019 A 
ATOM     19  C   UNL d   1      32.683  22.298 -20.108  0.00  0.00     0.003 A 
ATOM     20  C   UNL d   1      32.127  22.352 -20.718  0.00  0.00     0.019 A 
ATOM     21  C   UNL d   1      32.679  22.845 -19.477  0.00  0.00     0.000 C 
ATOM     22  O   UNL d   1      32.116  20.740 -22.601  0.00  0.00    -0.265 OA
ENDBRANCH  13  14
ENDBRANCH   2  13
TORSDOF 2
ENDMDL
MODEL 3
REMARK VINA RESULT:      -1.5      1.475      2.426
REMARK  2 active torsions:
REMARK  status: ('A' for Active; 'I' for Inactive)
REMARK    1  A    between atoms: C_4  and  N_2 
REMARK    2  A    between atoms: C_7  and  C_4 
REMARK       I    between atoms: N_8  and  C_7 
ROOT
ATOM      1  S   UNL d   1      32.822  22.361 -21.840  0.00  0.00     0.274 S 
ATOM      2  N   UNL d   1      32.994  21.571 -21.742  0.00  0.00    -0.192 N 
ATOM      3  C   UNL d   1      33.066  21.402 -20.940  0.00  0.00     0.275 A 
ATOM      4  C   UNL d   1      32.936  22.111 -20.519  0.00  0.00     0.069 A 
ATOM      5  C   UNL d   1      32.782  22.712 -21.082  0.00  0.00     0.109 A 
ATOM      6  O   UNL d   1      32.859  22.022 -22.593  0.00  0.00    -0.200 OA
ATOM      7  O   UNL d   1      32.648  23.117 -22.138  0.00  0.00    -0.200 OA
ATOM      8  O   UNL d   1      33.241  20.650 -20.608  0.00  0.00    -0.266 OA
ATOM      9  C   UNL d   1      32.935  22.285 -19.729  0.00  0.00     0.005 A 
ATOM     10  C   UNL d   1      32.634  23.467 -20.838  0.00  0.00     0.013 A 
ATOM     11  C   UNL d   1      32.780  23.072 -19.478  0.00  0.00     0.000 A 
ATOM     12  C   UNL d   1      32.630  23.660 -20.030  0.00  0.00     0.001 A 
ENDROOT
BRANCH   2  13
ATOM     13  C   UNL d   1      33.079  21.035 -22.358  0.00  0.00     0.156 C 
BRANCH  13  14
ATOM     14  C   UNL d   1      32.819  20.257 -22.260  0.00  0.00     0.283 C 
ATOM     15  N   UNL d   1      32.876  19.732 -22.886  0.00  0.00    -0.271 N 
ATOM     16  C   UNL d   1      33.187  19.954 -23.611  0.00  0.00     0.083 A 
ATOM     17  C   UNL d   1      32.611  18.948 -22.782  0.00  0.00     0.083 A 
ATOM     18  C   UNL d   1      33.238  19.416 -24.229  0.00  0.00     0.019 A 
ATOM     19  C   UNL d   1      32.980  18.642 -24.138  0.00  0.00     0.003 A 
ATOM     20  C   UNL d   1      32.667  18.417 -23.406  0.00  0.00     0.019 A 
ATOM     21  C   UNL d   1      33.032  18.094 -24.766  0.00  0.00     0.000 C 
ATOM     22  O   UNL d   1      32.501  20.022 -21.524  0.00  0.00    -0.265 OA
ENDBRANCH  13  14
ENDBRANCH   2  13
TORSDOF 2
ENDMDL
MODEL 4
REMARK VINA RESULT:      -1.3      1.126      4.515
REMARK  2 active torsions:
REMARK  status: ('A' for Active; 'I' for Inactive)
REMARK    1  A    between atoms: C_4  and  N_2 
REMARK    2  A    between atoms: C_7  and  C_4 
REMARK       I    between atoms: N_8  and  C_7 
ROOT
ATOM      1  S   UNL d   1      32.202  18.125 -24.298  0.00  0.00     0.274 S 
ATOM      2  N   UNL d   1      32.664  18.261 -23.641  0.00  0.00    -0.192 N 
ATOM      3  C   UNL d   1      32.787  17.554 -23.238  0.00  0.00     0.275 A 
ATOM      4  C   UNL d   1      32.388  16.952 -23.657  0.00  0.00     0.069 A 
ATOM      5  C   UNL d   1      32.022  17.310 -24.321  0.00  0.00     0.109 A 
ATOM      6  O   UNL d   1      32.377  18.933 -24.282  0.00  0.00    -0.200 OA
ATOM      7  O   UNL d   1      31.755  18.188 -24.994  0.00  0.00    -0.200 OA
ATOM      8  O   UNL d   1      33.233  17.459 -22.533  0.00  0.00    -0.266 OA
ATOM      9  C   UNL d   1      32.310  16.158 -23.530  0.00  0.00     0.005 A 
ATOM     10  C   UNL d   1      31.591  16.861 -24.835  0.00  0.00     0.013 A 
ATOM     11  C   UNL d   1      31.861  15.693 -24.067  0.00  0.00     0.000 A 
ATOM     12  C   UNL d   1      31.503  16.043 -24.717  0.00  0.00     0.001 A 
ENDROOT
BRANCH   2  13
ATOM     13  C   UNL d   1      32.957  18.997 -23.423  0.00  0.00     0.156 C 
BRANCH  13  14
ATOM     14  C   UNL d   1      32.868  19.258 -22.645  0.00  0.00     0.283 C 
ATOM     15  N   UNL d   1      32.962  20.053 -22.473  0.00  0.00    -0.271 N 
ATOM     16  C   UNL d   1      33.143  20.603 -23.054  0.00  0.00     0.083 A 
ATOM     17  C   UNL d   1      32.871  20.311 -21.685  0.00  0.00     0.083 A 
ATOM     18  C   UNL d   1      33.234  21.397 -22.866  0.00  0.00     0.019 A 
ATOM     19  C   UNL d   1      33.147  21.662 -22.094  0.00  0.00     0.003 A 
ATOM     20  C   UNL d   1      32.964  21.107 -21.508  0.00  0.00     0.019 A 
ATOM     21  C   UNL d   1      33.240  22.470 -21.903  0.00  0.00     0.000 C 
ATOM     22  O   UNL d   1      32.684  18.704 -22.048  0.00  0.00    -0.265 OA
ENDBRANCH  13  14
ENDBRANCH   2  13
TORSDOF 2
ENDMDL
MODEL 5
REMARK VINA RESULT:      -1.2      2.825      5.450
REMARK  2 active torsions:
REMARK  status: ('A' for Active; 'I' for Inactive)
REMARK    1  A    between atoms: C_4  and  N_2 
REMARK    2  A    between atoms: C_7  and  C_4 
REMARK       I    between atoms: N_8  and  C_7 
ROOT
ATOM      1  S   UNL d   1      33.159  21.533 -21.161  0.00  0.00     0.274 S 
ATOM      2  N   UNL d   1      33.202  22.335 -21.024  0.00  0.00    -0.192 N 
ATOM      3  C   UNL d   1      33.202  22.738 -21.741  0.00  0.00     0.275 A 
ATOM      4  C   UNL d   1      33.156  22.170 -22.351  0.00  0.00     0.069 A 
ATOM      5  C   UNL d   1      33.129  21.415 -21.988  0.00  0.00     0.109 A 
ATOM      6  O   UNL d   1      33.188  21.642 -20.342  0.00  0.00    -0.200 OA
ATOM      7  O   UNL d   1      33.120  20.706 -21.097  0.00  0.00    -0.200 OA
ATOM      8  O   UNL d   1      33.240  23.571 -21.839  0.00  0.00    -0.266 OA
ATOM      9  C   UNL d   1      33.136  22.233 -23.157  0.00  0.00     0.005 A 
ATOM     10  C   UNL d   1      33.083  20.749 -22.443  0.00  0.00     0.013 A 
ATOM     11  C   UNL d   1      33.089  21.539 -23.627  0.00  0.00     0.000 A 
ATOM     12  C   UNL d   1      33.062  20.800 -23.272  0.00  0.00     0.001 A 
ENDROOT
BRANCH   2  13
ATOM     13  C   UNL d   1      33.240  22.677 -20.278  0.00  0.00     0.156 C 
BRANCH  13  14
ATOM     14  C   UNL d   1      32.554  22.978 -19.932  0.00  0.00     0.283 C 
ATOM     15  N   UNL d   1      32.550  23.153 -19.132  0.00  0.00    -0.271 N 
ATOM     16  C   UNL d   1      33.209  23.037 -18.660  0.00  0.00     0.083 A 
ATOM     17  C   UNL d   1      31.854  23.457 -18.788  0.00  0.00     0.083 A 
ATOM     18  C   UNL d   1      33.190  23.217 -17.860  0.00  0.00     0.019 A 
ATOM     19  C   UNL d   1      32.510  23.517 -17.510  0.00  0.00     0.003 A 
ATOM     20  C   UNL d   1      31.843  23.634 -17.986  0.00  0.00     0.019 A 
ATOM     21  C   UNL d   1      32.490  23.700 -16.696  0.00  0.00     0.000 C 
ATOM     22  O   UNL d   1      31.877  23.099 -20.407  0.00  0.00    -0.265 OA
ENDBRANCH  13  14
ENDBRANCH   2  13
TORSDOF 2
ENDMDL
MODEL 6
REMARK VINA RESULT:      -0.6      2.880      5.215
REMARK  2 active torsions:
REMARK  status: ('A' for Active; 'I' for Inactive)
REMARK    1  A    between atoms: C_4  and  N_2 
REMARK    2  A    between atoms: C_7  and  C_4 
REMARK       I    between atoms: N_8  and  C_7 
ROOT
ATOM      1  S   UNL d   1      29.400  17.030 -24.295  0.00  0.00     0.274 S 
ATOM      2  N   UNL d   1      30.161  16.765 -24.177  0.00  0.00    -0.192 N 
ATOM      3  C   UNL d   1      30.155  16.132 -23.652  0.00  0.00     0.275 A 
ATOM      4  C   UNL d   1      29.362  15.993 -23.432  0.00  0.00     0.069 A 
ATOM      5  C   UNL d   1      28.889  16.556 -23.834  0.00  0.00     0.109 A 
ATOM      6  O   UNL d   1      29.899  17.504 -24.753  0.00  0.00    -0.200 OA
ATOM      7  O   UNL d   1      28.717  17.434 -24.538  0.00  0.00    -0.200 OA
ATOM      8  O   UNL d   1      30.828  15.704 -23.387  0.00  0.00    -0.266 OA
ATOM      9  C   UNL d   1      29.018  15.453 -22.939  0.00  0.00     0.005 A 
ATOM     10  C   UNL d   1      28.088  16.559 -23.730  0.00  0.00     0.013 A 
ATOM     11  C   UNL d   1      28.185  15.458 -22.833  0.00  0.00     0.000 A 
ATOM     12  C   UNL d   1      27.721  16.009 -23.227  0.00  0.00     0.001 A 
ENDROOT
BRANCH   2  13
ATOM     13  C   UNL d   1      30.826  17.090 -24.534  0.00  0.00     0.156 C 
BRANCH  13  14
ATOM     14  C   UNL d   1      31.472  17.309 -24.069  0.00  0.00     0.283 C 
ATOM     15  N   UNL d   1      31.901  17.979 -24.265  0.00  0.00    -0.271 N 
ATOM     16  C   UNL d   1      31.708  18.442 -24.913  0.00  0.00     0.083 A 
ATOM     17  C   UNL d   1      32.553  18.195 -23.792  0.00  0.00     0.083 A 
ATOM     18  C   UNL d   1      32.147  19.111 -25.097  0.00  0.00     0.019 A 
ATOM     19  C   UNL d   1      32.791  19.333 -24.638  0.00  0.00     0.003 A 
ATOM     20  C   UNL d   1      32.986  18.866 -23.984  0.00  0.00     0.019 A 
ATOM     21  C   UNL d   1      33.237  20.013 -24.826  0.00  0.00     0.000 C 
ATOM     22  O   UNL d   1      31.676  16.842 -23.407  0.00  0.00    -0.265 OA
ENDBRANCH  13  14
ENDBRANCH   2  13
TORSDOF 2
ENDMDL
