MODEL 1
REMARK VINA RESULT:      27.8      0.000      0.000
REMARK  2 active torsions:
REMARK  status: ('A' for Active; 'I' for Inactive)
REMARK    1  A    between atoms: C_7  and  C_1 
REMARK    2  A    between atoms: O_16  and  C_12 
ROOT
ATOM      1  C   UNL d   1     -51.713  25.216  33.334  0.00  0.00     0.105 A 
ATOM      2  C   UNL d   1     -50.464  26.326  33.322  0.00  0.00     0.064 A 
ATOM      3  O   UNL d   1     -51.883  26.031  33.335  0.00  0.00    -0.307 OA
ATOM      4  C   UNL d   1     -50.299  25.513  33.321  0.00  0.00     0.200 A 
ATOM      5  C   UNL d   1     -51.262  26.581  33.329  0.00  0.00     0.103 A 
ATOM      6  C   UNL d   1     -50.917  24.954  33.327  0.00  0.00     0.067 A 
ATOM      7  C   UNL d   1     -49.853  26.875  33.316  0.00  0.00     0.029 A 
ATOM      8  O   UNL d   1     -49.515  25.254  33.314  0.00  0.00    -0.286 OA
ATOM      9  C   UNL d   1     -51.427  27.395  33.330  0.00  0.00     0.027 A 
ATOM     10  C   UNL d   1     -50.021  27.680  33.317  0.00  0.00     0.094 A 
ATOM     11  C   UNL d   1     -50.805  27.939  33.324  0.00  0.00     0.026 A 
ENDROOT
BRANCH   1  12
ATOM     12  C   UNL d   1     -52.320  24.666  33.340  0.00  0.00     0.050 A 
ATOM     13  C   UNL d   1     -52.144  23.865  33.370  0.00  0.00     0.142 A 
ATOM     14  F   UNL d   1     -51.347  23.622  33.393  0.00  0.00    -0.204 F 
ATOM     15  C   UNL d   1     -52.750  23.306  33.376  0.00  0.00     0.030 A 
ATOM     16  C   UNL d   1     -53.534  23.552  33.353  0.00  0.00     0.002 A 
ATOM     17  C   UNL d   1     -53.715  24.357  33.323  0.00  0.00     0.000 A 
ATOM     18  C   UNL d   1     -53.111  24.915  33.317  0.00  0.00     0.004 A 
ENDBRANCH   1  12
BRANCH  10  19
ATOM     19  O   UNL d   1     -49.406  28.228  33.311  0.00  0.00    -0.328 OA
ATOM     20  C   UNL d   1     -49.243  28.672  33.987  0.00  0.00     0.181 C 
ENDBRANCH  10  19
TORSDOF 2
ENDMDL
MODEL 2
REMARK VINA RESULT:      28.1      0.607      1.269
REMARK  2 active torsions:
REMARK  status: ('A' for Active; 'I' for Inactive)
REMARK    1  A    between atoms: C_7  and  C_1 
REMARK    2  A    between atoms: O_16  and  C_12 
ROOT
ATOM      1  C   UNL d   1     -51.812  25.317  33.328  0.00  0.00     0.105 A 
ATOM      2  C   UNL d   1     -50.968  26.759  33.320  0.00  0.00     0.064 A 
ATOM      3  O   UNL d   1     -50.980  25.309  33.323  0.00  0.00    -0.307 OA
ATOM      4  C   UNL d   1     -51.797  26.762  33.325  0.00  0.00     0.200 A 
ATOM      5  C   UNL d   1     -50.562  26.026  33.319  0.00  0.00     0.103 A 
ATOM      6  C   UNL d   1     -52.225  26.047  33.330  0.00  0.00     0.067 A 
ATOM      7  C   UNL d   1     -50.548  27.465  33.316  0.00  0.00     0.029 A 
ATOM      8  O   UNL d   1     -52.204  27.480  33.327  0.00  0.00    -0.286 OA
ATOM      9  C   UNL d   1     -49.731  26.022  33.313  0.00  0.00     0.027 A 
ATOM     10  C   UNL d   1     -49.726  27.457  33.310  0.00  0.00     0.094 A 
ATOM     11  C   UNL d   1     -49.319  26.739  33.309  0.00  0.00     0.026 A 
ENDROOT
BRANCH   1  12
ATOM     12  C   UNL d   1     -52.233  24.615  33.332  0.00  0.00     0.050 A 
ATOM     13  C   UNL d   1     -51.833  23.899  33.357  0.00  0.00     0.142 A 
ATOM     14  F   UNL d   1     -50.999  23.898  33.377  0.00  0.00    -0.204 F 
ATOM     15  C   UNL d   1     -52.250  23.189  33.361  0.00  0.00     0.030 A 
ATOM     16  C   UNL d   1     -53.072  23.196  33.341  0.00  0.00     0.002 A 
ATOM     17  C   UNL d   1     -53.479  23.914  33.316  0.00  0.00     0.000 A 
ATOM     18  C   UNL d   1     -53.063  24.624  33.312  0.00  0.00     0.004 A 
ENDBRANCH   1  12
BRANCH  10  19
ATOM     19  O   UNL d   1     -49.308  28.167  33.306  0.00  0.00    -0.328 OA
ATOM     20  C   UNL d   1     -49.017  28.479  34.012  0.00  0.00     0.181 C 
ENDBRANCH  10  19
TORSDOF 2
ENDMDL
