MODEL 1
REMARK VINA RESULT:      83.8      0.000      0.000
REMARK  5 active torsions:
REMARK  status: ('A' for Active; 'I' for Inactive)
REMARK    1  A    between atoms: N_11  and  C_4 
REMARK    2  A    between atoms: C_18  and  N_15 
REMARK    3  A    between atoms: C_21  and  C_18 
REMARK    4  A    between atoms: O_28  and  C_23 
REMARK    5  A    between atoms: C_31  and  O_28 
ROOT
ATOM      1  N   UNL d   1     -48.350  29.749  34.676  0.00  0.00    -0.195 N 
ATOM      2  C   UNL d   1     -47.879  30.350  34.939  0.00  0.00     0.168 A 
ATOM      3  C   UNL d   1     -47.955  31.086  34.641  0.00  0.00     0.073 A 
ATOM      4  C   UNL d   1     -48.260  29.020  34.985  0.00  0.00     0.153 A 
ATOM      5  N   UNL d   1     -48.977  30.615  33.817  0.00  0.00    -0.143 NA
ATOM      6  C   UNL d   1     -48.506  31.216  34.079  0.00  0.00     0.185 A 
ATOM      7  N   UNL d   1     -47.329  30.209  35.503  0.00  0.00    -0.227 NA
ATOM      8  C   UNL d   1     -47.488  31.682  34.901  0.00  0.00     0.007 A 
ATOM      9  N   UNL d   1     -48.595  31.956  33.768  0.00  0.00    -0.225 NA
ATOM     10  C   UNL d   1     -47.717  28.875  35.544  0.00  0.00     0.057 A 
ATOM     11  C   UNL d   1     -47.565  32.418  34.602  0.00  0.00     0.019 A 
ATOM     12  C   UNL d   1     -47.246  29.477  35.806  0.00  0.00     0.086 A 
ATOM     13  C   UNL d   1     -48.123  32.558  34.031  0.00  0.00     0.083 A 
ATOM     14  C   UNL d   1     -46.937  31.538  35.467  0.00  0.00     0.000 C 
ATOM     15  C   UNL d   1     -46.675  29.326  36.393  0.00  0.00     0.021 C 
ATOM     16  C   UNL d   1     -48.204  33.288  33.730  0.00  0.00     0.021 C 
ENDROOT
BRANCH   4  17
ATOM     17  N   UNL d   1     -48.750  28.404  34.709  0.00  0.00    -0.286 N 
ATOM     18  C   UNL d   1     -48.127  28.009  34.335  0.00  0.00     0.101 A 
ATOM     19  C   UNL d   1     -48.277  27.305  33.934  0.00  0.00     0.100 A 
ATOM     20  N   UNL d   1     -49.051  26.994  33.906  0.00  0.00    -0.300 N 
ATOM     21  C   UNL d   1     -49.672  27.403  34.287  0.00  0.00     0.100 A 
ATOM     22  C   UNL d   1     -49.518  28.113  34.691  0.00  0.00     0.101 A 
BRANCH  20  23
ATOM     23  C   UNL d   1     -49.208  26.282  33.501  0.00  0.00     0.080 C 
BRANCH  23  24
ATOM     24  C   UNL d   1     -49.986  26.000  33.452  0.00  0.00     0.018 A 
ATOM     25  C   UNL d   1     -50.627  26.529  33.418  0.00  0.00     0.004 A 
ATOM     26  C   UNL d   1     -51.413  26.243  33.369  0.00  0.00     0.025 A 
ATOM     27  C   UNL d   1     -51.556  25.420  33.354  0.00  0.00     0.100 A 
ATOM     28  C   UNL d   1     -50.907  24.880  33.388  0.00  0.00     0.025 A 
ATOM     29  C   UNL d   1     -50.131  25.180  33.437  0.00  0.00     0.004 A 
BRANCH  27  30
ATOM     30  O   UNL d   1     -52.329  25.130  33.306  0.00  0.00    -0.305 OA
BRANCH  30  31
ATOM     31  C   UNL d   1     -52.506  24.362  33.583  0.00  0.00     0.123 C 
ATOM     32  C   UNL d   1     -53.237  24.213  33.962  0.00  0.00     0.029 C 
ENDBRANCH  30  31
ENDBRANCH  27  30
ENDBRANCH  23  24
ENDBRANCH  20  23
ENDBRANCH   4  17
TORSDOF 5
ENDMDL
