MODEL 1
REMARK VINA RESULT:      11.7      0.000      0.000
REMARK  8 active torsions:
REMARK  status: ('A' for Active; 'I' for Inactive)
REMARK    1  A    between atoms: N_6  and  C_1 
REMARK       I    between atoms: C_2  and  N_3 
REMARK    2  A    between atoms: C_7  and  C_2 
REMARK    3  A    between atoms: N_3  and  C_4 
REMARK    4  A    between atoms: C_4  and  N_6 
REMARK    5  A    between atoms: C_10  and  C_8 
REMARK    6  A    between atoms: C_12  and  C_10 
REMARK    7  A    between atoms: O_18  and  C_12 
REMARK    8  A    between atoms: C_21  and  O_18 
ROOT
ATOM      1  C   UNL d   1      46.390 -16.721  43.383  0.00  0.00     0.277 C 
ATOM      2  S   UNL d   1      46.619 -16.640  42.593  0.00  0.00    -0.023 SA
ENDROOT
BRANCH   1   3
ATOM      3  N   UNL d   1      46.485 -17.451  43.757  0.00  0.00    -0.168 NA
ATOM      4  C   UNL d   1      46.355 -18.151  43.343  0.00  0.00     0.282 C 
ATOM      5  O   UNL d   1      46.130 -18.132  42.554  0.00  0.00    -0.265 OA
BRANCH   4   6
ATOM      6  C   UNL d   1      46.452 -18.882  43.726  0.00  0.00     0.064 A 
ATOM      7  C   UNL d   1      46.456 -19.575  43.286  0.00  0.00     0.039 A 
ATOM      8 BR   UNL d   1      46.365 -19.553  42.472  0.00  0.00    -0.049 Br
ATOM      9  C   UNL d   1      46.554 -20.298  43.674  0.00  0.00     0.007 A 
ATOM     10  C   UNL d   1      46.647 -20.327  44.498  0.00  0.00     0.001 A 
ATOM     11  C   UNL d   1      46.641 -19.617  44.929  0.00  0.00     0.000 A 
ATOM     12  C   UNL d   1      46.544 -18.896  44.544  0.00  0.00     0.005 A 
ENDBRANCH   4   6
ENDBRANCH   1   3
BRANCH   1  13
ATOM     13  N   UNL d   1      46.073 -16.082  43.788  0.00  0.00    -0.347 NA
BRANCH  13  14
ATOM     14  C   UNL d   1      45.752 -15.438  44.196  0.00  0.00     0.248 A 
ATOM     15  N   UNL d   1      46.096 -14.687  44.272  0.00  0.00    -0.210 NA
ATOM     16  C   UNL d   1      45.585 -14.222  44.722  0.00  0.00     0.096 A 
ATOM     17  C   UNL d   1      44.925 -14.683  44.925  0.00  0.00     0.059 A 
ATOM     18  S   UNL d   1      45.035 -15.428  44.598  0.00  0.00    -0.033 SA
BRANCH  16  19
ATOM     19  C   UNL d   1      45.704 -13.437  44.934  0.00  0.00     0.088 C 
BRANCH  19  20
ATOM     20  C   UNL d   1      45.855 -12.862  44.361  0.00  0.00     0.302 C 
ATOM     21  O   UNL d   1      46.353 -12.232  44.543  0.00  0.00    -0.259 OA
BRANCH  20  22
ATOM     22  O   UNL d   1      45.513 -12.916  43.617  0.00  0.00    -0.271 OA
BRANCH  22  23
ATOM     23  C   UNL d   1      45.319 -12.225  43.204  0.00  0.00     0.126 C 
ATOM     24  C   UNL d   1      44.585 -12.165  42.838  0.00  0.00     0.029 C 
ENDBRANCH  22  23
ENDBRANCH  20  22
ENDBRANCH  19  20
ENDBRANCH  16  19
ENDBRANCH  13  14
ENDBRANCH   1  13
TORSDOF 8
ENDMDL
