MODEL 1
REMARK VINA RESULT:       1.4      0.000      0.000
REMARK  4 active torsions:
REMARK  status: ('A' for Active; 'I' for Inactive)
REMARK    1  A    between atoms: N_10  and  C_3 
REMARK    2  A    between atoms: C_12  and  C_5 
REMARK    3  A    between atoms: C_20  and  N_11 
REMARK    4  A    between atoms: C_24  and  C_20 
ROOT
ATOM      1  N   UNL d   1      32.547  20.182 -22.210  0.00  0.00    -0.196 N 
ATOM      2  C   UNL d   1      32.594  20.996 -22.053  0.00  0.00     0.167 A 
ATOM      3  C   UNL d   1      32.686  19.915 -22.975  0.00  0.00     0.152 A 
ATOM      4  N   UNL d   1      32.229  19.944 -20.859  0.00  0.00    -0.163 NA
ATOM      5  C   UNL d   1      32.460  21.280 -21.307  0.00  0.00     0.055 A 
ATOM      6  N   UNL d   1      32.779  21.524 -22.663  0.00  0.00    -0.227 NA
ATOM      7  C   UNL d   1      32.869  20.433 -23.578  0.00  0.00     0.052 A 
ATOM      8  C   UNL d   1      32.275  20.753 -20.702  0.00  0.00     0.104 A 
ATOM      9  C   UNL d   1      32.916  21.242 -23.421  0.00  0.00     0.086 A 
ATOM     10  C   UNL d   1      33.006  20.143 -24.341  0.00  0.00     0.004 A 
ATOM     11  C   UNL d   1      32.140  21.023 -19.954  0.00  0.00     0.023 C 
ATOM     12  C   UNL d   1      33.100  21.769 -24.027  0.00  0.00     0.019 A 
ATOM     13  C   UNL d   1      33.193  20.681 -24.953  0.00  0.00     0.000 A 
ATOM     14  C   UNL d   1      33.240  21.490 -24.797  0.00  0.00     0.002 A 
ENDROOT
BRANCH   3  15
ATOM     15  N   UNL d   1      32.639  19.089 -23.138  0.00  0.00    -0.286 N 
ATOM     16  C   UNL d   1      31.903  18.837 -23.487  0.00  0.00     0.101 A 
ATOM     17  C   UNL d   1      31.780  18.018 -23.681  0.00  0.00     0.100 A 
ATOM     18  N   UNL d   1      32.394  17.449 -23.527  0.00  0.00    -0.297 N 
ATOM     19  C   UNL d   1      33.119  17.700 -23.183  0.00  0.00     0.100 A 
ATOM     20  C   UNL d   1      33.241  18.523 -22.989  0.00  0.00     0.101 A 
BRANCH  18  21
ATOM     21  C   UNL d   1      32.272  16.634 -23.720  0.00  0.00     0.126 C 
BRANCH  21  22
ATOM     22  C   UNL d   1      32.181  16.383 -24.525  0.00  0.00     0.253 C 
ATOM     23  O   UNL d   1      31.794  15.660 -24.713  0.00  0.00    -0.281 OA
ENDBRANCH  21  22
ENDBRANCH  18  21
ENDBRANCH   3  15
BRANCH   5  24
ATOM     24  C   UNL d   1      32.507  22.088 -21.151  0.00  0.00     0.004 A 
ATOM     25  C   UNL d   1      33.193  22.396 -20.840  0.00  0.00     0.000 A 
ATOM     26  C   UNL d   1      33.240  23.205 -20.683  0.00  0.00     0.000 A 
ATOM     27  C   UNL d   1      32.600  23.693 -20.840  0.00  0.00     0.000 A 
ATOM     28  C   UNL d   1      31.913  23.373 -21.153  0.00  0.00     0.000 A 
ATOM     29  C   UNL d   1      31.866  22.564 -21.310  0.00  0.00     0.000 A 
ENDBRANCH   5  24
TORSDOF 4
ENDMDL
MODEL 2
REMARK VINA RESULT:       4.2      2.351      5.497
REMARK  4 active torsions:
REMARK  status: ('A' for Active; 'I' for Inactive)
REMARK    1  A    between atoms: N_10  and  C_3 
REMARK    2  A    between atoms: C_12  and  C_5 
REMARK    3  A    between atoms: C_20  and  N_11 
REMARK    4  A    between atoms: C_24  and  C_20 
ROOT
ATOM      1  N   UNL d   1      31.028  18.293 -23.902  0.00  0.00    -0.196 N 
ATOM      2  C   UNL d   1      30.633  17.578 -24.049  0.00  0.00     0.167 A 
ATOM      3  C   UNL d   1      31.774  18.273 -23.558  0.00  0.00     0.152 A 
ATOM      4  N   UNL d   1      29.935  19.002 -24.439  0.00  0.00    -0.163 NA
ATOM      5  C   UNL d   1      29.898  17.575 -24.387  0.00  0.00     0.055 A 
ATOM      6  N   UNL d   1      30.992  16.860 -23.849  0.00  0.00    -0.227 NA
ATOM      7  C   UNL d   1      32.130  17.566 -23.360  0.00  0.00     0.052 A 
ATOM      8  C   UNL d   1      29.542  18.291 -24.585  0.00  0.00     0.104 A 
ATOM      9  C   UNL d   1      31.737  16.855 -23.506  0.00  0.00     0.086 A 
ATOM     10  C   UNL d   1      32.883  17.568 -23.014  0.00  0.00     0.004 A 
ATOM     11  C   UNL d   1      28.810  18.302 -24.922  0.00  0.00     0.023 C 
ATOM     12  C   UNL d   1      32.093  16.140 -23.308  0.00  0.00     0.019 A 
ATOM     13  C   UNL d   1      33.241  16.839 -22.814  0.00  0.00     0.000 A 
ATOM     14  C   UNL d   1      32.848  16.129 -22.960  0.00  0.00     0.002 A 
ENDROOT
BRANCH   3  15
ATOM     15  N   UNL d   1      32.179  18.997 -23.408  0.00  0.00    -0.286 N 
ATOM     16  C   UNL d   1      31.847  19.466 -22.778  0.00  0.00     0.101 A 
ATOM     17  C   UNL d   1      32.200  20.211 -22.567  0.00  0.00     0.100 A 
ATOM     18  N   UNL d   1      32.887  20.488 -22.985  0.00  0.00    -0.297 N 
ATOM     19  C   UNL d   1      33.213  20.024 -23.606  0.00  0.00     0.100 A 
ATOM     20  C   UNL d   1      32.857  19.276 -23.817  0.00  0.00     0.101 A 
BRANCH  18  21
ATOM     21  C   UNL d   1      33.239  21.228 -22.776  0.00  0.00     0.126 C 
BRANCH  21  22
ATOM     22  C   UNL d   1      32.991  21.651 -22.084  0.00  0.00     0.253 C 
ATOM     23  O   UNL d   1      33.199  22.458 -21.970  0.00  0.00    -0.281 OA
ENDBRANCH  21  22
ENDBRANCH  18  21
ENDBRANCH   3  15
BRANCH   5  24
ATOM     24  C   UNL d   1      29.505  16.865 -24.532  0.00  0.00     0.004 A 
ATOM     25  C   UNL d   1      28.745  16.764 -24.258  0.00  0.00     0.000 A 
ATOM     26  C   UNL d   1      28.352  16.054 -24.404  0.00  0.00     0.000 A 
ATOM     27  C   UNL d   1      28.725  15.455 -24.822  0.00  0.00     0.000 A 
ATOM     28  C   UNL d   1      29.490  15.566 -25.094  0.00  0.00     0.000 A 
ATOM     29  C   UNL d   1      29.883  16.276 -24.949  0.00  0.00     0.000 A 
ENDBRANCH   5  24
TORSDOF 4
ENDMDL
