MODEL 1
REMARK VINA RESULT:      -9.7      0.000      0.000
REMARK  6 active torsions:
REMARK  status: ('A' for Active; 'I' for Inactive)
REMARK    1  A    between atoms: C_7  and  C_1 
REMARK    2  A    between atoms: C_9  and  N_2 
REMARK    3  A    between atoms: C_18  and  C_7 
REMARK    4  A    between atoms: C_8  and  C_9 
REMARK       I    between atoms: N_14  and  C_8 
REMARK    5  A    between atoms: C_16  and  N_14 
REMARK    6  A    between atoms: C_29  and  C_23 
ROOT
ATOM      1  C   UNL d   1      52.795  34.506  53.662  0.00  0.00     0.095 A 
ATOM      2  N   UNL d   1      52.214  33.447  52.865  0.00  0.00    -0.300 N 
ATOM      3  C   UNL d   1      52.075  34.908  53.653  0.00  0.00     0.202 A 
ATOM      4  C   UNL d   1      52.872  33.770  53.267  0.00  0.00     0.087 A 
ATOM      5  C   UNL d   1      51.417  34.584  53.250  0.00  0.00     0.055 A 
ATOM      6  C   UNL d   1      51.493  33.847  52.855  0.00  0.00     0.067 A 
ATOM      7  C   UNL d   1      50.848  33.523  52.457  0.00  0.00     0.018 A 
ATOM      8  C   UNL d   1      50.696  34.985  53.241  0.00  0.00     0.005 A 
ATOM      9  O   UNL d   1      51.999  35.634  54.042  0.00  0.00    -0.286 OA
ATOM     10  C   UNL d   1      50.051  34.660  52.843  0.00  0.00     0.000 A 
ATOM     11  C   UNL d   1      50.128  33.924  52.448  0.00  0.00     0.002 A 
ENDROOT
BRANCH   2  12
ATOM     12  C   UNL d   1      52.289  32.721  52.475  0.00  0.00     0.144 C 
BRANCH  12  13
ATOM     13  C   UNL d   1      52.410  32.030  52.910  0.00  0.00     0.297 C 
ATOM     14  N   UNL d   1      52.986  31.486  52.672  0.00  0.00    -0.207 NA
ATOM     15  O   UNL d   1      51.954  31.881  53.581  0.00  0.00    -0.264 OA
BRANCH  14  16
ATOM     16  C   UNL d   1      53.106  30.795  53.106  0.00  0.00     0.086 A 
ATOM     17  C   UNL d   1      52.622  30.140  52.977  0.00  0.00     0.031 A 
ATOM     18  C   UNL d   1      52.734  29.449  53.403  0.00  0.00     0.059 A 
ATOM     19 CL   UNL d   1      52.247  28.794  53.271  0.00  0.00    -0.082 Cl
ATOM     20  C   UNL d   1      53.347  29.413  53.975  0.00  0.00     0.011 A 
ATOM     21  C   UNL d   1      53.830  30.069  54.104  0.00  0.00     0.002 A 
ATOM     22  C   UNL d   1      53.464  28.722  54.406  0.00  0.00     0.001 C 
ATOM     23  C   UNL d   1      53.710  30.760  53.670  0.00  0.00     0.019 A 
ENDBRANCH  14  16
ENDBRANCH  12  13
ENDBRANCH   2  12
BRANCH   1  24
ATOM     24  C   UNL d   1      53.454  34.819  54.058  0.00  0.00     0.200 C 
ATOM     25  O   UNL d   1      53.656  35.625  53.936  0.00  0.00    -0.286 OA
BRANCH  24  26
ATOM     26  C   UNL d   1      53.906  34.352  54.565  0.00  0.00     0.039 A 
ATOM     27  C   UNL d   1      54.668  34.126  54.335  0.00  0.00     0.003 A 
ATOM     28  C   UNL d   1      55.120  33.659  54.842  0.00  0.00     0.000 A 
ATOM     29  C   UNL d   1      54.811  33.424  55.569  0.00  0.00     0.000 A 
ATOM     30  C   UNL d   1      54.048  33.655  55.790  0.00  0.00     0.000 A 
ATOM     31  C   UNL d   1      53.596  34.122  55.282  0.00  0.00     0.003 A 
ENDBRANCH  24  26
ENDBRANCH   1  24
BRANCH  10  32
ATOM     32  C   UNL d   1      49.329  35.062  52.833  0.00  0.00     0.000 C 
ATOM     33  C   UNL d   1      48.846  35.029  52.161  0.00  0.00     0.000 C 
ENDBRANCH  10  32
TORSDOF 6
ENDMDL
MODEL 2
REMARK VINA RESULT:      -9.3      1.623      4.309
REMARK  6 active torsions:
REMARK  status: ('A' for Active; 'I' for Inactive)
REMARK    1  A    between atoms: C_7  and  C_1 
REMARK    2  A    between atoms: C_9  and  N_2 
REMARK    3  A    between atoms: C_18  and  C_7 
REMARK    4  A    between atoms: C_8  and  C_9 
REMARK       I    between atoms: N_14  and  C_8 
REMARK    5  A    between atoms: C_16  and  N_14 
REMARK    6  A    between atoms: C_29  and  C_23 
ROOT
ATOM      1  C   UNL d   1      53.794  33.017  53.766  0.00  0.00     0.095 A 
ATOM      2  N   UNL d   1      52.770  32.472  52.900  0.00  0.00    -0.300 N 
ATOM      3  C   UNL d   1      53.979  32.256  54.025  0.00  0.00     0.202 A 
ATOM      4  C   UNL d   1      53.186  33.132  53.200  0.00  0.00     0.087 A 
ATOM      5  C   UNL d   1      53.562  31.595  53.725  0.00  0.00     0.055 A 
ATOM      6  C   UNL d   1      52.954  31.710  53.159  0.00  0.00     0.067 A 
ATOM      7  C   UNL d   1      52.541  31.063  52.859  0.00  0.00     0.018 A 
ATOM      8  C   UNL d   1      53.748  30.834  53.984  0.00  0.00     0.005 A 
ATOM      9  O   UNL d   1      54.578  32.142  54.584  0.00  0.00    -0.286 OA
ATOM     10  C   UNL d   1      53.334  30.187  53.684  0.00  0.00     0.000 A 
ATOM     11  C   UNL d   1      52.725  30.303  53.118  0.00  0.00     0.002 A 
ENDROOT
BRANCH   2  12
ATOM     12  C   UNL d   1      52.170  32.585  52.342  0.00  0.00     0.144 C 
BRANCH  12  13
ATOM     13  C   UNL d   1      51.503  33.028  52.537  0.00  0.00     0.297 C 
ATOM     14  N   UNL d   1      51.260  33.649  52.048  0.00  0.00    -0.207 NA
ATOM     15  O   UNL d   1      51.077  32.852  53.221  0.00  0.00    -0.264 OA
BRANCH  14  16
ATOM     16  C   UNL d   1      50.592  34.092  52.243  0.00  0.00     0.086 A 
ATOM     17  C   UNL d   1      49.992  34.198  51.687  0.00  0.00     0.031 A 
ATOM     18  C   UNL d   1      49.325  34.636  51.872  0.00  0.00     0.059 A 
ATOM     19 CL   UNL d   1      48.725  34.740  51.311  0.00  0.00    -0.082 Cl
ATOM     20  C   UNL d   1      49.257  34.979  52.634  0.00  0.00     0.011 A 
ATOM     21  C   UNL d   1      49.857  34.873  53.190  0.00  0.00     0.002 A 
ATOM     22  C   UNL d   1      48.589  35.421  52.826  0.00  0.00     0.001 C 
ATOM     23  C   UNL d   1      50.525  34.430  52.995  0.00  0.00     0.019 A 
ENDBRANCH  14  16
ENDBRANCH  12  13
ENDBRANCH   2  12
BRANCH   1  24
ATOM     24  C   UNL d   1      54.201  33.678  54.058  0.00  0.00     0.200 C 
ATOM     25  O   UNL d   1      55.039  33.692  54.011  0.00  0.00    -0.286 OA
BRANCH  24  26
ATOM     26  C   UNL d   1      53.795  34.315  54.390  0.00  0.00     0.039 A 
ATOM     27  C   UNL d   1      53.727  35.018  53.960  0.00  0.00     0.003 A 
ATOM     28  C   UNL d   1      53.321  35.655  54.292  0.00  0.00     0.000 A 
ATOM     29  C   UNL d   1      52.990  35.585  55.044  0.00  0.00     0.000 A 
ATOM     30  C   UNL d   1      53.064  34.877  55.465  0.00  0.00     0.000 A 
ATOM     31  C   UNL d   1      53.470  34.240  55.133  0.00  0.00     0.003 A 
ENDBRANCH  24  26
ENDBRANCH   1  24
BRANCH  10  32
ATOM     32  C   UNL d   1      53.519  29.425  53.943  0.00  0.00     0.000 C 
ATOM     33  C   UNL d   1      53.070  29.071  54.544  0.00  0.00     0.000 C 
ENDBRANCH  10  32
TORSDOF 6
ENDMDL
