MODEL 1
REMARK VINA RESULT:      82.3      0.000      0.000
REMARK  11 active torsions:
REMARK  status: ('A' for Active; 'I' for Inactive)
REMARK    1  A    between atoms: C_4  and  C_1 
REMARK    2  A    between atoms: C_10  and  C_2 
REMARK    3  A    between atoms: C_16  and  C_9 
REMARK    4  A    between atoms: O_24  and  C_10 
REMARK    5  A    between atoms: O_18  and  C_14 
REMARK    6  A    between atoms: O_25  and  C_16 
REMARK    7  A    between atoms: C_26  and  C_17 
REMARK    8  A    between atoms: C_19  and  O_18 
REMARK    9  A    between atoms: C_29  and  O_24 
REMARK   10  A    between atoms: C_28  and  O_25 
REMARK   11  A    between atoms: C_30  and  C_26 
ROOT
ATOM      1  C   UNL d   1     -49.754  27.555  34.826  0.00  0.00     0.090 A 
ATOM      2  C   UNL d   1     -49.830  27.551  35.647  0.00  0.00     0.168 A 
ATOM      3  C   UNL d   1     -49.211  28.072  34.466  0.00  0.00     0.201 A 
ATOM      4  C   UNL d   1     -48.744  28.583  34.926  0.00  0.00     0.062 A 
ATOM      5  O   UNL d   1     -49.364  28.062  36.108  0.00  0.00    -0.301 OA
ATOM      6  C   UNL d   1     -48.821  28.578  35.747  0.00  0.00     0.105 A 
ATOM      7  C   UNL d   1     -48.214  29.087  34.565  0.00  0.00     0.007 A 
ATOM      8  C   UNL d   1     -48.367  29.077  36.206  0.00  0.00     0.050 A 
ATOM      9  C   UNL d   1     -47.824  29.593  35.846  0.00  0.00     0.105 A 
ATOM     10  C   UNL d   1     -47.748  29.598  35.025  0.00  0.00     0.023 A 
ATOM     11  O   UNL d   1     -49.134  28.076  33.644  0.00  0.00    -0.286 OA
ENDROOT
BRANCH   1  12
ATOM     12  C   UNL d   1     -50.219  27.045  34.366  0.00  0.00     0.105 A 
ATOM     13  O   UNL d   1     -50.011  26.257  34.229  0.00  0.00    -0.302 OA
ATOM     14  C   UNL d   1     -50.590  25.930  33.761  0.00  0.00     0.163 A 
ATOM     15  C   UNL d   1     -51.153  26.497  33.604  0.00  0.00     0.032 A 
ATOM     16  C   UNL d   1     -50.927  27.210  33.984  0.00  0.00     0.027 A 
BRANCH  14  17
ATOM     17  C   UNL d   1     -50.612  25.135  33.479  0.00  0.00     0.323 C 
ATOM     18  O   UNL d   1     -49.883  24.735  33.307  0.00  0.00    -0.257 OA
BRANCH  17  19
ATOM     19  O   UNL d   1     -51.318  24.741  33.369  0.00  0.00    -0.270 OA
BRANCH  19  20
ATOM     20  C   UNL d   1     -51.453  23.990  33.679  0.00  0.00     0.126 C 
ATOM     21  C   UNL d   1     -51.173  23.330  33.306  0.00  0.00     0.029 C 
ENDBRANCH  19  20
ENDBRANCH  17  19
ENDBRANCH  14  17
ENDBRANCH   1  12
BRANCH   2  22
ATOM     22  C   UNL d   1     -50.386  27.023  36.027  0.00  0.00     0.323 C 
ATOM     23  O   UNL d   1     -51.005  26.714  35.593  0.00  0.00    -0.257 OA
BRANCH  22  24
ATOM     24  O   UNL d   1     -50.299  26.828  36.824  0.00  0.00    -0.270 OA
BRANCH  24  25
ATOM     25  C   UNL d   1     -50.938  26.932  37.346  0.00  0.00     0.126 C 
ATOM     26  C   UNL d   1     -51.153  26.321  37.857  0.00  0.00     0.029 C 
ENDBRANCH  24  25
ENDBRANCH  22  24
ENDBRANCH   2  22
BRANCH  10  27
ATOM     27  C   UNL d   1     -47.192  30.126  34.648  0.00  0.00     0.002 C 
BRANCH  27  28
ATOM     28  C   UNL d   1     -47.487  30.773  34.228  0.00  0.00     0.000 C 
ATOM     29  C   UNL d   1     -47.491  31.520  34.611  0.00  0.00     0.000 C 
ENDBRANCH  27  28
ENDBRANCH  10  27
BRANCH   9  30
ATOM     30  O   UNL d   1     -47.349  30.116  36.329  0.00  0.00    -0.273 OA
BRANCH  30  31
ATOM     31  C   UNL d   1     -47.044  29.842  37.021  0.00  0.00     0.300 C 
ATOM     32  O   UNL d   1     -47.359  29.892  37.551  0.00  0.00    -0.259 OA
ATOM     33  C   UNL d   1     -46.301  29.487  37.039  0.00  0.00     0.074 C 
ENDBRANCH  30  31
ENDBRANCH   9  30
TORSDOF 11
ENDMDL
MODEL 2
REMARK VINA RESULT:      84.0      2.852      5.697
REMARK  11 active torsions:
REMARK  status: ('A' for Active; 'I' for Inactive)
REMARK    1  A    between atoms: C_4  and  C_1 
REMARK    2  A    between atoms: C_10  and  C_2 
REMARK    3  A    between atoms: C_16  and  C_9 
REMARK    4  A    between atoms: O_24  and  C_10 
REMARK    5  A    between atoms: O_18  and  C_14 
REMARK    6  A    between atoms: O_25  and  C_16 
REMARK    7  A    between atoms: C_26  and  C_17 
REMARK    8  A    between atoms: C_19  and  O_18 
REMARK    9  A    between atoms: C_29  and  O_24 
REMARK   10  A    between atoms: C_28  and  O_25 
REMARK   11  A    between atoms: C_30  and  C_26 
ROOT
ATOM      1  C   UNL d   1     -51.673  26.353  37.130  0.00  0.00     0.090 A 
ATOM      2  C   UNL d   1     -52.326  25.849  37.148  0.00  0.00     0.168 A 
ATOM      3  C   UNL d   1     -51.290  26.505  36.409  0.00  0.00     0.201 A 
ATOM      4  C   UNL d   1     -51.559  26.154  35.705  0.00  0.00     0.062 A 
ATOM      5  O   UNL d   1     -52.596  25.499  36.444  0.00  0.00    -0.301 OA
ATOM      6  C   UNL d   1     -52.212  25.651  35.722  0.00  0.00     0.105 A 
ATOM      7  C   UNL d   1     -51.177  26.309  35.001  0.00  0.00     0.007 A 
ATOM      8  C   UNL d   1     -52.483  25.303  35.036  0.00  0.00     0.050 A 
ATOM      9  C   UNL d   1     -52.100  25.455  34.314  0.00  0.00     0.105 A 
ATOM     10  C   UNL d   1     -51.446  25.958  34.297  0.00  0.00     0.023 A 
ATOM     11  O   UNL d   1     -50.636  27.008  36.391  0.00  0.00    -0.286 OA
ENDROOT
BRANCH   1  12
ATOM     12  C   UNL d   1     -51.403  26.703  37.833  0.00  0.00     0.105 A 
ATOM     13  O   UNL d   1     -51.537  27.498  38.011  0.00  0.00    -0.302 OA
ATOM     14  C   UNL d   1     -51.198  27.645  38.735  0.00  0.00     0.163 A 
ATOM     15  C   UNL d   1     -50.857  26.960  39.012  0.00  0.00     0.032 A 
ATOM     16  C   UNL d   1     -50.982  26.354  38.444  0.00  0.00     0.027 A 
BRANCH  14  17
ATOM     17  C   UNL d   1     -51.195  28.385  39.143  0.00  0.00     0.323 C 
ATOM     18  O   UNL d   1     -51.930  28.716  39.408  0.00  0.00    -0.257 OA
BRANCH  17  19
ATOM     19  O   UNL d   1     -50.502  28.789  39.288  0.00  0.00    -0.270 OA
BRANCH  19  20
ATOM     20  C   UNL d   1     -50.463  29.412  39.825  0.00  0.00     0.126 C 
ATOM     21  C   UNL d   1     -49.926  29.407  40.430  0.00  0.00     0.029 C 
ENDBRANCH  19  20
ENDBRANCH  17  19
ENDBRANCH  14  17
ENDBRANCH   1  12
BRANCH   2  22
ATOM     22  C   UNL d   1     -52.728  25.687  37.886  0.00  0.00     0.323 C 
ATOM     23  O   UNL d   1     -53.375  26.137  38.097  0.00  0.00    -0.257 OA
BRANCH  22  24
ATOM     24  O   UNL d   1     -52.463  25.081  38.380  0.00  0.00    -0.270 OA
BRANCH  24  25
ATOM     25  C   UNL d   1     -52.954  24.426  38.528  0.00  0.00     0.126 C 
ATOM     26  C   UNL d   1     -52.807  23.945  39.181  0.00  0.00     0.029 C 
ENDBRANCH  24  25
ENDBRANCH  22  24
ENDBRANCH   2  22
BRANCH  10  27
ATOM     27  C   UNL d   1     -51.048  26.119  33.559  0.00  0.00     0.002 C 
BRANCH  27  28
ATOM     28  C   UNL d   1     -50.226  26.199  33.566  0.00  0.00     0.000 C 
ATOM     29  C   UNL d   1     -49.902  26.934  33.322  0.00  0.00     0.000 C 
ENDBRANCH  27  28
ENDBRANCH  10  27
BRANCH   9  30
ATOM     30  O   UNL d   1     -52.385  25.089  33.595  0.00  0.00    -0.273 OA
BRANCH  30  31
ATOM     31  C   UNL d   1     -52.810  24.408  33.643  0.00  0.00     0.300 C 
ATOM     32  O   UNL d   1     -53.359  24.393  33.929  0.00  0.00    -0.259 OA
ATOM     33  C   UNL d   1     -52.522  23.712  33.312  0.00  0.00     0.074 C 
ENDBRANCH  30  31
ENDBRANCH   9  30
TORSDOF 11
ENDMDL
MODEL 3
REMARK VINA RESULT:      84.9      1.364      5.134
REMARK  11 active torsions:
REMARK  status: ('A' for Active; 'I' for Inactive)
REMARK    1  A    between atoms: C_4  and  C_1 
REMARK    2  A    between atoms: C_10  and  C_2 
REMARK    3  A    between atoms: C_16  and  C_9 
REMARK    4  A    between atoms: O_24  and  C_10 
REMARK    5  A    between atoms: O_18  and  C_14 
REMARK    6  A    between atoms: O_25  and  C_16 
REMARK    7  A    between atoms: C_26  and  C_17 
REMARK    8  A    between atoms: C_19  and  O_18 
REMARK    9  A    between atoms: C_29  and  O_24 
REMARK   10  A    between atoms: C_28  and  O_25 
REMARK   11  A    between atoms: C_30  and  C_26 
ROOT
ATOM      1  C   UNL d   1     -49.397  27.903  36.142  0.00  0.00     0.090 A 
ATOM      2  C   UNL d   1     -49.829  27.323  35.746  0.00  0.00     0.168 A 
ATOM      3  C   UNL d   1     -49.556  28.062  36.943  0.00  0.00     0.201 A 
ATOM      4  C   UNL d   1     -50.148  27.640  37.347  0.00  0.00     0.062 A 
ATOM      5  O   UNL d   1     -50.420  26.902  36.151  0.00  0.00    -0.301 OA
ATOM      6  C   UNL d   1     -50.580  27.060  36.951  0.00  0.00     0.105 A 
ATOM      7  C   UNL d   1     -50.298  27.802  38.132  0.00  0.00     0.007 A 
ATOM      8  C   UNL d   1     -51.162  26.642  37.340  0.00  0.00     0.050 A 
ATOM      9  C   UNL d   1     -51.322  26.800  38.141  0.00  0.00     0.105 A 
ATOM     10  C   UNL d   1     -50.890  27.381  38.537  0.00  0.00     0.023 A 
ATOM     11  O   UNL d   1     -49.124  28.642  37.339  0.00  0.00    -0.286 OA
ENDROOT
BRANCH   1  12
ATOM     12  C   UNL d   1     -48.805  28.324  35.739  0.00  0.00     0.105 A 
ATOM     13  O   UNL d   1     -48.575  29.086  35.959  0.00  0.00    -0.302 OA
ATOM     14  C   UNL d   1     -47.991  29.322  35.445  0.00  0.00     0.163 A 
ATOM     15  C   UNL d   1     -47.852  28.723  34.911  0.00  0.00     0.032 A 
ATOM     16  C   UNL d   1     -48.366  28.084  35.089  0.00  0.00     0.027 A 
BRANCH  14  17
ATOM     17  C   UNL d   1     -47.587  30.063  35.456  0.00  0.00     0.323 C 
ATOM     18  O   UNL d   1     -46.986  30.200  36.039  0.00  0.00    -0.257 OA
BRANCH  17  19
ATOM     19  O   UNL d   1     -47.762  30.651  34.919  0.00  0.00    -0.270 OA
BRANCH  19  20
ATOM     20  C   UNL d   1     -47.580  31.442  35.061  0.00  0.00     0.126 C 
ATOM     21  C   UNL d   1     -47.562  31.980  34.457  0.00  0.00     0.029 C 
ENDBRANCH  19  20
ENDBRANCH  17  19
ENDBRANCH  14  17
ENDBRANCH   1  12
BRANCH   2  22
ATOM     22  C   UNL d   1     -49.672  27.153  34.922  0.00  0.00     0.323 C 
ATOM     23  O   UNL d   1     -48.936  26.872  34.706  0.00  0.00    -0.257 OA
BRANCH  22  24
ATOM     24  O   UNL d   1     -50.257  27.271  34.353  0.00  0.00    -0.270 OA
BRANCH  24  25
ATOM     25  C   UNL d   1     -50.251  26.817  33.656  0.00  0.00     0.126 C 
ATOM     26  C   UNL d   1     -50.965  26.598  33.306  0.00  0.00     0.029 C 
ENDBRANCH  24  25
ENDBRANCH  22  24
ENDBRANCH   2  22
BRANCH  10  27
ATOM     27  C   UNL d   1     -51.049  27.549  39.359  0.00  0.00     0.002 C 
BRANCH  27  28
ATOM     28  C   UNL d   1     -51.072  28.338  39.601  0.00  0.00     0.000 C 
ATOM     29  C   UNL d   1     -51.083  28.494  40.426  0.00  0.00     0.000 C 
ENDBRANCH  27  28
ENDBRANCH  10  27
BRANCH   9  30
ATOM     30  O   UNL d   1     -51.933  26.361  38.548  0.00  0.00    -0.273 OA
BRANCH  30  31
ATOM     31  C   UNL d   1     -52.329  25.783  38.155  0.00  0.00     0.300 C 
ATOM     32  O   UNL d   1     -52.688  25.914  37.667  0.00  0.00    -0.259 OA
ATOM     33  C   UNL d   1     -52.266  24.997  38.393  0.00  0.00     0.074 C 
ENDBRANCH  30  31
ENDBRANCH   9  30
TORSDOF 11
ENDMDL
