MODEL 1
REMARK VINA RESULT:      -9.1      0.000      0.000
REMARK  3 active torsions:
REMARK  status: ('A' for Active; 'I' for Inactive)
REMARK    1  A    between atoms: C_5  and  N_1 
REMARK    2  A    between atoms: C_13  and  C_6 
REMARK    3  A    between atoms: O_24  and  C_19 
ROOT
ATOM      1  N   UNL d   1     -48.676  14.576  22.693  0.00  0.00    -0.256 N 
ATOM      2  C   UNL d   1     -47.745  13.610  22.694  0.00  0.00     0.083 A 
ATOM      3  C   UNL d   1     -47.364  14.333  22.600  0.00  0.00     0.161 A 
ATOM      4  C   UNL d   1     -47.936  14.935  22.598  0.00  0.00     0.289 A 
ATOM      5  C   UNL d   1     -48.557  13.756  22.752  0.00  0.00     0.075 A 
ATOM      6  C   UNL d   1     -47.310  12.909  22.715  0.00  0.00     0.201 A 
ATOM      7  O   UNL d   1     -46.536  14.357  22.526  0.00  0.00    -0.302 OA
ATOM      8  C   UNL d   1     -46.490  12.936  22.642  0.00  0.00     0.063 A 
ATOM      9  C   UNL d   1     -46.106  13.658  22.548  0.00  0.00     0.103 A 
ATOM     10  O   UNL d   1     -47.797  15.737  22.518  0.00  0.00    -0.264 OA
ATOM     11  O   UNL d   1     -47.690  12.186  22.809  0.00  0.00    -0.286 OA
ATOM     12  C   UNL d   1     -46.052  12.234  22.664  0.00  0.00     0.017 A 
ATOM     13  C   UNL d   1     -45.275  13.677  22.475  0.00  0.00     0.026 A 
ATOM     14  C   UNL d   1     -45.235  12.254  22.591  0.00  0.00     0.058 A 
ATOM     15  C   UNL d   1     -44.846  12.978  22.496  0.00  0.00     0.013 A 
ATOM     16 CL   UNL d   1     -44.802  11.560  22.612  0.00  0.00    -0.082 Cl
ENDROOT
BRANCH   5  17
ATOM     17  C   UNL d   1     -48.941  13.034  22.846  0.00  0.00     0.039 A 
ATOM     18  C   UNL d   1     -49.282  12.651  22.197  0.00  0.00     0.096 A 
ATOM     19  C   UNL d   1     -49.665  11.931  22.295  0.00  0.00     0.024 A 
ATOM     20  C   UNL d   1     -49.711  11.581  23.048  0.00  0.00     0.002 A 
ATOM     21  C   UNL d   1     -49.371  11.963  23.698  0.00  0.00     0.000 A 
ATOM     22  C   UNL d   1     -48.985  12.692  23.594  0.00  0.00     0.003 A 
BRANCH  18  23
ATOM     23  O   UNL d   1     -49.233  13.002  21.452  0.00  0.00    -0.328 OA
ATOM     24  C   UNL d   1     -49.651  12.678  20.821  0.00  0.00     0.181 C 
ENDBRANCH  18  23
ENDBRANCH   5  17
BRANCH   1  25
ATOM     25  C   UNL d   1     -49.402  14.962  22.723  0.00  0.00     0.179 A 
ATOM     26  N   UNL d   1     -49.862  15.179  22.081  0.00  0.00    -0.108 NA
ATOM     27  O   UNL d   1     -50.541  15.550  22.362  0.00  0.00    -0.210 OA
ATOM     28  C   UNL d   1     -50.499  15.561  23.184  0.00  0.00     0.128 A 
ATOM     29  C   UNL d   1     -49.796  15.198  23.412  0.00  0.00     0.067 A 
ATOM     30  C   UNL d   1     -51.063  15.880  23.696  0.00  0.00     0.029 C 
ENDBRANCH   1  25
TORSDOF 3
ENDMDL
MODEL 2
REMARK VINA RESULT:      -8.4      1.880      3.830
REMARK  3 active torsions:
REMARK  status: ('A' for Active; 'I' for Inactive)
REMARK    1  A    between atoms: C_5  and  N_1 
REMARK    2  A    between atoms: C_13  and  C_6 
REMARK    3  A    between atoms: O_24  and  C_19 
ROOT
ATOM      1  N   UNL d   1     -46.503  13.563  22.651  0.00  0.00    -0.256 N 
ATOM      2  C   UNL d   1     -47.798  13.810  22.906  0.00  0.00     0.083 A 
ATOM      3  C   UNL d   1     -47.409  14.531  22.832  0.00  0.00     0.161 A 
ATOM      4  C   UNL d   1     -46.607  14.384  22.674  0.00  0.00     0.289 A 
ATOM      5  C   UNL d   1     -47.240  13.208  22.795  0.00  0.00     0.075 A 
ATOM      6  C   UNL d   1     -48.607  13.785  23.065  0.00  0.00     0.201 A 
ATOM      7  O   UNL d   1     -47.836  15.240  22.917  0.00  0.00    -0.302 OA
ATOM      8  C   UNL d   1     -49.026  14.490  23.149  0.00  0.00     0.063 A 
ATOM      9  C   UNL d   1     -48.640  15.214  23.075  0.00  0.00     0.103 A 
ATOM     10  O   UNL d   1     -46.023  14.947  22.561  0.00  0.00    -0.264 OA
ATOM     11  O   UNL d   1     -48.995  13.065  23.139  0.00  0.00    -0.286 OA
ATOM     12  C   UNL d   1     -49.838  14.468  23.309  0.00  0.00     0.017 A 
ATOM     13  C   UNL d   1     -49.072  15.922  23.162  0.00  0.00     0.026 A 
ATOM     14  C   UNL d   1     -50.261  15.166  23.393  0.00  0.00     0.058 A 
ATOM     15  C   UNL d   1     -49.877  15.895  23.320  0.00  0.00     0.013 A 
ATOM     16 CL   UNL d   1     -51.064  15.144  23.551  0.00  0.00    -0.082 Cl
ENDROOT
BRANCH   5  17
ATOM     17  C   UNL d   1     -47.626  12.485  22.869  0.00  0.00     0.039 A 
ATOM     18  C   UNL d   1     -47.928  12.099  22.203  0.00  0.00     0.096 A 
ATOM     19  C   UNL d   1     -48.312  11.377  22.280  0.00  0.00     0.024 A 
ATOM     20  C   UNL d   1     -48.401  11.029  23.030  0.00  0.00     0.002 A 
ATOM     21  C   UNL d   1     -48.099  11.414  23.698  0.00  0.00     0.000 A 
ATOM     22  C   UNL d   1     -47.711  12.144  23.615  0.00  0.00     0.003 A 
BRANCH  18  23
ATOM     23  O   UNL d   1     -47.837  12.448  21.461  0.00  0.00    -0.328 OA
ATOM     24  C   UNL d   1     -48.129  12.066  20.792  0.00  0.00     0.181 C 
ENDBRANCH  18  23
ENDBRANCH   5  17
BRANCH   1  25
ATOM     25  C   UNL d   1     -45.795  13.167  22.511  0.00  0.00     0.179 A 
ATOM     26  N   UNL d   1     -45.439  12.623  23.009  0.00  0.00    -0.108 NA
ATOM     27  O   UNL d   1     -44.743  12.366  22.653  0.00  0.00    -0.210 OA
ATOM     28  C   UNL d   1     -44.669  12.754  21.931  0.00  0.00     0.128 A 
ATOM     29  C   UNL d   1     -45.319  13.251  21.839  0.00  0.00     0.067 A 
ATOM     30  C   UNL d   1     -44.053  12.663  21.390  0.00  0.00     0.029 C 
ENDBRANCH   1  25
TORSDOF 3
ENDMDL
MODEL 3
REMARK VINA RESULT:      -6.1      1.559      2.624
REMARK  3 active torsions:
REMARK  status: ('A' for Active; 'I' for Inactive)
REMARK    1  A    between atoms: C_5  and  N_1 
REMARK    2  A    between atoms: C_13  and  C_6 
REMARK    3  A    between atoms: O_24  and  C_19 
ROOT
ATOM      1  N   UNL d   1     -48.774  12.264  23.193  0.00  0.00    -0.256 N 
ATOM      2  C   UNL d   1     -47.446  12.072  23.146  0.00  0.00     0.083 A 
ATOM      3  C   UNL d   1     -47.798  11.377  23.415  0.00  0.00     0.161 A 
ATOM      4  C   UNL d   1     -48.619  11.491  23.446  0.00  0.00     0.289 A 
ATOM      5  C   UNL d   1     -48.048  12.623  23.008  0.00  0.00     0.075 A 
ATOM      6  C   UNL d   1     -46.628  12.120  23.060  0.00  0.00     0.201 A 
ATOM      7  O   UNL d   1     -47.322  10.720  23.600  0.00  0.00    -0.302 OA
ATOM      8  C   UNL d   1     -46.160  11.466  23.244  0.00  0.00     0.063 A 
ATOM      9  C   UNL d   1     -46.508  10.770  23.513  0.00  0.00     0.103 A 
ATOM     10  O   UNL d   1     -49.177  10.941  23.682  0.00  0.00    -0.264 OA
ATOM     11  O   UNL d   1     -46.277  12.813  22.791  0.00  0.00    -0.286 OA
ATOM     12  C   UNL d   1     -45.338  11.513  23.158  0.00  0.00     0.017 A 
ATOM     13  C   UNL d   1     -46.027  10.114  23.698  0.00  0.00     0.026 A 
ATOM     14  C   UNL d   1     -44.867  10.866  23.340  0.00  0.00     0.058 A 
ATOM     15  C   UNL d   1     -45.212  10.165  23.611  0.00  0.00     0.013 A 
ATOM     16 CL   UNL d   1     -44.054  10.912  23.255  0.00  0.00    -0.082 Cl
ENDROOT
BRANCH   5  17
ATOM     17  C   UNL d   1     -47.700  13.319  22.739  0.00  0.00     0.039 A 
ATOM     18  C   UNL d   1     -47.683  13.495  21.931  0.00  0.00     0.096 A 
ATOM     19  C   UNL d   1     -47.335  14.191  21.666  0.00  0.00     0.024 A 
ATOM     20  C   UNL d   1     -46.998  14.723  22.210  0.00  0.00     0.002 A 
ATOM     21  C   UNL d   1     -47.015  14.548  23.018  0.00  0.00     0.000 A 
ATOM     22  C   UNL d   1     -47.368  13.843  23.281  0.00  0.00     0.003 A 
BRANCH  18  23
ATOM     23  O   UNL d   1     -48.018  12.965  21.397  0.00  0.00    -0.328 OA
ATOM     24  C   UNL d   1     -48.032  13.149  20.594  0.00  0.00     0.181 C 
ENDBRANCH  18  23
ENDBRANCH   5  17
BRANCH   1  25
ATOM     25  C   UNL d   1     -49.515  12.616  23.135  0.00  0.00     0.179 A 
ATOM     26  N   UNL d   1     -50.098  12.431  22.590  0.00  0.00    -0.108 NA
ATOM     27  O   UNL d   1     -50.747  12.917  22.731  0.00  0.00    -0.210 OA
ATOM     28  C   UNL d   1     -50.564  13.406  23.368  0.00  0.00     0.128 A 
ATOM     29  C   UNL d   1     -49.802  13.223  23.621  0.00  0.00     0.067 A 
ATOM     30  C   UNL d   1     -51.055  13.980  23.698  0.00  0.00     0.029 C 
ENDBRANCH   1  25
TORSDOF 3
ENDMDL
