MODEL 1
REMARK VINA RESULT:      -2.9      0.000      0.000
REMARK  6 active torsions:
REMARK  status: ('A' for Active; 'I' for Inactive)
REMARK    1  A    between atoms: C_4  and  C_1 
REMARK    2  A    between atoms: C_7  and  C_4 
REMARK    3  A    between atoms: N_10  and  C_7 
REMARK    4  A    between atoms: C_11  and  N_10 
REMARK    5  A    between atoms: O_14  and  C_12 
REMARK    6  A    between atoms: C_19  and  O_14 
ROOT
ATOM      1  C   UNL d   1     -41.536-121.983 -51.491  0.00  0.00     0.122 C 
ATOM      2  C   UNL d   1     -41.353-121.184 -51.562  0.00  0.00     0.106 C 
ATOM      3  N   UNL d   1     -41.170-120.384 -51.633  0.00  0.00    -0.191 NA
ENDROOT
BRANCH   1   4
ATOM      4  C   UNL d   1     -41.677-122.310 -50.747  0.00  0.00     0.159 A 
ATOM      5  N   UNL d   1     -41.130-122.719 -50.281  0.00  0.00    -0.226 NA
ATOM      6  C   UNL d   1     -41.504-122.945 -49.588  0.00  0.00     0.099 A 
ATOM      7  C   UNL d   1     -41.238-123.364 -48.922  0.00  0.00     0.021 A 
ATOM      8  C   UNL d   1     -42.284-122.679 -49.620  0.00  0.00     0.083 A 
ATOM      9  C   UNL d   1     -41.758-123.510 -48.296  0.00  0.00     0.002 A 
ATOM     10  C   UNL d   1     -42.538-123.245 -48.328  0.00  0.00     0.002 A 
ATOM     11  C   UNL d   1     -42.806-122.829 -48.986  0.00  0.00     0.019 A 
ATOM     12  N   UNL d   1     -42.395-122.287 -50.332  0.00  0.00    -0.287 N 
ATOM     13  C   UNL d   1     -43.095-121.929 -50.600  0.00  0.00     0.101 C 
ENDBRANCH   1   4
BRANCH   1  14
ATOM     14  C   UNL d   1     -41.578-122.456 -52.164  0.00  0.00     0.112 C 
BRANCH  14  15
ATOM     15  N   UNL d   1     -41.619-122.109 -52.911  0.00  0.00    -0.241 NA
BRANCH  15  16
ATOM     16  C   UNL d   1     -41.530-122.575 -53.589  0.00  0.00     0.104 A 
ATOM     17  C   UNL d   1     -41.750-122.284 -54.329  0.00  0.00     0.118 A 
ATOM     18  C   UNL d   1     -41.660-122.752 -55.002  0.00  0.00     0.026 A 
ATOM     19  C   UNL d   1     -41.348-123.515 -54.933  0.00  0.00     0.002 A 
ATOM     20  C   UNL d   1     -41.123-123.814 -54.184  0.00  0.00     0.002 A 
ATOM     21  C   UNL d   1     -41.218-123.336 -53.514  0.00  0.00     0.021 A 
BRANCH  17  22
ATOM     22  O   UNL d   1     -42.059-121.528 -54.391  0.00  0.00    -0.304 OA
BRANCH  22  23
ATOM     23  C   UNL d   1     -42.505-121.323 -55.055  0.00  0.00     0.123 C 
ATOM     24  C   UNL d   1     -42.303-120.667 -55.504  0.00  0.00     0.029 C 
ENDBRANCH  22  23
ENDBRANCH  17  22
ENDBRANCH  15  16
ENDBRANCH  14  15
ENDBRANCH   1  14
TORSDOF 6
ENDMDL
MODEL 2
REMARK VINA RESULT:      -0.9      1.482      4.844
REMARK  6 active torsions:
REMARK  status: ('A' for Active; 'I' for Inactive)
REMARK    1  A    between atoms: C_4  and  C_1 
REMARK    2  A    between atoms: C_7  and  C_4 
REMARK    3  A    between atoms: N_10  and  C_7 
REMARK    4  A    between atoms: C_11  and  N_10 
REMARK    5  A    between atoms: O_14  and  C_12 
REMARK    6  A    between atoms: C_19  and  O_14 
ROOT
ATOM      1  C   UNL d   1     -41.717-122.278 -51.338  0.00  0.00     0.122 C 
ATOM      2  C   UNL d   1     -41.420-121.560 -51.068  0.00  0.00     0.106 C 
ATOM      3  N   UNL d   1     -41.123-120.841 -50.796  0.00  0.00    -0.191 NA
ENDROOT
BRANCH   1   4
ATOM      4  C   UNL d   1     -41.691-122.459 -52.143  0.00  0.00     0.159 A 
ATOM      5  N   UNL d   1     -41.297-123.099 -52.486  0.00  0.00    -0.226 NA
ATOM      6  C   UNL d   1     -41.417-123.067 -53.296  0.00  0.00     0.099 A 
ATOM      7  C   UNL d   1     -41.160-123.555 -53.917  0.00  0.00     0.021 A 
ATOM      8  C   UNL d   1     -41.885-122.408 -53.460  0.00  0.00     0.083 A 
ATOM      9  C   UNL d   1     -41.376-123.375 -54.695  0.00  0.00     0.002 A 
ATOM     10  C   UNL d   1     -41.844-122.716 -54.859  0.00  0.00     0.002 A 
ATOM     11  C   UNL d   1     -42.100-122.230 -54.246  0.00  0.00     0.019 A 
ATOM     12  N   UNL d   1     -42.056-122.031 -52.751  0.00  0.00    -0.287 N 
ATOM     13  C   UNL d   1     -42.511-121.343 -52.651  0.00  0.00     0.101 C 
ENDBRANCH   1   4
BRANCH   1  14
ATOM     14  C   UNL d   1     -42.041-122.815 -50.805  0.00  0.00     0.112 C 
BRANCH  14  15
ATOM     15  N   UNL d   1     -42.063-122.636 -50.000  0.00  0.00    -0.241 NA
BRANCH  15  16
ATOM     16  C   UNL d   1     -42.594-123.031 -49.503  0.00  0.00     0.104 A 
ATOM     17  C   UNL d   1     -42.340-123.343 -48.783  0.00  0.00     0.118 A 
ATOM     18  C   UNL d   1     -42.872-123.736 -48.290  0.00  0.00     0.026 A 
ATOM     19  C   UNL d   1     -43.663-123.817 -48.521  0.00  0.00     0.002 A 
ATOM     20  C   UNL d   1     -43.924-123.503 -49.252  0.00  0.00     0.002 A 
ATOM     21  C   UNL d   1     -43.381-123.110 -49.739  0.00  0.00     0.021 A 
BRANCH  17  22
ATOM     22  O   UNL d   1     -41.557-123.259 -48.558  0.00  0.00    -0.304 OA
BRANCH  22  23
ATOM     23  C   UNL d   1     -41.329-123.457 -47.790  0.00  0.00     0.123 C 
ATOM     24  C   UNL d   1     -41.126-122.870 -47.254  0.00  0.00     0.029 C 
ENDBRANCH  22  23
ENDBRANCH  17  22
ENDBRANCH  15  16
ENDBRANCH  14  15
ENDBRANCH   1  14
TORSDOF 6
ENDMDL
