MODEL 1
REMARK VINA RESULT:      59.8      0.000      0.000
REMARK  11 active torsions:
REMARK  status: ('A' for Active; 'I' for Inactive)
REMARK    1  A    between atoms: N_5  and  S_1 
REMARK    2  A    between atoms: C_8  and  S_1 
REMARK    3  A    between atoms: C_2  and  N_10 
REMARK    4  A    between atoms: C_9  and  N_5 
REMARK    5  A    between atoms: C_18  and  N_5 
REMARK    6  A    between atoms: C_13  and  C_9 
REMARK    7  A    between atoms: N_10  and  O_14 
REMARK    8  A    between atoms: C_17  and  C_13 
REMARK    9  A    between atoms: O_14  and  C_17 
REMARK   10  A    between atoms: C_27  and  C_18 
REMARK   11  A    between atoms: C_29  and  C_27 
ROOT
ATOM      1  C   UNL d   1      14.758  16.152  -3.708  0.00  0.00     0.240 C 
ATOM      2  O   UNL d   1      15.458  16.093  -3.276  0.00  0.00    -0.283 OA
ENDROOT
BRANCH   1   3
ATOM      3  C   UNL d   1      15.174  16.700  -4.171  0.00  0.00     0.136 C 
BRANCH   3   4
ATOM      4  N   UNL d   1      15.050  16.710  -4.989  0.00  0.00    -0.226 N 
BRANCH   4   5
ATOM      5  S   UNL d   1      14.677  17.359  -5.345  0.00  0.00     0.271 S 
ATOM      6  O   UNL d   1      14.316  16.722  -5.731  0.00  0.00    -0.200 OA
ATOM      7  O   UNL d   1      14.904  18.108  -5.091  0.00  0.00    -0.200 OA
BRANCH   5   8
ATOM      8  C   UNL d   1      14.461  18.126  -5.538  0.00  0.00     0.104 A 
ATOM      9  C   UNL d   1      14.684  18.751  -5.050  0.00  0.00     0.013 A 
ATOM     10  C   UNL d   1      14.465  19.524  -5.247  0.00  0.00     0.001 A 
ATOM     11  C   UNL d   1      14.023  19.668  -5.932  0.00  0.00     0.000 A 
ATOM     12  C   UNL d   1      13.826  18.999  -6.389  0.00  0.00     0.001 A 
ATOM     13  C   UNL d   1      13.793  20.430  -6.149  0.00  0.00     0.000 C 
ATOM     14  C   UNL d   1      14.022  18.221  -6.229  0.00  0.00     0.013 A 
ENDBRANCH   5   8
ENDBRANCH   4   5
BRANCH   4  15
ATOM     15  C   UNL d   1      15.232  16.171  -5.579  0.00  0.00     0.095 C 
BRANCH  15  16
ATOM     16  C   UNL d   1      16.023  16.044  -5.789  0.00  0.00     0.065 C 
BRANCH  16  17
ATOM     17  C   UNL d   1      16.210  15.492  -6.379  0.00  0.00     0.236 C 
ATOM     18  O   UNL d   1      16.889  15.040  -6.318  0.00  0.00    -0.283 OA
ENDBRANCH  16  17
ENDBRANCH  15  16
ENDBRANCH   4  15
ENDBRANCH   3   4
ENDBRANCH   1   3
BRANCH   1  19
ATOM     19  C   UNL d   1      14.103  15.709  -3.498  0.00  0.00     0.193 C 
BRANCH  19  20
ATOM     20  O   UNL d   1      14.205  14.971  -3.143  0.00  0.00    -0.206 OA
BRANCH  20  21
ATOM     21  N   UNL d   1      13.548  14.485  -2.999  0.00  0.00    -0.126 NA
BRANCH  21  22
ATOM     22  C   UNL d   1      13.626  13.665  -3.030  0.00  0.00     0.108 A 
ATOM     23  C   UNL d   1      13.360  13.174  -3.640  0.00  0.00     0.020 A 
ATOM     24  C   UNL d   1      13.557  12.398  -3.436  0.00  0.00     0.002 A 
ATOM     25  C   UNL d   1      12.972  13.334  -4.339  0.00  0.00     0.002 A 
ATOM     26  C   UNL d   1      13.357  11.782  -3.950  0.00  0.00     0.000 A 
ATOM     27  C   UNL d   1      13.939  12.400  -2.714  0.00  0.00     0.002 A 
ATOM     28  C   UNL d   1      12.967  11.942  -4.653  0.00  0.00     0.000 A 
ATOM     29  C   UNL d   1      12.776  12.718  -4.846  0.00  0.00     0.000 A 
ATOM     30  C   UNL d   1      13.984  13.182  -2.458  0.00  0.00     0.020 A 
ATOM     31  C   UNL d   1      14.252  11.801  -2.250  0.00  0.00     0.000 A 
ATOM     32  C   UNL d   1      14.341  13.366  -1.741  0.00  0.00     0.002 A 
ATOM     33  C   UNL d   1      14.657  12.768  -1.273  0.00  0.00     0.000 A 
ATOM     34  C   UNL d   1      14.610  11.980  -1.534  0.00  0.00     0.000 A 
ENDBRANCH  21  22
ENDBRANCH  20  21
ENDBRANCH  19  20
ENDBRANCH   1  19
TORSDOF 11
ENDMDL
