MODEL 1
REMARK VINA RESULT:      42.9      0.000      0.000
REMARK  4 active torsions:
REMARK  status: ('A' for Active; 'I' for Inactive)
REMARK    1  A    between atoms: N_3  and  S_1 
REMARK    2  A    between atoms: C_5  and  S_1 
REMARK    3  A    between atoms: C_2  and  C_9 
REMARK       I    between atoms: N_4  and  C_2 
REMARK    4  A    between atoms: C_11  and  N_3 
ROOT
ATOM      1  C   UNL d   1      13.499  13.880  -4.526  0.00  0.00     0.057 A 
ATOM      2  C   UNL d   1      13.317  12.541  -3.585  0.00  0.00     0.094 A 
ATOM      3  C   UNL d   1      13.301  13.961  -3.727  0.00  0.00     0.006 A 
ATOM      4  C   UNL d   1      13.606  13.132  -4.856  0.00  0.00     0.006 A 
ATOM      5  C   UNL d   1      13.211  13.287  -3.258  0.00  0.00     0.020 A 
ATOM      6  C   UNL d   1      13.516  12.462  -4.393  0.00  0.00     0.020 A 
ENDROOT
BRANCH   2   7
ATOM      7  N   UNL d   1      13.227  11.871  -3.121  0.00  0.00    -0.158 NA
BRANCH   7   8
ATOM      8  S   UNL d   1      13.536  11.857  -2.354  0.00  0.00     0.285 S 
ATOM      9  O   UNL d   1      14.301  11.928  -2.655  0.00  0.00    -0.198 OA
ATOM     10  O   UNL d   1      12.769  11.786  -2.056  0.00  0.00    -0.198 OA
BRANCH   8  11
ATOM     11  C   UNL d   1      13.840  11.842  -1.589  0.00  0.00     0.107 A 
ATOM     12  C   UNL d   1      14.659  11.848  -1.469  0.00  0.00     0.043 A 
ATOM     13  C   UNL d   1      14.965  11.834  -0.701  0.00  0.00     0.141 A 
ATOM     14  F   UNL d   1      15.789  11.839  -0.573  0.00  0.00    -0.204 F 
ATOM     15  C   UNL d   1      14.453  11.814  -0.055  0.00  0.00     0.030 A 
ATOM     16  C   UNL d   1      13.640  11.808  -0.176  0.00  0.00     0.003 A 
ATOM     17  C   UNL d   1      13.330  11.823  -0.940  0.00  0.00     0.013 A 
ENDBRANCH   8  11
ENDBRANCH   7   8
ENDBRANCH   2   7
BRANCH   1  18
ATOM     18  C   UNL d   1      13.592  14.561  -5.008  0.00  0.00     0.265 C 
ATOM     19  N   UNL d   1      13.895  15.257  -4.678  0.00  0.00    -0.272 N 
ATOM     20  C   UNL d   1      13.988  15.928  -5.151  0.00  0.00     0.083 A 
ATOM     21  C   UNL d   1      14.104  15.284  -3.885  0.00  0.00     0.083 A 
ATOM     22  C   UNL d   1      14.290  16.623  -4.825  0.00  0.00     0.019 A 
ATOM     23  C   UNL d   1      14.493  16.636  -4.034  0.00  0.00     0.003 A 
ATOM     24  C   UNL d   1      14.402  15.973  -3.564  0.00  0.00     0.019 A 
ATOM     25  O   UNL d   1      13.380  14.530  -5.812  0.00  0.00    -0.267 OA
ENDBRANCH   1  18
TORSDOF 4
ENDMDL
MODEL 2
REMARK VINA RESULT:      44.4      2.807      4.487
REMARK  4 active torsions:
REMARK  status: ('A' for Active; 'I' for Inactive)
REMARK    1  A    between atoms: N_3  and  S_1 
REMARK    2  A    between atoms: C_5  and  S_1 
REMARK    3  A    between atoms: C_2  and  C_9 
REMARK       I    between atoms: N_4  and  C_2 
REMARK    4  A    between atoms: C_11  and  N_3 
ROOT
ATOM      1  C   UNL d   1      14.029  12.762  -1.253  0.00  0.00     0.057 A 
ATOM      2  C   UNL d   1      15.081  13.726  -0.430  0.00  0.00     0.094 A 
ATOM      3  C   UNL d   1      14.835  12.745  -1.436  0.00  0.00     0.006 A 
ATOM      4  C   UNL d   1      13.747  13.260  -0.659  0.00  0.00     0.006 A 
ATOM      5  C   UNL d   1      15.360  13.229  -1.022  0.00  0.00     0.020 A 
ATOM      6  C   UNL d   1      14.266  13.742  -0.246  0.00  0.00     0.020 A 
ENDROOT
BRANCH   2   7
ATOM      7  N   UNL d   1      15.600  14.208  -0.017  0.00  0.00    -0.158 NA
BRANCH   7   8
ATOM      8  S   UNL d   1      15.673  15.006  -0.222  0.00  0.00     0.285 S 
ATOM      9  O   UNL d   1      16.477  14.898  -0.375  0.00  0.00    -0.198 OA
ATOM     10  O   UNL d   1      14.868  15.111  -0.068  0.00  0.00    -0.198 OA
BRANCH   8  11
ATOM     11  C   UNL d   1      15.742  15.801  -0.426  0.00  0.00     0.107 A 
ATOM     12  C   UNL d   1      15.150  16.166  -0.874  0.00  0.00     0.043 A 
ATOM     13  C   UNL d   1      15.219  16.965  -1.079  0.00  0.00     0.141 A 
ATOM     14  F   UNL d   1      14.627  17.339  -1.530  0.00  0.00    -0.204 F 
ATOM     15  C   UNL d   1      15.880  17.395  -0.836  0.00  0.00     0.030 A 
ATOM     16  C   UNL d   1      16.467  17.031  -0.391  0.00  0.00     0.003 A 
ATOM     17  C   UNL d   1      16.402  16.234  -0.184  0.00  0.00     0.013 A 
ENDBRANCH   8  11
ENDBRANCH   7   8
ENDBRANCH   2   7
BRANCH   1  18
ATOM     18  C   UNL d   1      13.491  12.272  -1.670  0.00  0.00     0.265 C 
ATOM     19  N   UNL d   1      13.485  12.284  -2.498  0.00  0.00    -0.272 N 
ATOM     20  C   UNL d   1      12.955  11.802  -2.911  0.00  0.00     0.083 A 
ATOM     21  C   UNL d   1      14.001  12.771  -2.910  0.00  0.00     0.083 A 
ATOM     22  C   UNL d   1      12.947  11.812  -3.736  0.00  0.00     0.019 A 
ATOM     23  C   UNL d   1      13.467  12.302  -4.133  0.00  0.00     0.003 A 
ATOM     24  C   UNL d   1      13.992  12.780  -3.727  0.00  0.00     0.019 A 
ATOM     25  O   UNL d   1      12.968  11.779  -1.250  0.00  0.00    -0.267 OA
ENDBRANCH   1  18
TORSDOF 4
ENDMDL
