MODEL 1
REMARK VINA RESULT:      14.2      0.000      0.000
REMARK  3 active torsions:
REMARK  status: ('A' for Active; 'I' for Inactive)
REMARK    1  A    between atoms: N_2  and  C_1 
REMARK    2  A    between atoms: C_5  and  C_4 
REMARK       I    between atoms: N_6  and  C_5 
REMARK    3  A    between atoms: C_9  and  N_6 
ROOT
ATOM      1  C   UNL d   1      22.664  12.889  -2.030  0.00  0.00     0.285 C 
ATOM      2  N   UNL d   1      22.714  13.010  -1.215  0.00  0.00    -0.205 NA
ATOM      3  O   UNL d   1      21.999  13.091  -2.445  0.00  0.00    -0.265 OA
ENDROOT
BRANCH   1   4
ATOM      4  C   UNL d   1      23.291  12.558  -2.442  0.00  0.00     0.089 A 
ATOM      5  S   UNL d   1      23.522  12.788  -3.172  0.00  0.00    -0.059 SA
ATOM      6  C   UNL d   1      24.157  12.352  -3.422  0.00  0.00     0.156 A 
ATOM      7  C   UNL d   1      24.339  11.808  -2.803  0.00  0.00     0.031 A 
ATOM      8  C   UNL d   1      23.795  11.939  -2.190  0.00  0.00     0.014 A 
BRANCH   6   9
ATOM      9  N   UNL d   1      24.533  12.434  -4.131  0.00  0.00    -0.107 N 
ATOM     10  O   UNL d   1      24.765  13.147  -4.482  0.00  0.00    -0.531 OA
ATOM     11  O   UNL d   1      24.733  11.817  -4.595  0.00  0.00    -0.531 OA
ENDBRANCH   6   9
ENDBRANCH   1   4
BRANCH   2  12
ATOM     12  C   UNL d   1      23.392  12.800  -0.816  0.00  0.00     0.112 A 
ATOM     13  C   UNL d   1      23.925  13.384  -0.578  0.00  0.00     0.158 A 
ATOM     14  F   UNL d   1      23.776  14.185  -0.742  0.00  0.00    -0.203 F 
ATOM     15  C   UNL d   1      24.603  13.174  -0.180  0.00  0.00     0.031 A 
ATOM     16  C   UNL d   1      24.754  12.379  -0.016  0.00  0.00     0.002 A 
ATOM     17  C   UNL d   1      24.237  11.799  -0.245  0.00  0.00     0.002 A 
ATOM     18  C   UNL d   1      23.543  12.006  -0.652  0.00  0.00     0.021 A 
ENDBRANCH   2  12
TORSDOF 3
ENDMDL
