MODEL 1
REMARK VINA RESULT:      -3.7      0.000      0.000
REMARK  5 active torsions:
REMARK  status: ('A' for Active; 'I' for Inactive)
REMARK    1  A    between atoms: S_6  and  C_2 
REMARK    2  A    between atoms: C_16  and  S_6 
REMARK    3  A    between atoms: C_8  and  C_16 
REMARK       I    between atoms: N_13  and  C_8 
REMARK    4  A    between atoms: C_19  and  N_13 
REMARK    5  A    between atoms: C_18  and  C_19 
ROOT
ATOM      1  C   UNL d   1      33.018  19.438 -23.032  0.00  0.00     0.286 C 
ATOM      2  N   UNL d   1      33.004  19.860 -22.331  0.00  0.00    -0.206 NA
ATOM      3  O   UNL d   1      33.240  19.810 -23.733  0.00  0.00    -0.265 OA
ENDROOT
BRANCH   1   4
ATOM      4  C   UNL d   1      32.810  18.639 -23.045  0.00  0.00     0.098 C 
BRANCH   4   5
ATOM      5  S   UNL d   1      32.376  18.334 -23.680  0.00  0.00    -0.080 SA
BRANCH   5   6
ATOM      6  C   UNL d   1      32.174  17.536 -23.685  0.00  0.00     0.049 A 
ATOM      7  C   UNL d   1      32.618  16.914 -23.365  0.00  0.00     0.087 A 
ATOM      8  N   UNL d   1      32.209  16.208 -23.494  0.00  0.00    -0.302 N 
ATOM      9  C   UNL d   1      31.509  16.395 -23.895  0.00  0.00     0.065 A 
ATOM     10  C   UNL d   1      32.445  15.453 -23.268  0.00  0.00     0.100 C 
ATOM     11  C   UNL d   1      31.490  17.215 -24.012  0.00  0.00     0.024 A 
ATOM     12  C   UNL d   1      30.885  15.920 -24.170  0.00  0.00     0.018 A 
ATOM     13  C   UNL d   1      30.848  17.560 -24.403  0.00  0.00     0.002 A 
ATOM     14  C   UNL d   1      30.231  17.087 -24.674  0.00  0.00     0.000 A 
ATOM     15  C   UNL d   1      30.250  16.267 -24.557  0.00  0.00     0.002 A 
ENDBRANCH   5   6
ENDBRANCH   4   5
ENDBRANCH   1   4
BRANCH   2  16
ATOM     16  C   UNL d   1      33.210  20.650 -22.322  0.00  0.00     0.102 C 
BRANCH  16  17
ATOM     17  C   UNL d   1      33.025  21.147 -21.697  0.00  0.00     0.021 A 
ATOM     18  C   UNL d   1      32.697  21.889 -21.861  0.00  0.00     0.028 A 
ATOM     19  C   UNL d   1      32.505  22.401 -21.227  0.00  0.00     0.119 A 
ATOM     20  O   UNL d   1      32.186  23.145 -21.200  0.00  0.00    -0.300 OA
ATOM     21  C   UNL d   1      32.649  22.153 -20.456  0.00  0.00     0.119 A 
ATOM     22  C   UNL d   1      32.123  23.375 -20.419  0.00  0.00     0.304 A 
ATOM     23  O   UNL d   1      32.411  22.761 -19.950  0.00  0.00    -0.300 OA
ATOM     24  C   UNL d   1      32.979  21.404 -20.309  0.00  0.00     0.026 A 
ATOM     25  C   UNL d   1      33.162  20.913 -20.939  0.00  0.00     0.004 A 
ENDBRANCH  16  17
ENDBRANCH   2  16
TORSDOF 5
ENDMDL
MODEL 2
REMARK VINA RESULT:      -3.4      1.627      5.833
REMARK  5 active torsions:
REMARK  status: ('A' for Active; 'I' for Inactive)
REMARK    1  A    between atoms: S_6  and  C_2 
REMARK    2  A    between atoms: C_16  and  S_6 
REMARK    3  A    between atoms: C_8  and  C_16 
REMARK       I    between atoms: N_13  and  C_8 
REMARK    4  A    between atoms: C_19  and  N_13 
REMARK    5  A    between atoms: C_18  and  C_19 
ROOT
ATOM      1  C   UNL d   1      33.130  19.795 -22.935  0.00  0.00     0.286 C 
ATOM      2  N   UNL d   1      32.992  18.989 -22.918  0.00  0.00    -0.206 NA
ATOM      3  O   UNL d   1      33.221  20.182 -23.657  0.00  0.00    -0.265 OA
ENDROOT
BRANCH   1   4
ATOM      4  C   UNL d   1      33.179  20.228 -22.233  0.00  0.00     0.098 C 
BRANCH   4   5
ATOM      5  S   UNL d   1      33.061  21.047 -22.243  0.00  0.00    -0.080 SA
BRANCH   5   6
ATOM      6  C   UNL d   1      33.010  21.456 -21.530  0.00  0.00     0.049 A 
ATOM      7  C   UNL d   1      33.240  21.176 -20.785  0.00  0.00     0.087 A 
ATOM      8  N   UNL d   1      33.092  21.767 -20.228  0.00  0.00    -0.302 N 
ATOM      9  C   UNL d   1      32.770  22.415 -20.630  0.00  0.00     0.065 A 
ATOM     10  C   UNL d   1      33.235  21.729 -19.418  0.00  0.00     0.100 C 
ATOM     11  C   UNL d   1      32.720  22.220 -21.434  0.00  0.00     0.024 A 
ATOM     12  C   UNL d   1      32.514  23.160 -20.365  0.00  0.00     0.018 A 
ATOM     13  C   UNL d   1      32.416  22.769 -21.972  0.00  0.00     0.002 A 
ATOM     14  C   UNL d   1      32.163  23.507 -21.706  0.00  0.00     0.000 A 
ATOM     15  C   UNL d   1      32.212  23.702 -20.903  0.00  0.00     0.002 A 
ENDBRANCH   5   6
ENDBRANCH   4   5
ENDBRANCH   1   4
BRANCH   2  16
ATOM     16  C   UNL d   1      32.945  18.564 -23.614  0.00  0.00     0.102 C 
BRANCH  16  17
ATOM     17  C   UNL d   1      32.705  17.781 -23.637  0.00  0.00     0.021 A 
ATOM     18  C   UNL d   1      31.927  17.608 -23.860  0.00  0.00     0.028 A 
ATOM     19  C   UNL d   1      31.676  16.809 -23.886  0.00  0.00     0.119 A 
ATOM     20  O   UNL d   1      30.970  16.462 -24.076  0.00  0.00    -0.300 OA
ATOM     21  C   UNL d   1      32.212  16.216 -23.689  0.00  0.00     0.119 A 
ATOM     22  C   UNL d   1      31.047  15.653 -24.003  0.00  0.00     0.304 A 
ATOM     23  O   UNL d   1      31.820  15.493 -23.762  0.00  0.00    -0.300 OA
ATOM     24  C   UNL d   1      32.990  16.407 -23.467  0.00  0.00     0.026 A 
ATOM     25  C   UNL d   1      33.221  17.193 -23.446  0.00  0.00     0.004 A 
ENDBRANCH  16  17
ENDBRANCH   2  16
TORSDOF 5
ENDMDL
MODEL 3
REMARK VINA RESULT:      -2.3      2.205      5.481
REMARK  5 active torsions:
REMARK  status: ('A' for Active; 'I' for Inactive)
REMARK    1  A    between atoms: S_6  and  C_2 
REMARK    2  A    between atoms: C_16  and  S_6 
REMARK    3  A    between atoms: C_8  and  C_16 
REMARK       I    between atoms: N_13  and  C_8 
REMARK    4  A    between atoms: C_19  and  N_13 
REMARK    5  A    between atoms: C_18  and  C_19 
ROOT
ATOM      1  C   UNL d   1      32.452  17.675 -23.675  0.00  0.00     0.286 C 
ATOM      2  N   UNL d   1      31.783  17.276 -23.425  0.00  0.00    -0.206 NA
ATOM      3  O   UNL d   1      32.668  17.660 -24.470  0.00  0.00    -0.265 OA
ENDROOT
BRANCH   1   4
ATOM      4  C   UNL d   1      32.915  18.096 -23.136  0.00  0.00     0.098 C 
BRANCH   4   5
ATOM      5  S   UNL d   1      33.224  18.835 -23.343  0.00  0.00    -0.080 SA
BRANCH   5   6
ATOM      6  C   UNL d   1      33.220  19.444 -22.789  0.00  0.00     0.049 A 
ATOM      7  C   UNL d   1      33.213  19.358 -21.964  0.00  0.00     0.087 A 
ATOM      8  N   UNL d   1      33.212  20.111 -21.625  0.00  0.00    -0.302 N 
ATOM      9  C   UNL d   1      33.218  20.663 -22.241  0.00  0.00     0.065 A 
ATOM     10  C   UNL d   1      33.205  20.290 -20.821  0.00  0.00     0.100 C 
ATOM     11  C   UNL d   1      33.223  20.249 -22.958  0.00  0.00     0.024 A 
ATOM     12  C   UNL d   1      33.219  21.495 -22.239  0.00  0.00     0.018 A 
ATOM     13  C   UNL d   1      33.230  20.665 -23.674  0.00  0.00     0.002 A 
ATOM     14  C   UNL d   1      33.231  21.488 -23.669  0.00  0.00     0.000 A 
ATOM     15  C   UNL d   1      33.226  21.903 -22.952  0.00  0.00     0.002 A 
ENDBRANCH   5   6
ENDBRANCH   4   5
ENDBRANCH   1   4
BRANCH   2  16
ATOM     16  C   UNL d   1      31.327  16.862 -23.962  0.00  0.00     0.102 C 
BRANCH  16  17
ATOM     17  C   UNL d   1      30.581  16.574 -23.778  0.00  0.00     0.021 A 
ATOM     18  C   UNL d   1      29.917  16.989 -24.043  0.00  0.00     0.028 A 
ATOM     19  C   UNL d   1      29.153  16.701 -23.859  0.00  0.00     0.119 A 
ATOM     20  O   UNL d   1      28.409  16.970 -24.031  0.00  0.00    -0.300 OA
ATOM     21  C   UNL d   1      29.083  16.010 -23.417  0.00  0.00     0.119 A 
ATOM     22  C   UNL d   1      27.863  16.458 -23.704  0.00  0.00     0.304 A 
ATOM     23  O   UNL d   1      28.278  15.857 -23.320  0.00  0.00    -0.300 OA
ATOM     24  C   UNL d   1      29.761  15.605 -23.158  0.00  0.00     0.026 A 
ATOM     25  C   UNL d   1      30.503  15.899 -23.346  0.00  0.00     0.004 A 
ENDBRANCH  16  17
ENDBRANCH   2  16
TORSDOF 5
ENDMDL
