MODEL 1
REMARK VINA RESULT:      -7.8      0.000      0.000
REMARK  5 active torsions:
REMARK  status: ('A' for Active; 'I' for Inactive)
REMARK    1  A    between atoms: C_7  and  C_1 
REMARK    2  A    between atoms: C_8  and  N_2 
REMARK    3  A    between atoms: C_13  and  C_7 
REMARK    4  A    between atoms: C_14  and  C_8 
REMARK    5  A    between atoms: O_22  and  C_15 
ROOT
ATOM      1  C   UNL d   1     -48.082  12.650  22.990  0.00  0.00     0.095 A 
ATOM      2  N   UNL d   1     -47.650  14.029  22.934  0.00  0.00    -0.304 N 
ATOM      3  C   UNL d   1     -47.308  12.406  22.812  0.00  0.00     0.202 A 
ATOM      4  C   UNL d   1     -48.260  13.463  23.052  0.00  0.00     0.087 A 
ATOM      5  C   UNL d   1     -46.715  12.971  22.698  0.00  0.00     0.057 A 
ATOM      6  C   UNL d   1     -46.885  13.786  22.758  0.00  0.00     0.067 A 
ATOM      7  C   UNL d   1     -46.295  14.343  22.644  0.00  0.00     0.020 A 
ATOM      8  C   UNL d   1     -45.942  12.731  22.521  0.00  0.00     0.029 A 
ATOM      9  O   UNL d   1     -47.131  11.596  22.751  0.00  0.00    -0.286 OA
ATOM     10  C   UNL d   1     -45.354  13.299  22.408  0.00  0.00     0.094 A 
ATOM     11  C   UNL d   1     -45.529  14.101  22.469  0.00  0.00     0.026 A 
ENDROOT
BRANCH   1  12
ATOM     12  C   UNL d   1     -48.676  12.088  23.105  0.00  0.00     0.200 C 
ATOM     13  O   UNL d   1     -48.604  11.536  23.698  0.00  0.00    -0.286 OA
BRANCH  12  14
ATOM     14  C   UNL d   1     -49.340  12.093  22.614  0.00  0.00     0.039 A 
ATOM     15  C   UNL d   1     -49.243  12.129  21.797  0.00  0.00     0.003 A 
ATOM     16  C   UNL d   1     -49.908  12.134  21.314  0.00  0.00     0.000 A 
ATOM     17  C   UNL d   1     -50.665  12.102  21.646  0.00  0.00     0.000 A 
ATOM     18  C   UNL d   1     -50.749  12.067  22.468  0.00  0.00     0.000 A 
ATOM     19  C   UNL d   1     -50.085  12.062  22.958  0.00  0.00     0.003 A 
ENDBRANCH  12  14
ENDBRANCH   1  12
BRANCH   2  20
ATOM     20  C   UNL d   1     -47.825  14.830  22.995  0.00  0.00     0.080 C 
BRANCH  20  21
ATOM     21  C   UNL d   1     -48.615  15.081  22.990  0.00  0.00     0.018 A 
ATOM     22  C   UNL d   1     -49.036  15.098  23.698  0.00  0.00     0.002 A 
ATOM     23  C   UNL d   1     -49.819  15.346  23.696  0.00  0.00     0.000 A 
ATOM     24  C   UNL d   1     -50.179  15.574  22.999  0.00  0.00     0.000 A 
ATOM     25  C   UNL d   1     -49.748  15.554  22.289  0.00  0.00     0.000 A 
ATOM     26  C   UNL d   1     -50.962  15.822  22.997  0.00  0.00     0.000 C 
ATOM     27  C   UNL d   1     -48.965  15.306  22.290  0.00  0.00     0.002 A 
ENDBRANCH  20  21
ENDBRANCH   2  20
BRANCH  10  28
ATOM     28  O   UNL d   1     -44.587  13.049  22.232  0.00  0.00    -0.328 OA
ATOM     29  C   UNL d   1     -44.362  12.963  21.446  0.00  0.00     0.181 C 
ENDBRANCH  10  28
TORSDOF 5
ENDMDL
MODEL 2
REMARK VINA RESULT:      -6.2      8.484     10.282
REMARK  5 active torsions:
REMARK  status: ('A' for Active; 'I' for Inactive)
REMARK    1  A    between atoms: C_7  and  C_1 
REMARK    2  A    between atoms: C_8  and  N_2 
REMARK    3  A    between atoms: C_13  and  C_7 
REMARK    4  A    between atoms: C_14  and  C_8 
REMARK    5  A    between atoms: O_22  and  C_15 
ROOT
ATOM      1  C   UNL d   1     -40.126  14.488  19.340  0.00  0.00     0.095 A 
ATOM      2  N   UNL d   1     -39.219  14.289  18.231  0.00  0.00    -0.304 N 
ATOM      3  C   UNL d   1     -40.643  14.899  18.837  0.00  0.00     0.202 A 
ATOM      4  C   UNL d   1     -39.410  14.179  19.042  0.00  0.00     0.087 A 
ATOM      5  C   UNL d   1     -40.445  15.002  18.040  0.00  0.00     0.057 A 
ATOM      6  C   UNL d   1     -39.731  14.696  17.734  0.00  0.00     0.067 A 
ATOM      7  C   UNL d   1     -39.539  14.800  16.944  0.00  0.00     0.020 A 
ATOM      8  C   UNL d   1     -40.959  15.412  17.535  0.00  0.00     0.029 A 
ATOM      9  O   UNL d   1     -41.356  15.207  19.134  0.00  0.00    -0.286 OA
ATOM     10  C   UNL d   1     -40.757  15.512  16.741  0.00  0.00     0.094 A 
ATOM     11  C   UNL d   1     -40.051  15.207  16.447  0.00  0.00     0.026 A 
ENDROOT
BRANCH   1  12
ATOM     12  C   UNL d   1     -40.320  14.384  20.135  0.00  0.00     0.200 C 
ATOM     13  O   UNL d   1     -40.868  13.821  20.350  0.00  0.00    -0.286 OA
BRANCH  12  14
ATOM     14  C   UNL d   1     -39.955  14.854  20.708  0.00  0.00     0.039 A 
ATOM     15  C   UNL d   1     -39.168  14.716  20.907  0.00  0.00     0.003 A 
ATOM     16  C   UNL d   1     -38.811  15.187  21.477  0.00  0.00     0.000 A 
ATOM     17  C   UNL d   1     -39.237  15.792  21.846  0.00  0.00     0.000 A 
ATOM     18  C   UNL d   1     -40.026  15.921  21.637  0.00  0.00     0.000 A 
ATOM     19  C   UNL d   1     -40.392  15.451  21.065  0.00  0.00     0.003 A 
ENDBRANCH  12  14
ENDBRANCH   1  12
BRANCH   2  20
ATOM     20  C   UNL d   1     -38.513  13.985  17.937  0.00  0.00     0.080 C 
BRANCH  20  21
ATOM     21  C   UNL d   1     -38.373  13.169  17.966  0.00  0.00     0.018 A 
ATOM     22  C   UNL d   1     -38.080  12.835  18.659  0.00  0.00     0.002 A 
ATOM     23  C   UNL d   1     -37.940  12.027  18.691  0.00  0.00     0.000 A 
ATOM     24  C   UNL d   1     -38.089  11.555  18.040  0.00  0.00     0.000 A 
ATOM     25  C   UNL d   1     -38.385  11.899  17.344  0.00  0.00     0.000 A 
ATOM     26  C   UNL d   1     -37.949  10.746  18.072  0.00  0.00     0.000 C 
ATOM     27  C   UNL d   1     -38.526  12.708  17.312  0.00  0.00     0.002 A 
ENDBRANCH  20  21
ENDBRANCH   2  20
BRANCH  10  28
ATOM     28  O   UNL d   1     -41.276  15.922  16.246  0.00  0.00    -0.328 OA
ATOM     29  C   UNL d   1     -42.062  15.687  16.204  0.00  0.00     0.181 C 
ENDBRANCH  10  28
TORSDOF 5
ENDMDL
MODEL 3
REMARK VINA RESULT:      -4.9      6.844      9.329
REMARK  5 active torsions:
REMARK  status: ('A' for Active; 'I' for Inactive)
REMARK    1  A    between atoms: C_7  and  C_1 
REMARK    2  A    between atoms: C_8  and  N_2 
REMARK    3  A    between atoms: C_13  and  C_7 
REMARK    4  A    between atoms: C_14  and  C_8 
REMARK    5  A    between atoms: O_22  and  C_15 
ROOT
ATOM      1  C   UNL d   1     -39.092  15.369  20.466  0.00  0.00     0.095 A 
ATOM      2  N   UNL d   1     -40.416  15.411  19.887  0.00  0.00    -0.304 N 
ATOM      3  C   UNL d   1     -38.765  15.488  19.712  0.00  0.00     0.202 A 
ATOM      4  C   UNL d   1     -39.921  15.329  20.560  0.00  0.00     0.087 A 
ATOM      5  C   UNL d   1     -39.262  15.568  19.056  0.00  0.00     0.057 A 
ATOM      6  C   UNL d   1     -40.092  15.529  19.141  0.00  0.00     0.067 A 
ATOM      7  C   UNL d   1     -40.581  15.608  18.490  0.00  0.00     0.020 A 
ATOM      8  C   UNL d   1     -38.939  15.687  18.302  0.00  0.00     0.029 A 
ATOM      9  O   UNL d   1     -37.940  15.528  19.617  0.00  0.00    -0.286 OA
ATOM     10  C   UNL d   1     -39.440  15.766  17.651  0.00  0.00     0.094 A 
ATOM     11  C   UNL d   1     -40.257  15.726  17.744  0.00  0.00     0.026 A 
ENDROOT
BRANCH   1  12
ATOM     12  C   UNL d   1     -38.598  15.289  21.122  0.00  0.00     0.200 C 
ATOM     13  O   UNL d   1     -38.148  15.920  21.371  0.00  0.00    -0.286 OA
BRANCH  12  14
ATOM     14  C   UNL d   1     -38.565  14.567  21.521  0.00  0.00     0.039 A 
ATOM     15  C   UNL d   1     -38.245  13.908  21.145  0.00  0.00     0.003 A 
ATOM     16  C   UNL d   1     -38.216  13.192  21.547  0.00  0.00     0.000 A 
ATOM     17  C   UNL d   1     -38.504  13.135  22.320  0.00  0.00     0.000 A 
ATOM     18  C   UNL d   1     -38.823  13.804  22.687  0.00  0.00     0.000 A 
ATOM     19  C   UNL d   1     -38.856  14.527  22.288  0.00  0.00     0.003 A 
ENDBRANCH  12  14
ENDBRANCH   1  12
BRANCH   2  20
ATOM     20  C   UNL d   1     -41.233  15.372  19.980  0.00  0.00     0.080 C 
BRANCH  20  21
ATOM     21  C   UNL d   1     -41.575  14.711  20.346  0.00  0.00     0.018 A 
ATOM     22  C   UNL d   1     -41.931  14.798  21.083  0.00  0.00     0.002 A 
ATOM     23  C   UNL d   1     -42.270  14.145  21.447  0.00  0.00     0.000 A 
ATOM     24  C   UNL d   1     -42.256  13.414  21.082  0.00  0.00     0.000 A 
ATOM     25  C   UNL d   1     -41.895  13.334  20.338  0.00  0.00     0.000 A 
ATOM     26  C   UNL d   1     -42.596  12.761  21.447  0.00  0.00     0.000 C 
ATOM     27  C   UNL d   1     -41.555  13.987  19.973  0.00  0.00     0.002 A 
ENDBRANCH  20  21
ENDBRANCH   2  20
BRANCH  10  28
ATOM     28  O   UNL d   1     -39.108  15.884  16.904  0.00  0.00    -0.328 OA
ATOM     29  C   UNL d   1     -39.596  15.894  16.243  0.00  0.00     0.181 C 
ENDBRANCH  10  28
TORSDOF 5
ENDMDL
