MODEL 1
REMARK VINA RESULT:       0.8      0.000      0.000
REMARK  5 active torsions:
REMARK  status: ('A' for Active; 'I' for Inactive)
REMARK    1  A    between atoms: C_10  and  C_3 
REMARK    2  A    between atoms: N_12  and  C_4 
REMARK    3  A    between atoms: N_11  and  C_21 
REMARK    4  A    between atoms: C_20  and  N_12 
REMARK    5  A    between atoms: C_21  and  C_20 
ROOT
ATOM      1  C   UNL d   1      58.731  -1.434  29.968  0.00  0.00     0.168 A 
ATOM      2  N   UNL d   1      58.112  -0.983  30.339  0.00  0.00    -0.184 N 
ATOM      3  C   UNL d   1      58.665  -2.240  29.905  0.00  0.00     0.057 A 
ATOM      4  C   UNL d   1      58.194  -0.182  30.392  0.00  0.00     0.218 A 
ATOM      5  N   UNL d   1      57.388  -2.187  30.566  0.00  0.00    -0.160 NA
ATOM      6  N   UNL d   1      59.391  -1.053  29.675  0.00  0.00    -0.227 NA
ATOM      7  C   UNL d   1      58.856   0.212  30.100  0.00  0.00     0.071 A 
ATOM      8  C   UNL d   1      57.989  -2.624  30.206  0.00  0.00     0.124 A 
ATOM      9  C   UNL d   1      59.466  -0.232  29.735  0.00  0.00     0.087 A 
ATOM     10  C   UNL d   1      60.161   0.169  29.426  0.00  0.00     0.021 C 
ENDROOT
BRANCH   4  11
ATOM     11  N   UNL d   1      57.570   0.277  30.767  0.00  0.00    -0.379 NA
BRANCH  11  12
ATOM     12  C   UNL d   1      56.960   0.574  31.289  0.00  0.00     0.182 C 
BRANCH  12  13
ATOM     13  C   UNL d   1      57.136   0.681  32.101  0.00  0.00     0.116 C 
BRANCH  13  14
ATOM     14  N   UNL d   1      56.515   0.563  32.690  0.00  0.00    -0.297 N 
ATOM     15  C   UNL d   1      56.693   0.641  33.511  0.00  0.00     0.107 A 
ATOM     16  C   UNL d   1      56.070   0.522  34.106  0.00  0.00     0.142 A 
ATOM     17  O   UNL d   1      55.290   0.330  33.872  0.00  0.00    -0.300 OA
ATOM     18  C   UNL d   1      55.093   0.248  33.032  0.00  0.00     0.142 A 
ATOM     19  C   UNL d   1      55.710   0.365  32.436  0.00  0.00     0.107 A 
ENDBRANCH  13  14
ENDBRANCH  12  13
ENDBRANCH  11  12
ENDBRANCH   4  11
BRANCH   3  20
ATOM     20  C   UNL d   1      59.266  -2.677  29.546  0.00  0.00     0.005 A 
ATOM     21  C   UNL d   1      59.996  -2.733  29.903  0.00  0.00     0.001 A 
ATOM     22  C   UNL d   1      60.587  -3.163  29.549  0.00  0.00     0.011 A 
ATOM     23  C   UNL d   1      60.456  -3.544  28.832  0.00  0.00     0.058 A 
ATOM     24  C   UNL d   1      59.725  -3.487  28.476  0.00  0.00     0.011 A 
ATOM     25 CL   UNL d   1      61.085  -4.002  28.455  0.00  0.00    -0.082 Cl
ATOM     26  C   UNL d   1      59.125  -3.050  28.835  0.00  0.00     0.001 A 
ENDBRANCH   3  20
TORSDOF 5
ENDMDL
MODEL 2
REMARK VINA RESULT:       1.1      2.760      5.351
REMARK  5 active torsions:
REMARK  status: ('A' for Active; 'I' for Inactive)
REMARK    1  A    between atoms: C_10  and  C_3 
REMARK    2  A    between atoms: N_12  and  C_4 
REMARK    3  A    between atoms: N_11  and  C_21 
REMARK    4  A    between atoms: C_20  and  N_12 
REMARK    5  A    between atoms: C_21  and  C_20 
ROOT
ATOM      1  C   UNL d   1      57.387   0.197  32.160  0.00  0.00     0.168 A 
ATOM      2  N   UNL d   1      57.888   0.316  31.482  0.00  0.00    -0.184 N 
ATOM      3  C   UNL d   1      56.616  -0.035  32.060  0.00  0.00     0.057 A 
ATOM      4  C   UNL d   1      58.653   0.547  31.601  0.00  0.00     0.218 A 
ATOM      5  N   UNL d   1      56.804  -0.043  30.633  0.00  0.00    -0.160 NA
ATOM      6  N   UNL d   1      57.683   0.318  32.911  0.00  0.00    -0.227 NA
ATOM      7  C   UNL d   1      58.961   0.671  32.355  0.00  0.00     0.071 A 
ATOM      8  C   UNL d   1      56.318  -0.158  31.290  0.00  0.00     0.124 A 
ATOM      9  C   UNL d   1      58.467   0.555  33.022  0.00  0.00     0.087 A 
ATOM     10  C   UNL d   1      58.780   0.682  33.813  0.00  0.00     0.021 C 
ENDROOT
BRANCH   4  11
ATOM     11  N   UNL d   1      59.162   0.668  30.919  0.00  0.00    -0.379 NA
BRANCH  11  12
ATOM     12  C   UNL d   1      59.567   0.608  30.167  0.00  0.00     0.182 C 
BRANCH  12  13
ATOM     13  C   UNL d   1      59.313   0.034  29.612  0.00  0.00     0.116 C 
BRANCH  13  14
ATOM     14  N   UNL d   1      59.887  -0.520  29.281  0.00  0.00    -0.297 N 
ATOM     15  C   UNL d   1      60.552  -0.230  28.849  0.00  0.00     0.107 A 
ATOM     16  C   UNL d   1      61.131  -0.786  28.514  0.00  0.00     0.142 A 
ATOM     17  O   UNL d   1      61.037  -1.611  28.616  0.00  0.00    -0.300 OA
ATOM     18  C   UNL d   1      60.358  -1.923  29.058  0.00  0.00     0.142 A 
ATOM     19  C   UNL d   1      59.779  -1.373  29.393  0.00  0.00     0.107 A 
ENDBRANCH  13  14
ENDBRANCH  12  13
ENDBRANCH  11  12
ENDBRANCH   4  11
BRANCH   3  20
ATOM     20  C   UNL d   1      56.130  -0.150  32.716  0.00  0.00     0.005 A 
ATOM     21  C   UNL d   1      56.104  -0.880  33.079  0.00  0.00     0.001 A 
ATOM     22  C   UNL d   1      55.626  -0.993  33.725  0.00  0.00     0.011 A 
ATOM     23  C   UNL d   1      55.166  -0.378  34.019  0.00  0.00     0.058 A 
ATOM     24  C   UNL d   1      55.192   0.351  33.656  0.00  0.00     0.011 A 
ATOM     25 CL   UNL d   1      54.657  -0.499  34.707  0.00  0.00    -0.082 Cl
ATOM     26  C   UNL d   1      55.678   0.466  32.999  0.00  0.00     0.001 A 
ENDBRANCH   3  20
TORSDOF 5
ENDMDL
