MODEL 1
REMARK VINA RESULT:      11.1      0.000      0.000
REMARK  4 active torsions:
REMARK  status: ('A' for Active; 'I' for Inactive)
REMARK    1  A    between atoms: N_2  and  S_1 
REMARK    2  A    between atoms: C_3  and  S_1 
REMARK    3  A    between atoms: O_15  and  C_11 
REMARK    4  A    between atoms: O_17  and  C_13 
ROOT
ATOM      1  C   UNL d   1      46.285 -18.548  43.526  0.00  0.00     0.128 A 
ATOM      2  C   UNL d   1      46.071 -17.747  43.531  0.00  0.00     0.039 A 
ATOM      3  C   UNL d   1      46.397 -18.947  44.232  0.00  0.00     0.106 A 
ATOM      4  C   UNL d   1      46.296 -18.545  44.950  0.00  0.00     0.027 A 
ATOM      5  C   UNL d   1      45.971 -17.353  44.242  0.00  0.00     0.095 A 
ATOM      6  C   UNL d   1      46.084 -17.752  44.955  0.00  0.00     0.026 A 
ENDROOT
BRANCH   1   7
ATOM      7  S   UNL d   1      46.386 -18.951  42.810  0.00  0.00     0.274 S 
ATOM      8  O   UNL d   1      46.611 -18.252  42.439  0.00  0.00    -0.199 OA
ATOM      9  O   UNL d   1      46.160 -19.653  43.182  0.00  0.00    -0.199 OA
BRANCH   7  10
ATOM     10  N   UNL d   1      46.483 -19.357  42.109  0.00  0.00    -0.213 N 
ATOM     11  C   UNL d   1      46.555 -19.015  41.392  0.00  0.00     0.157 A 
ATOM     12  N   UNL d   1      46.645 -19.619  40.816  0.00  0.00    -0.224 NA
ATOM     13  C   UNL d   1      46.554 -18.221  41.159  0.00  0.00     0.041 C 
ATOM     14  C   UNL d   1      46.623 -20.330  41.227  0.00  0.00     0.120 A 
ATOM     15  C   UNL d   1      46.520 -20.157  42.047  0.00  0.00     0.114 A 
ENDBRANCH   7  10
ENDBRANCH   1   7
BRANCH   3  16
ATOM     16  O   UNL d   1      46.611 -19.748  44.227  0.00  0.00    -0.327 OA
ATOM     17  C   UNL d   1      46.586 -20.179  44.927  0.00  0.00     0.181 C 
ENDBRANCH   3  16
BRANCH   5  18
ATOM     18  O   UNL d   1      45.758 -16.554  44.247  0.00  0.00    -0.328 OA
ATOM     19  C   UNL d   1      45.311 -16.256  44.871  0.00  0.00     0.181 C 
ENDBRANCH   5  18
TORSDOF 4
ENDMDL
