MODEL 1
REMARK VINA RESULT:      -4.5      0.000      0.000
REMARK  9 active torsions:
REMARK  status: ('A' for Active; 'I' for Inactive)
REMARK    1  A    between atoms: C_2  and  C_1 
REMARK    2  A    between atoms: C_23  and  C_7 
REMARK    3  A    between atoms: C_12  and  O_16 
REMARK    4  A    between atoms: C_18  and  C_12 
REMARK    5  A    between atoms: O_16  and  C_14 
REMARK    6  A    between atoms: C_30  and  C_17 
REMARK    7  A    between atoms: C_20  and  C_28 
REMARK    8  A    between atoms: O_25  and  C_23 
REMARK    9  A    between atoms: C_28  and  O_25 
ROOT
ATOM      1  C   UNL d   1      51.517  33.847  52.976  0.00  0.00     0.098 A 
ATOM      2  C   UNL d   1      50.972  33.745  52.351  0.00  0.00     0.202 A 
ATOM      3  C   UNL d   1      50.303  34.225  52.299  0.00  0.00     0.062 A 
ATOM      4  C   UNL d   1      51.381  34.438  53.550  0.00  0.00     0.130 A 
ATOM      5  C   UNL d   1      50.167  34.816  52.873  0.00  0.00     0.105 A 
ATOM      6  O   UNL d   1      50.706  34.928  53.505  0.00  0.00    -0.305 OA
ATOM      7  C   UNL d   1      49.768  34.125  51.685  0.00  0.00     0.007 A 
ATOM      8  C   UNL d   1      48.964  35.190  52.201  0.00  0.00     0.105 A 
ATOM      9  C   UNL d   1      49.498  35.296  52.822  0.00  0.00     0.050 A 
ATOM     10  C   UNL d   1      49.098  34.605  51.634  0.00  0.00     0.023 A 
ATOM     11  O   UNL d   1      51.107  33.160  51.782  0.00  0.00    -0.286 OA
ENDROOT
BRANCH   1  12
ATOM     12  C   UNL d   1      52.187  33.365  53.025  0.00  0.00     0.153 A 
ATOM     13  N   UNL d   1      52.960  33.600  52.861  0.00  0.00    -0.227 NA
ATOM     14  C   UNL d   1      53.451  32.948  52.980  0.00  0.00     0.099 A 
ATOM     15  C   UNL d   1      54.264  32.852  52.903  0.00  0.00     0.021 A 
ATOM     16  C   UNL d   1      52.981  32.314  53.216  0.00  0.00     0.083 A 
ATOM     17  C   UNL d   1      54.611  32.121  53.063  0.00  0.00     0.002 A 
ATOM     18  C   UNL d   1      54.132  31.487  53.300  0.00  0.00     0.002 A 
ATOM     19  C   UNL d   1      53.323  31.583  53.376  0.00  0.00     0.019 A 
ATOM     20  N   UNL d   1      52.199  32.576  53.243  0.00  0.00    -0.288 N 
ATOM     21  C   UNL d   1      51.544  32.120  53.453  0.00  0.00     0.101 C 
ENDBRANCH   1  12
BRANCH   4  22
ATOM     22  C   UNL d   1      51.922  34.542  54.174  0.00  0.00     0.142 C 
BRANCH  22  23
ATOM     23  O   UNL d   1      52.118  35.301  54.431  0.00  0.00    -0.315 OA
BRANCH  23  24
ATOM     24  C   UNL d   1      52.614  35.401  55.087  0.00  0.00     0.246 C 
BRANCH  24  25
ATOM     25  C   UNL d   1      53.255  35.925  55.038  0.00  0.00     0.217 C 
ATOM     26  O   UNL d   1      54.023  35.668  55.205  0.00  0.00    -0.645 OA
ATOM     27  O   UNL d   1      53.120  36.709  54.820  0.00  0.00    -0.645 OA
ENDBRANCH  24  25
ENDBRANCH  23  24
ENDBRANCH  22  23
ENDBRANCH   4  22
BRANCH  10  28
ATOM     28  C   UNL d   1      48.561  34.500  51.012  0.00  0.00     0.002 C 
ATOM     29  C   UNL d   1      48.441  33.748  50.693  0.00  0.00     0.000 C 
ENDBRANCH  10  28
BRANCH   8  30
ATOM     30  O   UNL d   1      48.294  35.670  52.150  0.00  0.00    -0.276 OA
BRANCH  30  31
ATOM     31  C   UNL d   1      48.048  36.109  52.805  0.00  0.00     0.275 C 
ATOM     32  O   UNL d   1      48.572  36.255  53.426  0.00  0.00    -0.264 OA
BRANCH  31  33
ATOM     33  C   UNL d   1      47.274  36.404  52.839  0.00  0.00     0.078 C 
ATOM     34  C   UNL d   1      46.497  36.699  52.876  0.00  0.00     0.010 C 
ATOM     35  C   UNL d   1      47.359  36.709  52.077  0.00  0.00     0.010 C 
ATOM     36  C   UNL d   1      47.197  36.094  53.606  0.00  0.00     0.010 C 
ENDBRANCH  31  33
ENDBRANCH  30  31
ENDBRANCH   8  30
TORSDOF 9
ENDMDL
MODEL 2
REMARK VINA RESULT:      -3.6      2.134      5.632
REMARK  9 active torsions:
REMARK  status: ('A' for Active; 'I' for Inactive)
REMARK    1  A    between atoms: C_2  and  C_1 
REMARK    2  A    between atoms: C_23  and  C_7 
REMARK    3  A    between atoms: C_12  and  O_16 
REMARK    4  A    between atoms: C_18  and  C_12 
REMARK    5  A    between atoms: O_16  and  C_14 
REMARK    6  A    between atoms: C_30  and  C_17 
REMARK    7  A    between atoms: C_20  and  C_28 
REMARK    8  A    between atoms: O_25  and  C_23 
REMARK    9  A    between atoms: C_28  and  O_25 
ROOT
ATOM      1  C   UNL d   1      48.229  35.309  52.432  0.00  0.00     0.098 A 
ATOM      2  C   UNL d   1      48.810  34.843  52.054  0.00  0.00     0.202 A 
ATOM      3  C   UNL d   1      49.544  34.721  52.410  0.00  0.00     0.062 A 
ATOM      4  C   UNL d   1      48.396  35.653  53.175  0.00  0.00     0.130 A 
ATOM      5  C   UNL d   1      49.710  35.065  53.152  0.00  0.00     0.105 A 
ATOM      6  O   UNL d   1      49.136  35.535  53.542  0.00  0.00    -0.305 OA
ATOM      7  C   UNL d   1      50.115  34.263  52.039  0.00  0.00     0.007 A 
ATOM      8  C   UNL d   1      51.014  34.483  53.130  0.00  0.00     0.105 A 
ATOM      9  C   UNL d   1      50.444  34.945  53.510  0.00  0.00     0.050 A 
ATOM     10  C   UNL d   1      50.849  34.143  52.396  0.00  0.00     0.023 A 
ATOM     11  O   UNL d   1      48.645  34.502  51.318  0.00  0.00    -0.286 OA
ENDROOT
BRANCH   1  12
ATOM     12  C   UNL d   1      47.495  35.429  52.072  0.00  0.00     0.153 A 
ATOM     13  N   UNL d   1      46.843  34.928  52.136  0.00  0.00    -0.227 NA
ATOM     14  C   UNL d   1      46.230  35.256  51.692  0.00  0.00     0.099 A 
ATOM     15  C   UNL d   1      45.460  35.006  51.551  0.00  0.00     0.021 A 
ATOM     16  C   UNL d   1      46.505  35.957  51.356  0.00  0.00     0.083 A 
ATOM     17  C   UNL d   1      44.959  35.456  51.073  0.00  0.00     0.002 A 
ATOM     18  C   UNL d   1      45.242  36.160  50.739  0.00  0.00     0.002 A 
ATOM     19  C   UNL d   1      46.009  36.409  50.879  0.00  0.00     0.019 A 
ATOM     20  N   UNL d   1      47.288  36.060  51.594  0.00  0.00    -0.288 N 
ATOM     21  C   UNL d   1      47.776  36.692  51.385  0.00  0.00     0.101 C 
ENDBRANCH   1  12
BRANCH   4  22
ATOM     22  C   UNL d   1      47.818  36.118  53.554  0.00  0.00     0.142 C 
BRANCH  22  23
ATOM     23  O   UNL d   1      47.684  36.033  54.364  0.00  0.00    -0.315 OA
BRANCH  23  24
ATOM     24  C   UNL d   1      47.515  36.699  54.827  0.00  0.00     0.246 C 
BRANCH  24  25
ATOM     25  C   UNL d   1      46.857  36.687  55.333  0.00  0.00     0.217 C 
ATOM     26  O   UNL d   1      46.957  36.700  56.154  0.00  0.00    -0.645 OA
ATOM     27  O   UNL d   1      46.099  36.663  55.010  0.00  0.00    -0.645 OA
ENDBRANCH  24  25
ENDBRANCH  23  24
ENDBRANCH  22  23
ENDBRANCH   4  22
BRANCH  10  28
ATOM     28  C   UNL d   1      51.422  33.679  52.017  0.00  0.00     0.002 C 
ATOM     29  C   UNL d   1      51.632  33.841  51.235  0.00  0.00     0.000 C 
ENDBRANCH  10  28
BRANCH   8  30
ATOM     30  O   UNL d   1      51.748  34.362  53.488  0.00  0.00    -0.276 OA
BRANCH  30  31
ATOM     31  C   UNL d   1      52.050  34.923  54.014  0.00  0.00     0.275 C 
ATOM     32  O   UNL d   1      51.602  35.586  54.214  0.00  0.00    -0.264 OA
BRANCH  31  33
ATOM     33  C   UNL d   1      52.804  34.819  54.341  0.00  0.00     0.078 C 
ATOM     34  C   UNL d   1      53.563  34.717  54.668  0.00  0.00     0.010 C 
ATOM     35  C   UNL d   1      52.559  34.107  54.677  0.00  0.00     0.010 C 
ATOM     36  C   UNL d   1      53.044  35.537  53.999  0.00  0.00     0.010 C 
ENDBRANCH  31  33
ENDBRANCH  30  31
ENDBRANCH   8  30
TORSDOF 9
ENDMDL
