MODEL 1
REMARK VINA RESULT:      -6.3      0.000      0.000
REMARK  3 active torsions:
REMARK  status: ('A' for Active; 'I' for Inactive)
REMARK       I    between atoms: C_2  and  N_1 
REMARK    1  A    between atoms: C_4  and  N_1 
REMARK    2  A    between atoms: C_5  and  N_1 
REMARK    3  A    between atoms: C_6  and  C_2 
ROOT
ATOM      1  N   UNL d   1     -48.479  12.989  22.412  0.00  0.00    -0.274 N 
ATOM      2  C   UNL d   1     -48.836  12.504  22.999  0.00  0.00     0.276 C 
ATOM      3  O   UNL d   1     -48.444  12.365  23.698  0.00  0.00    -0.266 OA
ENDROOT
BRANCH   1   4
ATOM      4  C   UNL d   1     -47.738  13.322  22.543  0.00  0.00     0.067 A 
ATOM      5  C   UNL d   1     -47.049  12.885  22.415  0.00  0.00     0.018 A 
ATOM      6  C   UNL d   1     -46.318  13.251  22.557  0.00  0.00     0.002 A 
ATOM      7  C   UNL d   1     -46.278  14.032  22.819  0.00  0.00     0.000 A 
ATOM      8  C   UNL d   1     -46.963  14.452  22.942  0.00  0.00     0.002 A 
ATOM      9  C   UNL d   1     -47.701  14.103  22.805  0.00  0.00     0.018 A 
ENDBRANCH   1   4
BRANCH   1  10
ATOM     10  C   UNL d   1     -48.886  13.119  21.713  0.00  0.00     0.067 C 
ATOM     11  C   UNL d   1     -48.750  12.596  21.063  0.00  0.00     0.019 C 
ATOM     12  C   UNL d   1     -49.421  13.736  21.617  0.00  0.00     0.019 C 
ENDBRANCH   1  10
BRANCH   2  13
ATOM     13  C   UNL d   1     -49.574  12.179  22.854  0.00  0.00     0.129 C 
ATOM     14 CL   UNL d   1     -49.923  11.712  23.442  0.00  0.00    -0.076 Cl
ENDBRANCH   2  13
TORSDOF 3
ENDMDL
MODEL 2
REMARK VINA RESULT:      -6.1      1.392      2.674
REMARK  3 active torsions:
REMARK  status: ('A' for Active; 'I' for Inactive)
REMARK       I    between atoms: C_2  and  N_1 
REMARK    1  A    between atoms: C_4  and  N_1 
REMARK    2  A    between atoms: C_5  and  N_1 
REMARK    3  A    between atoms: C_6  and  C_2 
ROOT
ATOM      1  N   UNL d   1     -47.914  12.386  23.004  0.00  0.00    -0.274 N 
ATOM      2  C   UNL d   1     -47.528  11.715  23.330  0.00  0.00     0.276 C 
ATOM      3  O   UNL d   1     -47.965  11.062  23.542  0.00  0.00    -0.266 OA
ENDROOT
BRANCH   1   4
ATOM      4  C   UNL d   1     -48.731  12.384  22.898  0.00  0.00     0.067 A 
ATOM      5  C   UNL d   1     -49.063  12.161  22.176  0.00  0.00     0.018 A 
ATOM      6  C   UNL d   1     -49.889  12.170  22.103  0.00  0.00     0.002 A 
ATOM      7  C   UNL d   1     -50.369  12.396  22.735  0.00  0.00     0.000 A 
ATOM      8  C   UNL d   1     -50.031  12.614  23.441  0.00  0.00     0.002 A 
ATOM      9  C   UNL d   1     -49.208  12.611  23.531  0.00  0.00     0.018 A 
ENDBRANCH   1   4
BRANCH   1  10
ATOM     10  C   UNL d   1     -47.460  13.035  22.796  0.00  0.00     0.067 C 
ATOM     11  C   UNL d   1     -47.167  13.086  22.005  0.00  0.00     0.019 C 
ATOM     12  C   UNL d   1     -47.278  13.638  23.324  0.00  0.00     0.019 C 
ENDBRANCH   1  10
BRANCH   2  13
ATOM     13  C   UNL d   1     -46.714  11.731  23.430  0.00  0.00     0.129 C 
ATOM     14 CL   UNL d   1     -46.334  11.046  23.698  0.00  0.00    -0.076 Cl
ENDBRANCH   2  13
TORSDOF 3
ENDMDL
MODEL 3
REMARK VINA RESULT:      -5.8      1.504      2.080
REMARK  3 active torsions:
REMARK  status: ('A' for Active; 'I' for Inactive)
REMARK       I    between atoms: C_2  and  N_1 
REMARK    1  A    between atoms: C_4  and  N_1 
REMARK    2  A    between atoms: C_5  and  N_1 
REMARK    3  A    between atoms: C_6  and  C_2 
ROOT
ATOM      1  N   UNL d   1     -48.571  12.782  23.028  0.00  0.00    -0.274 N 
ATOM      2  C   UNL d   1     -47.794  12.581  23.279  0.00  0.00     0.276 C 
ATOM      3  O   UNL d   1     -47.234  13.164  23.361  0.00  0.00    -0.266 OA
ENDROOT
BRANCH   1   4
ATOM      4  C   UNL d   1     -48.764  13.566  22.865  0.00  0.00     0.067 A 
ATOM      5  C   UNL d   1     -48.585  13.903  22.134  0.00  0.00     0.018 A 
ATOM      6  C   UNL d   1     -48.793  14.695  22.003  0.00  0.00     0.002 A 
ATOM      7  C   UNL d   1     -49.170  15.137  22.588  0.00  0.00     0.000 A 
ATOM      8  C   UNL d   1     -49.342  14.795  23.305  0.00  0.00     0.002 A 
ATOM      9  C   UNL d   1     -49.141  14.005  23.452  0.00  0.00     0.018 A 
ENDBRANCH   1   4
BRANCH   1  10
ATOM     10  C   UNL d   1     -49.124  12.183  22.950  0.00  0.00     0.067 C 
ATOM     11  C   UNL d   1     -49.202  11.800  22.201  0.00  0.00     0.019 C 
ATOM     12  C   UNL d   1     -49.605  11.939  23.570  0.00  0.00     0.019 C 
ENDBRANCH   1  10
BRANCH   2  13
ATOM     13  C   UNL d   1     -47.616  11.796  23.438  0.00  0.00     0.129 C 
ATOM     14 CL   UNL d   1     -46.853  11.608  23.698  0.00  0.00    -0.076 Cl
ENDBRANCH   2  13
TORSDOF 3
ENDMDL
