MODEL 1
REMARK VINA RESULT:      -6.1      0.000      0.000
REMARK  2 active torsions:
REMARK  status: ('A' for Active; 'I' for Inactive)
REMARK    1  A    between atoms: C_6  and  C_1 
REMARK    2  A    between atoms: C_7  and  C_5 
ROOT
ATOM      1  C   UNL d   1      57.749  -0.326  30.631  0.00  0.00     0.169 A 
ATOM      2  C   UNL d   1      57.331   0.096  31.224  0.00  0.00     0.048 A 
ATOM      3  N   UNL d   1      56.989  -1.203  31.329  0.00  0.00    -0.148 NA
ATOM      4  N   UNL d   1      57.536  -1.114  30.701  0.00  0.00    -0.142 NA
ATOM      5  C   UNL d   1      56.870  -0.435  31.647  0.00  0.00     0.105 A 
ENDROOT
BRANCH   5   6
ATOM      6  C   UNL d   1      56.372  -0.257  32.278  0.00  0.00     0.019 A 
ATOM      7  C   UNL d   1      55.960  -0.863  32.657  0.00  0.00     0.002 A 
ATOM      8  C   UNL d   1      55.461  -0.690  33.288  0.00  0.00     0.011 A 
ATOM      9  C   UNL d   1      55.358   0.082  33.558  0.00  0.00     0.058 A 
ATOM     10  C   UNL d   1      55.772   0.682  33.175  0.00  0.00     0.011 A 
ATOM     11 CL   UNL d   1      54.869   0.249  34.175  0.00  0.00    -0.082 Cl
ATOM     12  C   UNL d   1      56.277   0.522  32.539  0.00  0.00     0.002 A 
ENDBRANCH   5   6
BRANCH   1  13
ATOM     13  C   UNL d   1      58.280   0.005  30.079  0.00  0.00     0.231 C 
ATOM     14  O   UNL d   1      58.999   0.345  30.323  0.00  0.00    -0.643 OA
ATOM     15  O   UNL d   1      58.071  -0.014  29.270  0.00  0.00    -0.643 OA
ENDBRANCH   1  13
TORSDOF 2
ENDMDL
MODEL 2
REMARK VINA RESULT:      -5.4      2.761      3.701
REMARK  2 active torsions:
REMARK  status: ('A' for Active; 'I' for Inactive)
REMARK    1  A    between atoms: C_6  and  C_1 
REMARK    2  A    between atoms: C_7  and  C_5 
ROOT
ATOM      1  C   UNL d   1      55.444   0.047  33.572  0.00  0.00     0.169 A 
ATOM      2  C   UNL d   1      55.941   0.384  32.985  0.00  0.00     0.048 A 
ATOM      3  N   UNL d   1      55.970  -0.954  32.827  0.00  0.00    -0.148 NA
ATOM      4  N   UNL d   1      55.466  -0.766  33.470  0.00  0.00    -0.142 NA
ATOM      5  C   UNL d   1      56.260  -0.223  32.533  0.00  0.00     0.105 A 
ENDROOT
BRANCH   5   6
ATOM      6  C   UNL d   1      56.777  -0.140  31.899  0.00  0.00     0.019 A 
ATOM      7  C   UNL d   1      57.024  -0.809  31.482  0.00  0.00     0.002 A 
ATOM      8  C   UNL d   1      57.541  -0.731  30.846  0.00  0.00     0.011 A 
ATOM      9  C   UNL d   1      57.825   0.006  30.609  0.00  0.00     0.058 A 
ATOM     10  C   UNL d   1      57.575   0.668  31.029  0.00  0.00     0.011 A 
ATOM     11 CL   UNL d   1      58.330   0.079  29.987  0.00  0.00    -0.082 Cl
ATOM     12  C   UNL d   1      57.056   0.605  31.669  0.00  0.00     0.002 A 
ENDBRANCH   5   6
BRANCH   1  13
ATOM     13  C   UNL d   1      55.012   0.470  34.148  0.00  0.00     0.231 C 
ATOM     14  O   UNL d   1      54.218   0.682  34.020  0.00  0.00    -0.643 OA
ATOM     15  O   UNL d   1      55.399   0.675  34.859  0.00  0.00    -0.643 OA
ENDBRANCH   1  13
TORSDOF 2
ENDMDL
MODEL 3
REMARK VINA RESULT:      -5.0      0.950      1.300
REMARK  2 active torsions:
REMARK  status: ('A' for Active; 'I' for Inactive)
REMARK    1  A    between atoms: C_6  and  C_1 
REMARK    2  A    between atoms: C_7  and  C_5 
ROOT
ATOM      1  C   UNL d   1      57.906  -0.595  30.303  0.00  0.00     0.169 A 
ATOM      2  C   UNL d   1      57.487  -0.816  30.996  0.00  0.00     0.048 A 
ATOM      3  N   UNL d   1      57.373   0.519  30.857  0.00  0.00    -0.148 NA
ATOM      4  N   UNL d   1      57.832   0.218  30.225  0.00  0.00    -0.142 NA
ATOM      5  C   UNL d   1      57.164  -0.141  31.332  0.00  0.00     0.105 A 
ENDROOT
BRANCH   5   6
ATOM      6  C   UNL d   1      56.710  -0.105  32.018  0.00  0.00     0.019 A 
ATOM      7  C   UNL d   1      56.578   0.623  32.384  0.00  0.00     0.002 A 
ATOM      8  C   UNL d   1      56.125   0.664  33.070  0.00  0.00     0.011 A 
ATOM      9  C   UNL d   1      55.794  -0.011  33.409  0.00  0.00     0.058 A 
ATOM     10  C   UNL d   1      55.930  -0.734  33.039  0.00  0.00     0.011 A 
ATOM     11 CL   UNL d   1      55.351   0.031  34.080  0.00  0.00    -0.082 Cl
ATOM     12  C   UNL d   1      56.383  -0.789  32.349  0.00  0.00     0.002 A 
ENDBRANCH   5   6
BRANCH   1  13
ATOM     13  C   UNL d   1      58.318  -1.113  29.794  0.00  0.00     0.231 C 
ATOM     14  O   UNL d   1      58.103  -1.914  29.730  0.00  0.00    -0.643 OA
ATOM     15  O   UNL d   1      58.954  -0.806  29.349  0.00  0.00    -0.643 OA
ENDBRANCH   1  13
TORSDOF 2
ENDMDL
MODEL 4
REMARK VINA RESULT:      -4.7      2.630      3.812
REMARK  2 active torsions:
REMARK  status: ('A' for Active; 'I' for Inactive)
REMARK    1  A    between atoms: C_6  and  C_1 
REMARK    2  A    between atoms: C_7  and  C_5 
ROOT
ATOM      1  C   UNL d   1      56.495  -0.495  32.478  0.00  0.00     0.169 A 
ATOM      2  C   UNL d   1      56.706  -0.632  31.677  0.00  0.00     0.048 A 
ATOM      3  N   UNL d   1      57.526   0.322  32.159  0.00  0.00    -0.148 NA
ATOM      4  N   UNL d   1      56.997   0.086  32.765  0.00  0.00    -0.142 NA
ATOM      5  C   UNL d   1      57.331  -0.136  31.484  0.00  0.00     0.105 A 
ENDROOT
BRANCH   5   6
ATOM      6  C   UNL d   1      57.710  -0.089  30.755  0.00  0.00     0.019 A 
ATOM      7  C   UNL d   1      57.725   0.630  30.348  0.00  0.00     0.002 A 
ATOM      8  C   UNL d   1      58.103   0.682  29.618  0.00  0.00     0.011 A 
ATOM      9  C   UNL d   1      58.473   0.029  29.276  0.00  0.00     0.058 A 
ATOM     10  C   UNL d   1      58.454  -0.683  29.688  0.00  0.00     0.011 A 
ATOM     11 CL   UNL d   1      58.841   0.083  28.563  0.00  0.00    -0.082 Cl
ATOM     12  C   UNL d   1      58.078  -0.751  30.421  0.00  0.00     0.002 A 
ENDBRANCH   5   6
BRANCH   1  13
ATOM     13  C   UNL d   1      55.885  -0.883  32.896  0.00  0.00     0.231 C 
ATOM     14  O   UNL d   1      55.868  -1.712  32.959  0.00  0.00    -0.643 OA
ATOM     15  O   UNL d   1      55.290  -0.416  33.250  0.00  0.00    -0.643 OA
ENDBRANCH   1  13
TORSDOF 2
ENDMDL
