MODEL 1
REMARK VINA RESULT:      -8.3      0.000      0.000
REMARK  4 active torsions:
REMARK  status: ('A' for Active; 'I' for Inactive)
REMARK    1  A    between atoms: C_11  and  C_4 
REMARK    2  A    between atoms: C_9  and  C_5 
REMARK    3  A    between atoms: O_21  and  C_16 
REMARK    4  A    between atoms: O_22  and  C_17 
ROOT
ATOM      1  N   UNL d   1      52.381  33.239  53.118  0.00  0.00    -0.185 N 
ATOM      2  C   UNL d   1      53.104  33.341  53.510  0.00  0.00     0.219 A 
ATOM      3  N   UNL d   1      52.258  32.434  53.021  0.00  0.00    -0.153 NA
ATOM      4  C   UNL d   1      52.059  33.985  52.975  0.00  0.00     0.187 A 
ATOM      5  C   UNL d   1      52.903  32.029  53.351  0.00  0.00     0.156 A 
ATOM      6  S   UNL d   1      53.427  32.595  53.654  0.00  0.00    -0.024 SA
ATOM      7  N   UNL d   1      52.584  34.546  53.279  0.00  0.00    -0.127 NA
ATOM      8  N   UNL d   1      53.228  34.156  53.609  0.00  0.00    -0.120 NA
ENDROOT
BRANCH   4   9
ATOM      9  C   UNL d   1      51.345  34.144  52.599  0.00  0.00     0.040 A 
ATOM     10  C   UNL d   1      50.694  34.375  53.047  0.00  0.00     0.029 A 
ATOM     11  C   UNL d   1      49.982  34.534  52.679  0.00  0.00     0.116 A 
ATOM     12  C   UNL d   1      49.910  34.465  51.856  0.00  0.00     0.116 A 
ATOM     13  C   UNL d   1      50.567  34.233  51.407  0.00  0.00     0.026 A 
ATOM     14  C   UNL d   1      51.282  34.073  51.782  0.00  0.00     0.005 A 
BRANCH  11  15
ATOM     15  O   UNL d   1      49.322  34.767  53.121  0.00  0.00    -0.326 OA
ATOM     16  C   UNL d   1      49.366  35.405  53.637  0.00  0.00     0.181 C 
ENDBRANCH  11  15
BRANCH  12  17
ATOM     17  O   UNL d   1      49.190  34.626  51.473  0.00  0.00    -0.326 OA
ATOM     18  C   UNL d   1      49.114  34.445  50.674  0.00  0.00     0.181 C 
ENDBRANCH  12  17
ENDBRANCH   4   9
BRANCH   5  19
ATOM     19  C   UNL d   1      53.005  31.211  53.374  0.00  0.00     0.126 A 
ATOM     20  O   UNL d   1      53.217  30.766  54.029  0.00  0.00    -0.298 OA
ATOM     21  C   UNL d   1      53.255  29.974  53.800  0.00  0.00     0.134 A 
ATOM     22 BR   UNL d   1      53.449  29.338  54.290  0.00  0.00    -0.022 Br
ATOM     23  C   UNL d   1      53.066  29.928  53.001  0.00  0.00     0.034 A 
ATOM     24  C   UNL d   1      52.910  30.697  52.735  0.00  0.00     0.029 A 
ENDBRANCH   5  19
TORSDOF 4
ENDMDL
MODEL 2
REMARK VINA RESULT:      -7.5      0.663      1.314
REMARK  4 active torsions:
REMARK  status: ('A' for Active; 'I' for Inactive)
REMARK    1  A    between atoms: C_11  and  C_4 
REMARK    2  A    between atoms: C_9  and  C_5 
REMARK    3  A    between atoms: O_21  and  C_16 
REMARK    4  A    between atoms: O_22  and  C_17 
ROOT
ATOM      1  N   UNL d   1      52.817  32.982  53.340  0.00  0.00    -0.185 N 
ATOM      2  C   UNL d   1      53.637  32.979  53.463  0.00  0.00     0.219 A 
ATOM      3  N   UNL d   1      52.559  32.203  53.345  0.00  0.00    -0.153 NA
ATOM      4  C   UNL d   1      52.572  33.765  53.259  0.00  0.00     0.187 A 
ATOM      5  C   UNL d   1      53.215  31.711  53.472  0.00  0.00     0.156 A 
ATOM      6  S   UNL d   1      53.883  32.195  53.544  0.00  0.00    -0.024 SA
ATOM      7  N   UNL d   1      53.242  34.245  53.332  0.00  0.00    -0.127 NA
ATOM      8  N   UNL d   1      53.898  33.767  53.458  0.00  0.00    -0.120 NA
ENDROOT
BRANCH   4   9
ATOM      9  C   UNL d   1      51.803  34.025  53.128  0.00  0.00     0.040 A 
ATOM     10  C   UNL d   1      51.496  34.011  52.364  0.00  0.00     0.029 A 
ATOM     11  C   UNL d   1      50.732  34.268  52.229  0.00  0.00     0.116 A 
ATOM     12  C   UNL d   1      50.263  34.543  52.855  0.00  0.00     0.116 A 
ATOM     13  C   UNL d   1      50.576  34.555  53.623  0.00  0.00     0.026 A 
ATOM     14  C   UNL d   1      51.345  34.296  53.754  0.00  0.00     0.005 A 
BRANCH  11  15
ATOM     15  O   UNL d   1      50.414  34.258  51.464  0.00  0.00    -0.326 OA
ATOM     16  C   UNL d   1      50.890  34.396  50.809  0.00  0.00     0.181 C 
ENDBRANCH  11  15
BRANCH  12  17
ATOM     17  O   UNL d   1      49.485  34.806  52.726  0.00  0.00    -0.326 OA
ATOM     18  C   UNL d   1      49.121  35.272  53.298  0.00  0.00     0.181 C 
ENDBRANCH  12  17
ENDBRANCH   4   9
BRANCH   5  19
ATOM     19  C   UNL d   1      53.204  30.888  53.517  0.00  0.00     0.126 A 
ATOM     20  O   UNL d   1      53.364  30.435  54.182  0.00  0.00    -0.298 OA
ATOM     21  C   UNL d   1      53.289  29.640  53.975  0.00  0.00     0.134 A 
ATOM     22 BR   UNL d   1      53.402  28.996  54.482  0.00  0.00    -0.022 Br
ATOM     23  C   UNL d   1      53.082  29.598  53.181  0.00  0.00     0.034 A 
ATOM     24  C   UNL d   1      53.029  30.374  52.894  0.00  0.00     0.029 A 
ENDBRANCH   5  19
TORSDOF 4
ENDMDL
MODEL 3
REMARK VINA RESULT:      -7.2      1.782      4.770
REMARK  4 active torsions:
REMARK  status: ('A' for Active; 'I' for Inactive)
REMARK    1  A    between atoms: C_11  and  C_4 
REMARK    2  A    between atoms: C_9  and  C_5 
REMARK    3  A    between atoms: O_21  and  C_16 
REMARK    4  A    between atoms: O_22  and  C_17 
ROOT
ATOM      1  N   UNL d   1      53.086  32.754  53.581  0.00  0.00    -0.185 N 
ATOM      2  C   UNL d   1      53.444  33.501  53.551  0.00  0.00     0.219 A 
ATOM      3  N   UNL d   1      52.316  32.832  53.308  0.00  0.00    -0.153 NA
ATOM      4  C   UNL d   1      53.638  32.216  53.874  0.00  0.00     0.187 A 
ATOM      5  C   UNL d   1      52.189  33.627  53.106  0.00  0.00     0.156 A 
ATOM      6  S   UNL d   1      52.890  34.040  53.258  0.00  0.00    -0.024 SA
ATOM      7  N   UNL d   1      54.337  32.632  54.024  0.00  0.00    -0.127 NA
ATOM      8  N   UNL d   1      54.222  33.422  53.827  0.00  0.00    -0.120 NA
ENDROOT
BRANCH   4   9
ATOM      9  C   UNL d   1      53.519  31.411  53.995  0.00  0.00     0.040 A 
ATOM     10  C   UNL d   1      53.449  30.911  53.345  0.00  0.00     0.029 A 
ATOM     11  C   UNL d   1      53.330  30.110  53.459  0.00  0.00     0.116 A 
ATOM     12  C   UNL d   1      53.280  29.797  54.225  0.00  0.00     0.116 A 
ATOM     13  C   UNL d   1      53.351  30.305  54.878  0.00  0.00     0.026 A 
ATOM     14  C   UNL d   1      53.470  31.110  54.758  0.00  0.00     0.005 A 
BRANCH  11  15
ATOM     15  O   UNL d   1      53.258  29.599  52.812  0.00  0.00    -0.326 OA
ATOM     16  C   UNL d   1      52.945  29.863  52.100  0.00  0.00     0.181 C 
ENDBRANCH  11  15
BRANCH  12  17
ATOM     17  O   UNL d   1      53.160  28.985  54.351  0.00  0.00    -0.326 OA
ATOM     18  C   UNL d   1      53.358  28.659  55.080  0.00  0.00     0.181 C 
ENDBRANCH  12  17
ENDBRANCH   4   9
BRANCH   5  19
ATOM     19  C   UNL d   1      51.491  33.948  52.808  0.00  0.00     0.126 A 
ATOM     20  O   UNL d   1      50.846  34.201  53.248  0.00  0.00    -0.298 OA
ATOM     21  C   UNL d   1      50.273  34.482  52.724  0.00  0.00     0.134 A 
ATOM     22 BR   UNL d   1      49.535  34.789  52.935  0.00  0.00    -0.022 Br
ATOM     23  C   UNL d   1      50.562  34.402  51.959  0.00  0.00     0.034 A 
ATOM     24  C   UNL d   1      51.320  34.070  52.010  0.00  0.00     0.029 A 
ENDBRANCH   5  19
TORSDOF 4
ENDMDL
MODEL 4
REMARK VINA RESULT:      -7.0      2.522      3.358
REMARK  4 active torsions:
REMARK  status: ('A' for Active; 'I' for Inactive)
REMARK    1  A    between atoms: C_11  and  C_4 
REMARK    2  A    between atoms: C_9  and  C_5 
REMARK    3  A    between atoms: O_21  and  C_16 
REMARK    4  A    between atoms: O_22  and  C_17 
ROOT
ATOM      1  N   UNL d   1      53.013  31.710  53.464  0.00  0.00    -0.185 N 
ATOM      2  C   UNL d   1      52.857  31.243  52.797  0.00  0.00     0.219 A 
ATOM      3  N   UNL d   1      53.178  31.209  54.092  0.00  0.00    -0.153 NA
ATOM      4  C   UNL d   1      52.944  32.503  53.244  0.00  0.00     0.187 A 
ATOM      5  C   UNL d   1      53.125  30.426  53.821  0.00  0.00     0.156 A 
ATOM      6  S   UNL d   1      52.926  30.450  53.018  0.00  0.00    -0.024 SA
ATOM      7  N   UNL d   1      52.745  32.523  52.442  0.00  0.00    -0.127 NA
ATOM      8  N   UNL d   1      52.691  31.751  52.163  0.00  0.00    -0.120 NA
ENDROOT
BRANCH   4   9
ATOM      9  C   UNL d   1      53.053  33.156  53.732  0.00  0.00     0.040 A 
ATOM     10  C   UNL d   1      53.768  33.247  54.131  0.00  0.00     0.029 A 
ATOM     11  C   UNL d   1      53.882  33.895  54.617  0.00  0.00     0.116 A 
ATOM     12  C   UNL d   1      53.283  34.460  54.712  0.00  0.00     0.116 A 
ATOM     13  C   UNL d   1      52.565  34.365  54.309  0.00  0.00     0.026 A 
ATOM     14  C   UNL d   1      52.455  33.712  53.820  0.00  0.00     0.005 A 
BRANCH  11  15
ATOM     15  O   UNL d   1      54.596  33.996  55.023  0.00  0.00    -0.326 OA
ATOM     16  C   UNL d   1      55.287  33.642  54.752  0.00  0.00     0.181 C 
ENDBRANCH  11  15
BRANCH  12  17
ATOM     17  O   UNL d   1      53.390  35.121  55.204  0.00  0.00    -0.326 OA
ATOM     18  C   UNL d   1      52.928  35.791  55.081  0.00  0.00     0.181 C 
ENDBRANCH  12  17
ENDBRANCH   4   9
BRANCH   5  19
ATOM     19  C   UNL d   1      53.248  29.746  54.270  0.00  0.00     0.126 A 
ATOM     20  O   UNL d   1      53.120  29.666  55.077  0.00  0.00    -0.298 OA
ATOM     21  C   UNL d   1      53.316  28.894  55.293  0.00  0.00     0.134 A 
ATOM     22 BR   UNL d   1      53.268  28.579  56.056  0.00  0.00    -0.022 Br
ATOM     23  C   UNL d   1      53.567  28.494  54.621  0.00  0.00     0.034 A 
ATOM     24  C   UNL d   1      53.526  29.023  53.983  0.00  0.00     0.029 A 
ENDBRANCH   5  19
TORSDOF 4
ENDMDL
MODEL 5
REMARK VINA RESULT:      -6.5      2.812      4.971
REMARK  4 active torsions:
REMARK  status: ('A' for Active; 'I' for Inactive)
REMARK    1  A    between atoms: C_11  and  C_4 
REMARK    2  A    between atoms: C_9  and  C_5 
REMARK    3  A    between atoms: O_21  and  C_16 
REMARK    4  A    between atoms: O_22  and  C_17 
ROOT
ATOM      1  N   UNL d   1      50.642  34.488  52.660  0.00  0.00    -0.185 N 
ATOM      2  C   UNL d   1      50.264  34.457  51.923  0.00  0.00     0.219 A 
ATOM      3  N   UNL d   1      50.145  34.880  53.182  0.00  0.00    -0.153 NA
ATOM      4  C   UNL d   1      51.374  34.114  52.589  0.00  0.00     0.187 A 
ATOM      5  C   UNL d   1      49.455  35.095  52.775  0.00  0.00     0.156 A 
ATOM      6  S   UNL d   1      49.531  34.832  51.994  0.00  0.00    -0.024 SA
ATOM      7  N   UNL d   1      51.446  33.853  51.808  0.00  0.00    -0.127 NA
ATOM      8  N   UNL d   1      50.767  34.061  51.395  0.00  0.00    -0.120 NA
ENDROOT
BRANCH   4   9
ATOM      9  C   UNL d   1      51.932  34.018  53.185  0.00  0.00     0.040 A 
ATOM     10  C   UNL d   1      52.343  34.674  53.464  0.00  0.00     0.029 A 
ATOM     11  C   UNL d   1      52.899  34.584  54.057  0.00  0.00     0.116 A 
ATOM     12  C   UNL d   1      53.053  33.837  54.379  0.00  0.00     0.116 A 
ATOM     13  C   UNL d   1      52.637  33.177  54.096  0.00  0.00     0.026 A 
ATOM     14  C   UNL d   1      52.079  33.273  53.499  0.00  0.00     0.005 A 
BRANCH  11  15
ATOM     15  O   UNL d   1      53.318  35.238  54.344  0.00  0.00    -0.326 OA
ATOM     16  C   UNL d   1      52.947  35.966  54.437  0.00  0.00     0.181 C 
ENDBRANCH  11  15
BRANCH  12  17
ATOM     17  O   UNL d   1      53.617  33.735  54.982  0.00  0.00    -0.326 OA
ATOM     18  C   UNL d   1      53.987  33.005  55.065  0.00  0.00     0.181 C 
ENDBRANCH  12  17
ENDBRANCH   4   9
BRANCH   5  19
ATOM     19  C   UNL d   1      48.809  35.499  53.091  0.00  0.00     0.126 A 
ATOM     20  O   UNL d   1      48.798  35.925  53.792  0.00  0.00    -0.298 OA
ATOM     21  C   UNL d   1      48.040  36.235  53.891  0.00  0.00     0.134 A 
ATOM     22 BR   UNL d   1      47.787  36.701  54.526  0.00  0.00    -0.022 Br
ATOM     23  C   UNL d   1      47.580  36.002  53.251  0.00  0.00     0.034 A 
ATOM     24  C   UNL d   1      48.058  35.544  52.752  0.00  0.00     0.029 A 
ENDBRANCH   5  19
TORSDOF 4
ENDMDL
MODEL 6
REMARK VINA RESULT:      -6.4      2.707      5.091
REMARK  4 active torsions:
REMARK  status: ('A' for Active; 'I' for Inactive)
REMARK    1  A    between atoms: C_11  and  C_4 
REMARK    2  A    between atoms: C_9  and  C_5 
REMARK    3  A    between atoms: O_21  and  C_16 
REMARK    4  A    between atoms: O_22  and  C_17 
ROOT
ATOM      1  N   UNL d   1      50.352  34.572  52.509  0.00  0.00    -0.185 N 
ATOM      2  C   UNL d   1      49.907  34.537  51.810  0.00  0.00     0.219 A 
ATOM      3  N   UNL d   1      49.909  34.972  53.071  0.00  0.00    -0.153 NA
ATOM      4  C   UNL d   1      51.072  34.192  52.375  0.00  0.00     0.187 A 
ATOM      5  C   UNL d   1      49.185  35.189  52.727  0.00  0.00     0.156 A 
ATOM      6  S   UNL d   1      49.187  34.918  51.945  0.00  0.00    -0.024 SA
ATOM      7  N   UNL d   1      51.070  33.922  51.594  0.00  0.00    -0.127 NA
ATOM      8  N   UNL d   1      50.357  34.132  51.242  0.00  0.00    -0.120 NA
ENDROOT
BRANCH   4   9
ATOM      9  C   UNL d   1      51.682  34.096  52.918  0.00  0.00     0.040 A 
ATOM     10  C   UNL d   1      51.941  33.337  53.105  0.00  0.00     0.029 A 
ATOM     11  C   UNL d   1      52.548  33.236  53.644  0.00  0.00     0.116 A 
ATOM     12  C   UNL d   1      52.904  33.891  54.004  0.00  0.00     0.116 A 
ATOM     13  C   UNL d   1      52.640  34.654  53.814  0.00  0.00     0.026 A 
ATOM     14  C   UNL d   1      52.030  34.751  53.271  0.00  0.00     0.005 A 
BRANCH  11  15
ATOM     15  O   UNL d   1      52.816  32.477  53.838  0.00  0.00    -0.326 OA
ATOM     16  C   UNL d   1      52.841  31.882  53.271  0.00  0.00     0.181 C 
ENDBRANCH  11  15
BRANCH  12  17
ATOM     17  O   UNL d   1      53.521  33.798  54.554  0.00  0.00    -0.326 OA
ATOM     18  C   UNL d   1      53.773  34.451  54.986  0.00  0.00     0.181 C 
ENDBRANCH  12  17
ENDBRANCH   4   9
BRANCH   5  19
ATOM     19  C   UNL d   1      48.574  35.601  53.097  0.00  0.00     0.126 A 
ATOM     20  O   UNL d   1      48.602  35.948  53.840  0.00  0.00    -0.298 OA
ATOM     21  C   UNL d   1      47.870  36.299  53.987  0.00  0.00     0.134 A 
ATOM     22 BR   UNL d   1      47.659  36.710  54.673  0.00  0.00    -0.022 Br
ATOM     23  C   UNL d   1      47.386  36.169  53.335  0.00  0.00     0.034 A 
ATOM     24  C   UNL d   1      47.823  35.735  52.780  0.00  0.00     0.029 A 
ENDBRANCH   5  19
TORSDOF 4
ENDMDL
MODEL 7
REMARK VINA RESULT:      -5.9      1.771      4.617
REMARK  4 active torsions:
REMARK  status: ('A' for Active; 'I' for Inactive)
REMARK    1  A    between atoms: C_11  and  C_4 
REMARK    2  A    between atoms: C_9  and  C_5 
REMARK    3  A    between atoms: O_21  and  C_16 
REMARK    4  A    between atoms: O_22  and  C_17 
ROOT
ATOM      1  N   UNL d   1      52.688  32.845  53.247  0.00  0.00    -0.185 N 
ATOM      2  C   UNL d   1      53.040  33.593  53.303  0.00  0.00     0.219 A 
ATOM      3  N   UNL d   1      51.892  32.952  53.080  0.00  0.00    -0.153 NA
ATOM      4  C   UNL d   1      53.271  32.276  53.380  0.00  0.00     0.187 A 
ATOM      5  C   UNL d   1      51.743  33.767  53.032  0.00  0.00     0.156 A 
ATOM      6  S   UNL d   1      52.457  34.163  53.170  0.00  0.00    -0.024 SA
ATOM      7  N   UNL d   1      53.982  32.675  53.518  0.00  0.00    -0.127 NA
ATOM      8  N   UNL d   1      53.845  33.484  53.472  0.00  0.00    -0.120 NA
ENDROOT
BRANCH   4   9
ATOM      9  C   UNL d   1      53.167  31.461  53.376  0.00  0.00     0.040 A 
ATOM     10  C   UNL d   1      53.295  31.034  54.069  0.00  0.00     0.029 A 
ATOM     11  C   UNL d   1      53.193  30.223  54.072  0.00  0.00     0.116 A 
ATOM     12  C   UNL d   1      52.961  29.826  53.382  0.00  0.00     0.116 A 
ATOM     13  C   UNL d   1      52.833  30.259  52.686  0.00  0.00     0.026 A 
ATOM     14  C   UNL d   1      52.937  31.075  52.688  0.00  0.00     0.005 A 
BRANCH  11  15
ATOM     15  O   UNL d   1      53.320  29.785  54.763  0.00  0.00    -0.326 OA
ATOM     16  C   UNL d   1      53.335  30.154  55.497  0.00  0.00     0.181 C 
ENDBRANCH  11  15
BRANCH  12  17
ATOM     17  O   UNL d   1      52.855  29.001  53.375  0.00  0.00    -0.326 OA
ATOM     18  C   UNL d   1      52.406  28.661  52.776  0.00  0.00     0.181 C 
ENDBRANCH  12  17
ENDBRANCH   4   9
BRANCH   5  19
ATOM     19  C   UNL d   1      51.015  34.120  52.874  0.00  0.00     0.126 A 
ATOM     20  O   UNL d   1      50.600  34.082  52.167  0.00  0.00    -0.298 OA
ATOM     21  C   UNL d   1      49.902  34.514  52.256  0.00  0.00     0.134 A 
ATOM     22 BR   UNL d   1      49.322  34.619  51.677  0.00  0.00    -0.022 Br
ATOM     23  C   UNL d   1      49.883  34.819  53.019  0.00  0.00     0.034 A 
ATOM     24  C   UNL d   1      50.575  34.575  53.404  0.00  0.00     0.029 A 
ENDBRANCH   5  19
TORSDOF 4
ENDMDL
MODEL 8
REMARK VINA RESULT:      -5.7      2.398      4.869
REMARK  4 active torsions:
REMARK  status: ('A' for Active; 'I' for Inactive)
REMARK    1  A    between atoms: C_11  and  C_4 
REMARK    2  A    between atoms: C_9  and  C_5 
REMARK    3  A    between atoms: O_21  and  C_16 
REMARK    4  A    between atoms: O_22  and  C_17 
ROOT
ATOM      1  N   UNL d   1      52.423  32.736  53.318  0.00  0.00    -0.185 N 
ATOM      2  C   UNL d   1      51.991  32.185  52.872  0.00  0.00     0.219 A 
ATOM      3  N   UNL d   1      51.987  33.430  53.353  0.00  0.00    -0.153 NA
ATOM      4  C   UNL d   1      53.126  32.377  53.558  0.00  0.00     0.187 A 
ATOM      5  C   UNL d   1      51.282  33.317  52.929  0.00  0.00     0.156 A 
ATOM      6  S   UNL d   1      51.287  32.544  52.632  0.00  0.00    -0.024 SA
ATOM      7  N   UNL d   1      53.128  31.606  53.259  0.00  0.00    -0.127 NA
ATOM      8  N   UNL d   1      52.433  31.483  52.838  0.00  0.00    -0.120 NA
ENDROOT
BRANCH   4   9
ATOM      9  C   UNL d   1      53.720  32.722  54.011  0.00  0.00     0.040 A 
ATOM     10  C   UNL d   1      54.422  32.953  53.648  0.00  0.00     0.029 A 
ATOM     11  C   UNL d   1      55.016  33.297  54.093  0.00  0.00     0.116 A 
ATOM     12  C   UNL d   1      54.916  33.413  54.908  0.00  0.00     0.116 A 
ATOM     13  C   UNL d   1      54.207  33.179  55.270  0.00  0.00     0.026 A 
ATOM     14  C   UNL d   1      53.613  32.834  54.818  0.00  0.00     0.005 A 
BRANCH  11  15
ATOM     15  O   UNL d   1      55.725  33.532  53.738  0.00  0.00    -0.326 OA
ATOM     16  C   UNL d   1      55.914  33.291  52.976  0.00  0.00     0.181 C 
ENDBRANCH  11  15
BRANCH  12  17
ATOM     17  O   UNL d   1      55.514  33.761  55.369  0.00  0.00    -0.326 OA
ATOM     18  C   UNL d   1      55.319  34.083  56.100  0.00  0.00     0.181 C 
ENDBRANCH  12  17
ENDBRANCH   4   9
BRANCH   5  19
ATOM     19  C   UNL d   1      50.683  33.874  52.823  0.00  0.00     0.126 A 
ATOM     20  O   UNL d   1      50.173  33.923  52.183  0.00  0.00    -0.298 OA
ATOM     21  C   UNL d   1      49.665  34.561  52.308  0.00  0.00     0.134 A 
ATOM     22 BR   UNL d   1      49.064  34.808  51.797  0.00  0.00    -0.022 Br
ATOM     23  C   UNL d   1      49.860  34.909  53.026  0.00  0.00     0.034 A 
ATOM     24  C   UNL d   1      50.494  34.482  53.349  0.00  0.00     0.029 A 
ENDBRANCH   5  19
TORSDOF 4
ENDMDL
