MODEL 1
REMARK VINA RESULT:      -1.7      0.000      0.000
REMARK  3 active torsions:
REMARK  status: ('A' for Active; 'I' for Inactive)
REMARK    1  A    between atoms: C_5  and  N_1 
REMARK    2  A    between atoms: C_8  and  C_2 
REMARK    3  A    between atoms: C_7  and  C_5 
ROOT
ATOM      1  N   UNL d   1      31.802  17.434 -24.157  0.00  0.00    -0.287 N 
ATOM      2  C   UNL d   1      32.360  16.822 -24.154  0.00  0.00     0.187 A 
ATOM      3  N   UNL d   1      32.988  17.036 -23.647  0.00  0.00    -0.224 NA
ATOM      4  C   UNL d   1      32.078  18.038 -23.650  0.00  0.00     0.083 A 
ATOM      5  C   UNL d   1      32.807  17.789 -23.340  0.00  0.00     0.099 A 
ATOM      6  C   UNL d   1      31.769  18.780 -23.428  0.00  0.00     0.019 A 
ATOM      7  C   UNL d   1      33.228  18.278 -22.807  0.00  0.00     0.021 A 
ATOM      8  C   UNL d   1      32.183  19.264 -22.904  0.00  0.00     0.002 A 
ATOM      9  C   UNL d   1      32.911  19.014 -22.594  0.00  0.00     0.002 A 
ENDROOT
BRANCH   1  10
ATOM     10  C   UNL d   1      31.146  17.299 -24.637  0.00  0.00     0.082 C 
BRANCH  10  11
ATOM     11  C   UNL d   1      30.422  17.111 -24.301  0.00  0.00     0.018 A 
ATOM     12  C   UNL d   1      29.747  17.513 -24.528  0.00  0.00     0.001 A 
ATOM     13  C   UNL d   1      29.021  17.326 -24.192  0.00  0.00     0.000 A 
ATOM     14  C   UNL d   1      29.802  18.108 -25.096  0.00  0.00     0.000 C 
ATOM     15  C   UNL d   1      28.969  16.730 -23.624  0.00  0.00     0.000 A 
ATOM     16  C   UNL d   1      29.650  16.323 -23.395  0.00  0.00     0.000 A 
ATOM     17  C   UNL d   1      30.375  16.515 -23.734  0.00  0.00     0.002 A 
ATOM     18  C   UNL d   1      29.602  15.726 -22.826  0.00  0.00     0.000 C 
ENDBRANCH  10  11
ENDBRANCH   1  10
BRANCH   2  19
ATOM     19  C   UNL d   1      32.670  16.094 -24.367  0.00  0.00     0.230 C 
ATOM     20  O   UNL d   1      32.619  15.454 -23.850  0.00  0.00    -0.283 OA
ATOM     21  C   UNL d   1      33.034  15.999 -25.097  0.00  0.00     0.049 C 
ENDBRANCH   2  19
TORSDOF 3
ENDMDL
MODEL 2
REMARK VINA RESULT:      -1.3      1.046      3.346
REMARK  3 active torsions:
REMARK  status: ('A' for Active; 'I' for Inactive)
REMARK    1  A    between atoms: C_5  and  N_1 
REMARK    2  A    between atoms: C_8  and  C_2 
REMARK    3  A    between atoms: C_7  and  C_5 
ROOT
ATOM      1  N   UNL d   1      30.585  16.560 -23.857  0.00  0.00    -0.287 N 
ATOM      2  C   UNL d   1      30.196  16.206 -23.217  0.00  0.00     0.187 A 
ATOM      3  N   UNL d   1      29.422  16.518 -23.171  0.00  0.00    -0.224 NA
ATOM      4  C   UNL d   1      30.057  17.098 -24.217  0.00  0.00     0.083 A 
ATOM      5  C   UNL d   1      29.344  17.068 -23.792  0.00  0.00     0.099 A 
ATOM      6  C   UNL d   1      30.125  17.610 -24.872  0.00  0.00     0.019 A 
ATOM      7  C   UNL d   1      28.697  17.548 -24.019  0.00  0.00     0.021 A 
ATOM      8  C   UNL d   1      29.488  18.084 -25.096  0.00  0.00     0.002 A 
ATOM      9  C   UNL d   1      28.776  18.054 -24.671  0.00  0.00     0.002 A 
ENDROOT
BRANCH   1  10
ATOM     10  C   UNL d   1      31.360  16.304 -23.971  0.00  0.00     0.082 C 
BRANCH  10  11
ATOM     11  C   UNL d   1      31.977  16.845 -23.972  0.00  0.00     0.018 A 
ATOM     12  C   UNL d   1      32.583  16.777 -24.517  0.00  0.00     0.001 A 
ATOM     13  C   UNL d   1      33.201  17.318 -24.518  0.00  0.00     0.000 A 
ATOM     14  C   UNL d   1      32.568  16.159 -25.064  0.00  0.00     0.000 C 
ATOM     15  C   UNL d   1      33.213  17.934 -23.970  0.00  0.00     0.000 A 
ATOM     16  C   UNL d   1      32.602  18.004 -23.420  0.00  0.00     0.000 A 
ATOM     17  C   UNL d   1      31.985  17.459 -23.422  0.00  0.00     0.002 A 
ATOM     18  C   UNL d   1      32.610  18.619 -22.869  0.00  0.00     0.000 C 
ENDBRANCH  10  11
ENDBRANCH   1  10
BRANCH   2  19
ATOM     19  C   UNL d   1      30.122  15.706 -22.573  0.00  0.00     0.230 C 
ATOM     20  O   UNL d   1      30.793  15.453 -22.166  0.00  0.00    -0.283 OA
ATOM     21  C   UNL d   1      29.380  15.453 -22.330  0.00  0.00     0.049 C 
ENDBRANCH   2  19
TORSDOF 3
ENDMDL
MODEL 3
REMARK VINA RESULT:      -1.0      1.456      3.675
REMARK  3 active torsions:
REMARK  status: ('A' for Active; 'I' for Inactive)
REMARK    1  A    between atoms: C_5  and  N_1 
REMARK    2  A    between atoms: C_8  and  C_2 
REMARK    3  A    between atoms: C_7  and  C_5 
ROOT
ATOM      1  N   UNL d   1      29.878  16.823 -24.258  0.00  0.00    -0.287 N 
ATOM      2  C   UNL d   1      29.407  17.474 -24.459  0.00  0.00     0.187 A 
ATOM      3  N   UNL d   1      28.733  17.478 -23.964  0.00  0.00    -0.224 NA
ATOM      4  C   UNL d   1      29.501  16.413 -23.635  0.00  0.00     0.083 A 
ATOM      5  C   UNL d   1      28.800  16.820 -23.458  0.00  0.00     0.099 A 
ATOM      6  C   UNL d   1      29.700  15.727 -23.203  0.00  0.00     0.019 A 
ATOM      7  C   UNL d   1      28.293  16.544 -22.851  0.00  0.00     0.021 A 
ATOM      8  C   UNL d   1      29.202  15.454 -22.605  0.00  0.00     0.002 A 
ATOM      9  C   UNL d   1      28.500  15.861 -22.429  0.00  0.00     0.002 A 
ENDROOT
BRANCH   1  10
ATOM     10  C   UNL d   1      30.567  16.747 -24.703  0.00  0.00     0.082 C 
BRANCH  10  11
ATOM     11  C   UNL d   1      31.299  16.761 -24.335  0.00  0.00     0.018 A 
ATOM     12  C   UNL d   1      31.848  16.174 -24.488  0.00  0.00     0.001 A 
ATOM     13  C   UNL d   1      32.582  16.187 -24.119  0.00  0.00     0.000 A 
ATOM     14  C   UNL d   1      31.658  15.569 -25.015  0.00  0.00     0.000 C 
ATOM     15  C   UNL d   1      32.769  16.794 -23.593  0.00  0.00     0.000 A 
ATOM     16  C   UNL d   1      32.217  17.386 -23.437  0.00  0.00     0.000 A 
ATOM     17  C   UNL d   1      31.483  17.369 -23.809  0.00  0.00     0.002 A 
ATOM     18  C   UNL d   1      32.401  17.995 -22.910  0.00  0.00     0.000 C 
ENDBRANCH  10  11
ENDBRANCH   1  10
BRANCH   2  19
ATOM     19  C   UNL d   1      29.206  18.148 -24.878  0.00  0.00     0.230 C 
ATOM     20  O   UNL d   1      29.787  18.697 -25.084  0.00  0.00    -0.283 OA
ATOM     21  C   UNL d   1      28.426  18.281 -25.097  0.00  0.00     0.049 C 
ENDBRANCH   2  19
TORSDOF 3
ENDMDL
MODEL 4
REMARK VINA RESULT:       0.0      1.363      2.051
REMARK  3 active torsions:
REMARK  status: ('A' for Active; 'I' for Inactive)
REMARK    1  A    between atoms: C_5  and  N_1 
REMARK    2  A    between atoms: C_8  and  C_2 
REMARK    3  A    between atoms: C_7  and  C_5 
ROOT
ATOM      1  N   UNL d   1      31.889  17.029 -24.127  0.00  0.00    -0.287 N 
ATOM      2  C   UNL d   1      32.260  17.769 -24.101  0.00  0.00     0.187 A 
ATOM      3  N   UNL d   1      32.816  17.766 -23.479  0.00  0.00    -0.224 NA
ATOM      4  C   UNL d   1      32.212  16.556 -23.519  0.00  0.00     0.083 A 
ATOM      5  C   UNL d   1      32.780  17.014 -23.124  0.00  0.00     0.099 A 
ATOM      6  C   UNL d   1      32.067  15.773 -23.270  0.00  0.00     0.019 A 
ATOM      7  C   UNL d   1      33.207  16.692 -22.479  0.00  0.00     0.021 A 
ATOM      8  C   UNL d   1      32.486  15.455 -22.635  0.00  0.00     0.002 A 
ATOM      9  C   UNL d   1      33.055  15.913 -22.241  0.00  0.00     0.002 A 
ENDROOT
BRANCH   1  10
ATOM     10  C   UNL d   1      31.321  16.950 -24.720  0.00  0.00     0.082 C 
BRANCH  10  11
ATOM     11  C   UNL d   1      30.538  16.809 -24.523  0.00  0.00     0.018 A 
ATOM     12  C   UNL d   1      30.189  16.092 -24.707  0.00  0.00     0.001 A 
ATOM     13  C   UNL d   1      29.404  15.951 -24.511  0.00  0.00     0.000 A 
ATOM     14  C   UNL d   1      30.634  15.514 -25.092  0.00  0.00     0.000 C 
ATOM     15  C   UNL d   1      28.963  16.532 -24.126  0.00  0.00     0.000 A 
ATOM     16  C   UNL d   1      29.313  17.255 -23.940  0.00  0.00     0.000 A 
ATOM     17  C   UNL d   1      30.100  17.393 -24.138  0.00  0.00     0.002 A 
ATOM     18  C   UNL d   1      28.874  17.839 -23.554  0.00  0.00     0.000 C 
ENDBRANCH  10  11
ENDBRANCH   1  10
BRANCH   2  19
ATOM     19  C   UNL d   1      32.407  18.538 -24.341  0.00  0.00     0.230 C 
ATOM     20  O   UNL d   1      32.208  19.171 -23.849  0.00  0.00    -0.283 OA
ATOM     21  C   UNL d   1      32.752  18.685 -25.071  0.00  0.00     0.049 C 
ENDBRANCH   2  19
TORSDOF 3
ENDMDL
