MODEL 1
REMARK VINA RESULT:      -7.7      0.000      0.000
REMARK  6 active torsions:
REMARK  status: ('A' for Active; 'I' for Inactive)
REMARK    1  A    between atoms: O_8  and  C_1 
REMARK    2  A    between atoms: C_2  and  C_3 
REMARK    3  A    between atoms: C_3  and  O_8 
REMARK    4  A    between atoms: C_4  and  S_17 
REMARK    5  A    between atoms: C_23  and  C_14 
REMARK    6  A    between atoms: S_17  and  C_23 
ROOT
ATOM      1  C   UNL d   1     -46.041  12.955  23.227  0.00  0.00     0.167 A 
ATOM      2  C   UNL d   1     -45.990  13.531  22.633  0.00  0.00     0.222 A 
ATOM      3  C   UNL d   1     -46.636  14.040  22.521  0.00  0.00     0.069 A 
ATOM      4  C   UNL d   1     -46.718  12.889  23.695  0.00  0.00     0.151 A 
ATOM      5  C   UNL d   1     -47.312  13.974  22.989  0.00  0.00     0.110 A 
ATOM      6  O   UNL d   1     -47.349  13.399  23.574  0.00  0.00    -0.302 OA
ATOM      7  O   UNL d   1     -45.321  13.596  22.169  0.00  0.00    -0.284 OA
ENDROOT
BRANCH   5   8
ATOM      8  C   UNL d   1     -47.947  14.484  22.870  0.00  0.00     0.063 C 
BRANCH   8   9
ATOM      9  S   UNL d   1     -48.461  14.068  22.373  0.00  0.00    -0.046 SA
BRANCH   9  10
ATOM     10  C   UNL d   1     -49.254  14.270  22.340  0.00  0.00     0.194 A 
ATOM     11  N   UNL d   1     -49.534  14.892  22.798  0.00  0.00    -0.221 NA
ATOM     12  C   UNL d   1     -50.322  15.095  22.766  0.00  0.00     0.085 A 
ATOM     13  C   UNL d   1     -50.603  15.717  23.225  0.00  0.00     0.021 C 
ATOM     14  C   UNL d   1     -50.841  14.680  22.276  0.00  0.00     0.038 A 
ATOM     15  C   UNL d   1     -50.546  14.057  21.820  0.00  0.00     0.085 A 
ATOM     16  N   UNL d   1     -49.755  13.860  21.858  0.00  0.00    -0.221 NA
ATOM     17  C   UNL d   1     -51.064  13.642  21.330  0.00  0.00     0.021 C 
ENDBRANCH   9  10
ENDBRANCH   8   9
ENDBRANCH   5   8
BRANCH   1  18
ATOM     18  O   UNL d   1     -45.530  12.363  23.500  0.00  0.00    -0.266 OA
BRANCH  18  19
ATOM     19  C   UNL d   1     -45.721  11.568  23.393  0.00  0.00     0.323 C 
ATOM     20  O   UNL d   1     -46.482  11.358  23.209  0.00  0.00    -0.257 OA
BRANCH  19  21
ATOM     21  C   UNL d   1     -45.141  10.978  23.472  0.00  0.00     0.164 A 
ATOM     22  O   UNL d   1     -44.347  11.091  23.335  0.00  0.00    -0.295 OA
ATOM     23  C   UNL d   1     -43.983  10.368  23.479  0.00  0.00     0.134 A 
ATOM     24 BR   UNL d   1     -43.178  10.229  23.407  0.00  0.00    -0.022 Br
ATOM     25  C   UNL d   1     -44.540   9.838  23.695  0.00  0.00     0.034 A 
ATOM     26  C   UNL d   1     -45.259  10.218  23.691  0.00  0.00     0.033 A 
ENDBRANCH  19  21
ENDBRANCH  18  19
ENDBRANCH   1  18
TORSDOF 6
ENDMDL
MODEL 2
REMARK VINA RESULT:      -7.1      1.608      2.049
REMARK  6 active torsions:
REMARK  status: ('A' for Active; 'I' for Inactive)
REMARK    1  A    between atoms: O_8  and  C_1 
REMARK    2  A    between atoms: C_2  and  C_3 
REMARK    3  A    between atoms: C_3  and  O_8 
REMARK    4  A    between atoms: C_4  and  S_17 
REMARK    5  A    between atoms: C_23  and  C_14 
REMARK    6  A    between atoms: S_17  and  C_23 
ROOT
ATOM      1  C   UNL d   1     -45.857  13.081  22.849  0.00  0.00     0.167 A 
ATOM      2  C   UNL d   1     -46.309  12.500  23.230  0.00  0.00     0.222 A 
ATOM      3  C   UNL d   1     -47.119  12.643  23.348  0.00  0.00     0.069 A 
ATOM      4  C   UNL d   1     -46.203  13.785  22.593  0.00  0.00     0.151 A 
ATOM      5  C   UNL d   1     -47.464  13.347  23.092  0.00  0.00     0.110 A 
ATOM      6  O   UNL d   1     -47.004  13.914  22.716  0.00  0.00    -0.302 OA
ATOM      7  O   UNL d   1     -45.967  11.803  23.484  0.00  0.00    -0.284 OA
ENDROOT
BRANCH   5   8
ATOM      8  C   UNL d   1     -48.267  13.480  23.213  0.00  0.00     0.063 C 
BRANCH   8   9
ATOM      9  S   UNL d   1     -48.451  14.121  22.723  0.00  0.00    -0.046 SA
BRANCH   9  10
ATOM     10  C   UNL d   1     -49.215  14.414  22.700  0.00  0.00     0.194 A 
ATOM     11  N   UNL d   1     -49.433  15.022  23.210  0.00  0.00    -0.221 NA
ATOM     12  C   UNL d   1     -50.193  15.314  23.188  0.00  0.00     0.085 A 
ATOM     13  C   UNL d   1     -50.411  15.922  23.697  0.00  0.00     0.021 C 
ATOM     14  C   UNL d   1     -50.745  15.005  22.657  0.00  0.00     0.038 A 
ATOM     15  C   UNL d   1     -50.512  14.395  22.152  0.00  0.00     0.085 A 
ATOM     16  N   UNL d   1     -49.750  14.107  22.179  0.00  0.00    -0.221 NA
ATOM     17  C   UNL d   1     -51.064  14.085  21.621  0.00  0.00     0.021 C 
ENDBRANCH   9  10
ENDBRANCH   8   9
ENDBRANCH   5   8
BRANCH   1  18
ATOM     18  O   UNL d   1     -45.059  13.142  22.637  0.00  0.00    -0.266 OA
BRANCH  18  19
ATOM     19  C   UNL d   1     -44.816  12.940  21.876  0.00  0.00     0.323 C 
ATOM     20  O   UNL d   1     -45.369  12.758  21.312  0.00  0.00    -0.257 OA
BRANCH  19  21
ATOM     21  C   UNL d   1     -44.009  12.921  21.679  0.00  0.00     0.164 A 
ATOM     22  O   UNL d   1     -43.575  13.570  21.450  0.00  0.00    -0.295 OA
ATOM     23  C   UNL d   1     -42.811  13.300  21.310  0.00  0.00     0.134 A 
ATOM     24 BR   UNL d   1     -42.186  13.772  21.067  0.00  0.00    -0.022 Br
ATOM     25  C   UNL d   1     -42.787  12.514  21.450  0.00  0.00     0.034 A 
ATOM     26  C   UNL d   1     -43.532  12.280  21.679  0.00  0.00     0.033 A 
ENDBRANCH  19  21
ENDBRANCH  18  19
ENDBRANCH   1  18
TORSDOF 6
ENDMDL
MODEL 3
REMARK VINA RESULT:      -5.6      2.811      5.387
REMARK  6 active torsions:
REMARK  status: ('A' for Active; 'I' for Inactive)
REMARK    1  A    between atoms: O_8  and  C_1 
REMARK    2  A    between atoms: C_2  and  C_3 
REMARK    3  A    between atoms: C_3  and  O_8 
REMARK    4  A    between atoms: C_4  and  S_17 
REMARK    5  A    between atoms: C_23  and  C_14 
REMARK    6  A    between atoms: S_17  and  C_23 
ROOT
ATOM      1  C   UNL d   1     -47.936  14.153  22.873  0.00  0.00     0.167 A 
ATOM      2  C   UNL d   1     -47.426  14.734  22.573  0.00  0.00     0.222 A 
ATOM      3  C   UNL d   1     -46.612  14.574  22.555  0.00  0.00     0.069 A 
ATOM      4  C   UNL d   1     -47.641  13.433  23.147  0.00  0.00     0.151 A 
ATOM      5  C   UNL d   1     -46.317  13.854  22.830  0.00  0.00     0.110 A 
ATOM      6  O   UNL d   1     -46.834  13.287  23.125  0.00  0.00    -0.302 OA
ATOM      7  O   UNL d   1     -47.718  15.447  22.301  0.00  0.00    -0.284 OA
ENDROOT
BRANCH   5   8
ATOM      8  C   UNL d   1     -45.509  13.705  22.808  0.00  0.00     0.063 C 
BRANCH   8   9
ATOM      9  S   UNL d   1     -45.429  13.047  22.313  0.00  0.00    -0.046 SA
BRANCH   9  10
ATOM     10  C   UNL d   1     -44.702  12.678  22.234  0.00  0.00     0.194 A 
ATOM     11  N   UNL d   1     -44.139  12.994  21.724  0.00  0.00    -0.221 NA
ATOM     12  C   UNL d   1     -43.416  12.628  21.644  0.00  0.00     0.085 A 
ATOM     13  C   UNL d   1     -42.853  12.944  21.135  0.00  0.00     0.021 C 
ATOM     14  C   UNL d   1     -43.245  11.942  22.072  0.00  0.00     0.038 A 
ATOM     15  C   UNL d   1     -43.819  11.637  22.581  0.00  0.00     0.085 A 
ATOM     16  N   UNL d   1     -44.541  12.008  22.655  0.00  0.00    -0.221 NA
ATOM     17  C   UNL d   1     -43.648  10.951  23.009  0.00  0.00     0.021 C 
ENDBRANCH   9  10
ENDBRANCH   8   9
ENDBRANCH   5   8
BRANCH   1  18
ATOM     18  O   UNL d   1     -48.757  14.106  22.979  0.00  0.00    -0.266 OA
BRANCH  18  19
ATOM     19  C   UNL d   1     -49.240  13.852  22.362  0.00  0.00     0.323 C 
ATOM     20  O   UNL d   1     -49.090  14.098  21.605  0.00  0.00    -0.257 OA
BRANCH  19  21
ATOM     21  C   UNL d   1     -49.882  13.344  22.507  0.00  0.00     0.164 A 
ATOM     22  O   UNL d   1     -50.030  12.982  23.221  0.00  0.00    -0.295 OA
ATOM     23  C   UNL d   1     -50.713  12.535  23.116  0.00  0.00     0.134 A 
ATOM     24 BR   UNL d   1     -51.064  12.077  23.698  0.00  0.00    -0.022 Br
ATOM     25  C   UNL d   1     -50.965  12.625  22.364  0.00  0.00     0.034 A 
ATOM     26  C   UNL d   1     -50.448  13.128  21.987  0.00  0.00     0.033 A 
ENDBRANCH  19  21
ENDBRANCH  18  19
ENDBRANCH   1  18
TORSDOF 6
ENDMDL
MODEL 4
REMARK VINA RESULT:      -4.9      4.562      6.493
REMARK  6 active torsions:
REMARK  status: ('A' for Active; 'I' for Inactive)
REMARK    1  A    between atoms: O_8  and  C_1 
REMARK    2  A    between atoms: C_2  and  C_3 
REMARK    3  A    between atoms: C_3  and  O_8 
REMARK    4  A    between atoms: C_4  and  S_17 
REMARK    5  A    between atoms: C_23  and  C_14 
REMARK    6  A    between atoms: S_17  and  C_23 
ROOT
ATOM      1  C   UNL d   1     -44.176  12.598  21.829  0.00  0.00     0.167 A 
ATOM      2  C   UNL d   1     -43.530  12.172  22.126  0.00  0.00     0.222 A 
ATOM      3  C   UNL d   1     -42.769  12.378  21.865  0.00  0.00     0.069 A 
ATOM      4  C   UNL d   1     -44.067  13.211  21.288  0.00  0.00     0.151 A 
ATOM      5  C   UNL d   1     -42.659  12.991  21.324  0.00  0.00     0.110 A 
ATOM      6  O   UNL d   1     -43.309  13.404  21.039  0.00  0.00    -0.302 OA
ATOM      7  O   UNL d   1     -43.638  11.565  22.662  0.00  0.00    -0.284 OA
ENDROOT
BRANCH   5   8
ATOM      8  C   UNL d   1     -41.901  13.187  21.072  0.00  0.00     0.063 C 
BRANCH   8   9
ATOM      9  S   UNL d   1     -41.938  13.996  20.904  0.00  0.00    -0.046 SA
BRANCH   9  10
ATOM     10  C   UNL d   1     -41.262  14.400  20.679  0.00  0.00     0.194 A 
ATOM     11  N   UNL d   1     -40.931  14.955  21.188  0.00  0.00    -0.221 NA
ATOM     12  C   UNL d   1     -40.259  15.357  20.966  0.00  0.00     0.085 A 
ATOM     13  C   UNL d   1     -39.928  15.912  21.475  0.00  0.00     0.021 C 
ATOM     14  C   UNL d   1     -39.908  15.211  20.232  0.00  0.00     0.038 A 
ATOM     15  C   UNL d   1     -40.250  14.651  19.731  0.00  0.00     0.085 A 
ATOM     16  N   UNL d   1     -40.924  14.252  19.961  0.00  0.00    -0.221 NA
ATOM     17  C   UNL d   1     -39.899  14.505  18.998  0.00  0.00     0.021 C 
ENDBRANCH   9  10
ENDBRANCH   8   9
ENDBRANCH   5   8
BRANCH   1  18
ATOM     18  O   UNL d   1     -44.995  12.560  21.951  0.00  0.00    -0.266 OA
BRANCH  18  19
ATOM     19  C   UNL d   1     -45.376  13.146  22.389  0.00  0.00     0.323 C 
ATOM     20  O   UNL d   1     -45.005  13.853  22.524  0.00  0.00    -0.257 OA
BRANCH  19  21
ATOM     21  C   UNL d   1     -46.138  13.018  22.695  0.00  0.00     0.164 A 
ATOM     22  O   UNL d   1     -46.378  12.334  23.064  0.00  0.00    -0.295 OA
ATOM     23  C   UNL d   1     -47.164  12.448  23.276  0.00  0.00     0.134 A 
ATOM     24 BR   UNL d   1     -47.628  11.895  23.664  0.00  0.00    -0.022 Br
ATOM     25  C   UNL d   1     -47.390  13.178  23.041  0.00  0.00     0.034 A 
ATOM     26  C   UNL d   1     -46.751  13.531  22.680  0.00  0.00     0.033 A 
ENDBRANCH  19  21
ENDBRANCH  18  19
ENDBRANCH   1  18
TORSDOF 6
ENDMDL
