MODEL 1
REMARK VINA RESULT:      -4.4      0.000      0.000
REMARK  6 active torsions:
REMARK  status: ('A' for Active; 'I' for Inactive)
REMARK    1  A    between atoms: N_2  and  S_1 
REMARK    2  A    between atoms: N_3  and  S_1 
REMARK    3  A    between atoms: C_9  and  N_3 
REMARK    4  A    between atoms: C_4  and  C_7 
REMARK    5  A    between atoms: O_12  and  C_4 
REMARK    6  A    between atoms: C_17  and  O_12 
ROOT
ATOM      1  C   UNL d   1      56.832  -0.035  32.280  0.00  0.00     0.064 A 
ATOM      2  C   UNL d   1      57.413  -0.054  30.729  0.00  0.00     0.095 A 
ATOM      3  C   UNL d   1      57.048   0.680  31.910  0.00  0.00     0.007 A 
ATOM      4  C   UNL d   1      56.896  -0.767  31.883  0.00  0.00     0.007 A 
ATOM      5  C   UNL d   1      57.189  -0.770  31.096  0.00  0.00     0.020 A 
ATOM      6  C   UNL d   1      57.342   0.670  31.136  0.00  0.00     0.020 A 
ENDROOT
BRANCH   2   7
ATOM      7  N   UNL d   1      57.699  -0.064  29.938  0.00  0.00    -0.144 NA
BRANCH   7   8
ATOM      8  S   UNL d   1      58.489  -0.244  29.785  0.00  0.00     0.351 S 
ATOM      9  O   UNL d   1      58.188  -0.883  29.363  0.00  0.00    -0.180 OA
ATOM     10  O   UNL d   1      58.790   0.397  30.207  0.00  0.00    -0.180 OA
BRANCH   8  11
ATOM     11  N   UNL d   1      59.255  -0.478  29.595  0.00  0.00    -0.215 N 
ATOM     12  C   UNL d   1      59.802   0.137  29.498  0.00  0.00     0.093 C 
ATOM     13  C   UNL d   1      60.608   0.081  29.336  0.00  0.00     0.020 C 
ATOM     14  C   UNL d   1      61.039  -0.589  29.123  0.00  0.00     0.002 C 
ATOM     15  C   UNL d   1      60.777  -1.362  29.018  0.00  0.00     0.002 C 
ATOM     16  C   UNL d   1      60.014  -1.655  29.103  0.00  0.00     0.020 C 
ATOM     17  C   UNL d   1      59.320  -1.249  29.313  0.00  0.00     0.093 C 
ENDBRANCH   8  11
ENDBRANCH   7   8
ENDBRANCH   2   7
BRANCH   1  18
ATOM     18  C   UNL d   1      56.556  -0.016  33.062  0.00  0.00     0.300 C 
ATOM     19  O   UNL d   1      57.099  -0.024  33.683  0.00  0.00    -0.259 OA
BRANCH  18  20
ATOM     20  O   UNL d   1      55.748   0.011  33.212  0.00  0.00    -0.271 OA
BRANCH  20  21
ATOM     21  C   UNL d   1      55.466   0.112  33.981  0.00  0.00     0.126 C 
ATOM     22  C   UNL d   1      54.740   0.475  34.117  0.00  0.00     0.029 C 
ENDBRANCH  20  21
ENDBRANCH  18  20
ENDBRANCH   1  18
TORSDOF 6
ENDMDL
MODEL 2
REMARK VINA RESULT:      -3.9      1.376      4.803
REMARK  6 active torsions:
REMARK  status: ('A' for Active; 'I' for Inactive)
REMARK    1  A    between atoms: N_2  and  S_1 
REMARK    2  A    between atoms: N_3  and  S_1 
REMARK    3  A    between atoms: C_9  and  N_3 
REMARK    4  A    between atoms: C_4  and  C_7 
REMARK    5  A    between atoms: O_12  and  C_4 
REMARK    6  A    between atoms: C_17  and  O_12 
ROOT
ATOM      1  C   UNL d   1      59.481  -0.484  29.275  0.00  0.00     0.064 A 
ATOM      2  C   UNL d   1      58.307   0.284  30.155  0.00  0.00     0.095 A 
ATOM      3  C   UNL d   1      58.682  -0.558  29.052  0.00  0.00     0.007 A 
ATOM      4  C   UNL d   1      59.708  -0.024  29.935  0.00  0.00     0.007 A 
ATOM      5  C   UNL d   1      59.109   0.365  30.376  0.00  0.00     0.020 A 
ATOM      6  C   UNL d   1      58.094  -0.177  29.494  0.00  0.00     0.020 A 
ENDROOT
BRANCH   2   7
ATOM      7  N   UNL d   1      57.712   0.682  30.598  0.00  0.00    -0.144 NA
BRANCH   7   8
ATOM      8  S   UNL d   1      57.392   0.332  31.271  0.00  0.00     0.351 S 
ATOM      9  O   UNL d   1      56.696   0.293  30.834  0.00  0.00    -0.180 OA
ATOM     10  O   UNL d   1      58.088   0.370  31.710  0.00  0.00    -0.180 OA
BRANCH   8  11
ATOM     11  N   UNL d   1      57.010  -0.023  31.909  0.00  0.00    -0.215 N 
ATOM     12  C   UNL d   1      56.703  -0.779  31.766  0.00  0.00     0.093 C 
ATOM     13  C   UNL d   1      56.321  -1.283  32.293  0.00  0.00     0.020 C 
ATOM     14  C   UNL d   1      56.054  -1.114  33.055  0.00  0.00     0.002 C 
ATOM     15  C   UNL d   1      56.101  -0.408  33.476  0.00  0.00     0.002 C 
ATOM     16  C   UNL d   1      56.429   0.305  33.235  0.00  0.00     0.020 C 
ATOM     17  C   UNL d   1      56.793   0.494  32.513  0.00  0.00     0.093 C 
ENDBRANCH   8  11
ENDBRANCH   7   8
ENDBRANCH   2   7
BRANCH   1  18
ATOM     18  C   UNL d   1      60.060  -0.884  28.837  0.00  0.00     0.300 C 
ATOM     19  O   UNL d   1      60.744  -0.482  28.608  0.00  0.00    -0.259 OA
BRANCH  18  20
ATOM     20  O   UNL d   1      59.951  -1.673  28.635  0.00  0.00    -0.271 OA
BRANCH  20  21
ATOM     21  C   UNL d   1      60.596  -2.156  28.458  0.00  0.00     0.126 C 
ATOM     22  C   UNL d   1      60.524  -2.976  28.477  0.00  0.00     0.029 C 
ENDBRANCH  20  21
ENDBRANCH  18  20
ENDBRANCH   1  18
TORSDOF 6
ENDMDL
