MODEL 1
REMARK VINA RESULT:      -5.5      0.000      0.000
REMARK  6 active torsions:
REMARK  status: ('A' for Active; 'I' for Inactive)
REMARK    1  A    between atoms: S_6  and  C_1 
REMARK    2  A    between atoms: C_15  and  S_6 
REMARK    3  A    between atoms: C_8  and  O_11 
REMARK    4  A    between atoms: C_10  and  C_15 
REMARK    5  A    between atoms: C_16  and  C_10 
REMARK    6  A    between atoms: O_11  and  C_16 
ROOT
ATOM      1  C   UNL d   1     -41.609-122.649 -51.572  0.00  0.00     0.040 C 
ENDROOT
BRANCH   1   2
ATOM      2  C   UNL d   1     -41.303-122.750 -50.813  0.00  0.00     0.034 C 
BRANCH   2   3
ATOM      3  C   UNL d   1     -41.792-123.033 -50.208  0.00  0.00     0.123 C 
BRANCH   3   4
ATOM      4  O   UNL d   1     -41.445-123.394 -49.552  0.00  0.00    -0.305 OA
BRANCH   4   5
ATOM      5  C   UNL d   1     -41.868-123.469 -48.851  0.00  0.00     0.100 A 
ATOM      6  C   UNL d   1     -41.492-123.349 -48.126  0.00  0.00     0.025 A 
ATOM      7  C   UNL d   1     -41.927-123.426 -47.419  0.00  0.00     0.002 A 
ATOM      8  C   UNL d   1     -41.552-123.307 -46.695  0.00  0.00     0.000 C 
ATOM      9  C   UNL d   1     -42.728-123.621 -47.445  0.00  0.00     0.000 A 
ATOM     10  C   UNL d   1     -43.100-123.739 -48.181  0.00  0.00     0.002 A 
ATOM     11  C   UNL d   1     -42.673-123.664 -48.884  0.00  0.00     0.025 A 
ENDBRANCH   4   5
ENDBRANCH   3   4
ENDBRANCH   2   3
ENDBRANCH   1   2
BRANCH   1  12
ATOM     12  S   UNL d   1     -41.123-122.359 -52.171  0.00  0.00    -0.048 SA
BRANCH  12  13
ATOM     13  C   UNL d   1     -41.380-122.361 -52.954  0.00  0.00     0.194 A 
ATOM     14  N   UNL d   1     -41.226-122.944 -53.525  0.00  0.00    -0.220 NA
ATOM     15  C   UNL d   1     -41.595-122.714 -54.233  0.00  0.00     0.101 A 
ATOM     16  C   UNL d   1     -41.627-123.075 -54.975  0.00  0.00     0.021 A 
ATOM     17  C   UNL d   1     -41.981-121.986 -54.108  0.00  0.00     0.101 A 
ATOM     18  C   UNL d   1     -42.041-122.717 -55.591  0.00  0.00     0.002 A 
ATOM     19  C   UNL d   1     -42.423-121.997 -55.467  0.00  0.00     0.002 A 
ATOM     20  C   UNL d   1     -42.392-121.635 -54.728  0.00  0.00     0.021 A 
ATOM     21  N   UNL d   1     -41.847-121.766 -53.312  0.00  0.00    -0.220 NA
ENDBRANCH  12  13
ENDBRANCH   1  12
TORSDOF 6
ENDMDL
MODEL 2
REMARK VINA RESULT:      -5.0      1.674      5.908
REMARK  6 active torsions:
REMARK  status: ('A' for Active; 'I' for Inactive)
REMARK    1  A    between atoms: S_6  and  C_1 
REMARK    2  A    between atoms: C_15  and  S_6 
REMARK    3  A    between atoms: C_8  and  O_11 
REMARK    4  A    between atoms: C_10  and  C_15 
REMARK    5  A    between atoms: C_16  and  C_10 
REMARK    6  A    between atoms: O_11  and  C_16 
ROOT
ATOM      1  C   UNL d   1     -41.643-122.425 -50.985  0.00  0.00     0.040 C 
ENDROOT
BRANCH   1   2
ATOM      2  C   UNL d   1     -41.273-122.095 -51.643  0.00  0.00     0.034 C 
BRANCH   2   3
ATOM      3  C   UNL d   1     -41.400-122.422 -52.393  0.00  0.00     0.123 C 
BRANCH   3   4
ATOM      4  O   UNL d   1     -41.540-121.917 -53.030  0.00  0.00    -0.305 OA
BRANCH   4   5
ATOM      5  C   UNL d   1     -41.590-122.220 -53.793  0.00  0.00     0.100 A 
ATOM      6  C   UNL d   1     -42.080-121.860 -54.350  0.00  0.00     0.025 A 
ATOM      7  C   UNL d   1     -42.126-122.172 -55.122  0.00  0.00     0.002 A 
ATOM      8  C   UNL d   1     -42.616-121.811 -55.678  0.00  0.00     0.000 C 
ATOM      9  C   UNL d   1     -41.684-122.838 -55.325  0.00  0.00     0.000 A 
ATOM     10  C   UNL d   1     -41.191-123.196 -54.757  0.00  0.00     0.002 A 
ATOM     11  C   UNL d   1     -41.142-122.890 -53.991  0.00  0.00     0.025 A 
ENDBRANCH   4   5
ENDBRANCH   3   4
ENDBRANCH   2   3
ENDBRANCH   1   2
BRANCH   1  12
ATOM     12  S   UNL d   1     -41.185-122.764 -50.389  0.00  0.00    -0.048 SA
BRANCH  12  13
ATOM     13  C   UNL d   1     -41.527-122.972 -49.668  0.00  0.00     0.194 A 
ATOM     14  N   UNL d   1     -41.201-122.857 -48.913  0.00  0.00    -0.220 NA
ATOM     15  C   UNL d   1     -41.740-123.151 -48.353  0.00  0.00     0.101 A 
ATOM     16  C   UNL d   1     -41.708-123.183 -47.529  0.00  0.00     0.021 A 
ATOM     17  C   UNL d   1     -42.405-123.451 -48.755  0.00  0.00     0.101 A 
ATOM     18  C   UNL d   1     -42.333-123.511 -47.104  0.00  0.00     0.002 A 
ATOM     19  C   UNL d   1     -42.992-123.807 -47.502  0.00  0.00     0.002 A 
ATOM     20  C   UNL d   1     -43.025-123.776 -48.324  0.00  0.00     0.021 A 
ATOM     21  N   UNL d   1     -42.274-123.339 -49.575  0.00  0.00    -0.220 NA
ENDBRANCH  12  13
ENDBRANCH   1  12
TORSDOF 6
ENDMDL
