MODEL 1
REMARK VINA RESULT:      55.1      0.000      0.000
REMARK  3 active torsions:
REMARK  status: ('A' for Active; 'I' for Inactive)
REMARK    1  A    between atoms: C_15  and  N_4 
REMARK    2  A    between atoms: C_11  and  N_10 
REMARK    3  A    between atoms: C_19  and  C_15 
ROOT
ATOM      1  C   UNL d   1      14.181  14.598  -3.020  0.00  0.00     0.191 A 
ATOM      2  C   UNL d   1      13.919  14.156  -3.672  0.00  0.00     0.173 A 
ATOM      3  C   UNL d   1      13.922  13.349  -2.592  0.00  0.00     0.722 A 
ATOM      4  N   UNL d   1      14.057  15.298  -4.529  0.00  0.00    -0.224 N 
ATOM      5  N   UNL d   1      14.187  14.112  -2.349  0.00  0.00    -0.042 NA
ATOM      6  N   UNL d   1      13.759  13.377  -3.398  0.00  0.00    -0.131 N 
ATOM      7  N   UNL d   1      14.388  15.412  -3.117  0.00  0.00    -0.240 N 
ATOM      8  C   UNL d   1      14.322  15.763  -3.894  0.00  0.00     0.343 A 
ATOM      9  C   UNL d   1      13.855  14.480  -4.403  0.00  0.00     0.288 A 
ATOM     10  N   UNL d   1      13.765  12.588  -2.327  0.00  0.00    -0.139 N 
ATOM     11  C   UNL d   1      13.501  12.629  -3.632  0.00  0.00     0.118 A 
ATOM     12  C   UNL d   1      13.507  12.146  -2.964  0.00  0.00     0.117 A 
ATOM     13  O   UNL d   1      14.520  16.574  -4.029  0.00  0.00    -0.245 OA
ATOM     14  O   UNL d   1      13.588  14.029  -5.067  0.00  0.00    -0.265 OA
ATOM     15  C   UNL d   1      14.654  15.868  -2.466  0.00  0.00     0.105 C 
ENDROOT
BRANCH  10  16
ATOM     16  C   UNL d   1      13.854  12.317  -1.551  0.00  0.00     0.082 A 
ATOM     17  C   UNL d   1      14.606  12.173  -1.261  0.00  0.00     0.027 A 
ATOM     18  C   UNL d   1      14.694  11.905  -0.495  0.00  0.00     0.059 A 
ATOM     19  C   UNL d   1      15.274  12.296  -1.736  0.00  0.00     0.002 C 
ATOM     20 CL   UNL d   1      15.480  11.782  -0.271  0.00  0.00    -0.082 Cl
ATOM     21  C   UNL d   1      14.031  11.779  -0.015  0.00  0.00     0.011 A 
ATOM     22  C   UNL d   1      13.274  11.925  -0.310  0.00  0.00     0.002 A 
ATOM     23  C   UNL d   1      13.189  12.196  -1.084  0.00  0.00     0.018 A 
ENDBRANCH  10  16
BRANCH   4  24
ATOM     24  C   UNL d   1      14.137  15.955  -5.022  0.00  0.00     0.087 C 
BRANCH  24  25
ATOM     25  C   UNL d   1      13.986  15.879  -5.824  0.00  0.00     0.018 C 
ATOM     26  C   UNL d   1      14.556  15.537  -6.313  0.00  0.00     0.002 C 
ATOM     27  C   UNL d   1      13.282  16.135  -6.147  0.00  0.00     0.002 C 
ENDBRANCH  24  25
ENDBRANCH   4  24
TORSDOF 3
ENDMDL
