MODEL 1
REMARK VINA RESULT:      13.9      0.000      0.000
REMARK  3 active torsions:
REMARK  status: ('A' for Active; 'I' for Inactive)
REMARK    1  A    between atoms: C_2  and  C_1 
REMARK    2  A    between atoms: C_4  and  C_1 
REMARK    3  A    between atoms: C_3  and  C_2 
ROOT
ATOM      1  C   UNL d   1      58.067  49.704  50.817  0.00  0.00     0.000 A 
ATOM      2  C   UNL d   1      57.483  49.699  50.225  0.00  0.00     0.000 A 
ATOM      3  C   UNL d   1      56.704  49.696  50.432  0.00  0.00     0.000 A 
ATOM      4  C   UNL d   1      57.056  49.706  51.828  0.00  0.00     0.000 A 
ATOM      5  C   UNL d   1      57.853  49.708  51.616  0.00  0.00     0.000 A 
ATOM      6  C   UNL d   1      57.702  49.695  49.443  0.00  0.00     0.000 A 
ATOM      7  C   UNL d   1      56.472  49.700  51.241  0.00  0.00     0.000 A 
ATOM      8  C   UNL d   1      56.107  49.690  49.867  0.00  0.00     0.000 A 
ATOM      9  C   UNL d   1      57.120  49.689  48.859  0.00  0.00     0.000 A 
ATOM     10  C   UNL d   1      56.323  49.687  49.071  0.00  0.00     0.000 A 
ENDROOT
BRANCH   1  11
ATOM     11  C   UNL d   1      58.865  49.707  50.604  0.00  0.00     0.006 C 
BRANCH  11  12
ATOM     12  C   UNL d   1      59.425  49.398  51.104  0.00  0.00     0.070 C 
BRANCH  12  13
ATOM     13  C   UNL d   1      60.236  49.568  50.989  0.00  0.00     0.211 C 
ATOM     14  O   UNL d   1      60.735  49.685  51.624  0.00  0.00    -0.644 OA
ATOM     15  O   UNL d   1      60.551  49.620  50.229  0.00  0.00    -0.644 OA
ENDBRANCH  12  13
ENDBRANCH  11  12
ENDBRANCH   1  11
TORSDOF 3
ENDMDL
MODEL 2
REMARK VINA RESULT:      16.4      1.733      3.642
REMARK  3 active torsions:
REMARK  status: ('A' for Active; 'I' for Inactive)
REMARK    1  A    between atoms: C_2  and  C_1 
REMARK    2  A    between atoms: C_4  and  C_1 
REMARK    3  A    between atoms: C_3  and  C_2 
ROOT
ATOM      1  C   UNL d   1      59.011  49.706  50.426  0.00  0.00     0.000 A 
ATOM      2  C   UNL d   1      59.558  49.706  51.052  0.00  0.00     0.000 A 
ATOM      3  C   UNL d   1      60.348  49.704  50.891  0.00  0.00     0.000 A 
ATOM      4  C   UNL d   1      60.080  49.703  49.476  0.00  0.00     0.000 A 
ATOM      5  C   UNL d   1      59.272  49.705  49.640  0.00  0.00     0.000 A 
ATOM      6  C   UNL d   1      59.293  49.707  51.819  0.00  0.00     0.000 A 
ATOM      7  C   UNL d   1      60.628  49.703  50.098  0.00  0.00     0.000 A 
ATOM      8  C   UNL d   1      60.910  49.704  51.490  0.00  0.00     0.000 A 
ATOM      9  C   UNL d   1      59.839  49.707  52.436  0.00  0.00     0.000 A 
ATOM     10  C   UNL d   1      60.648  49.706  52.272  0.00  0.00     0.000 A 
ENDROOT
BRANCH   1  11
ATOM     11  C   UNL d   1      58.201  49.708  50.590  0.00  0.00     0.006 C 
BRANCH  11  12
ATOM     12  C   UNL d   1      57.663  49.521  50.012  0.00  0.00     0.070 C 
BRANCH  12  13
ATOM     13  C   UNL d   1      56.843  49.551  50.170  0.00  0.00     0.211 C 
ATOM     14  O   UNL d   1      56.295  49.465  49.571  0.00  0.00    -0.644 OA
ATOM     15  O   UNL d   1      56.566  49.668  50.939  0.00  0.00    -0.644 OA
ENDBRANCH  12  13
ENDBRANCH  11  12
ENDBRANCH   1  11
TORSDOF 3
ENDMDL
