MODEL 1
REMARK VINA RESULT:      -8.3      0.000      0.000
REMARK  2 active torsions:
REMARK  status: ('A' for Active; 'I' for Inactive)
REMARK    1  A    between atoms: N_7  and  C_3 
REMARK    2  A    between atoms: C_11  and  N_8 
ROOT
ATOM      1  N   UNL d   1     -46.651  13.277  22.658  0.00  0.00    -0.286 N 
ATOM      2  N   UNL d   1     -48.117  13.999  22.856  0.00  0.00    -0.301 N 
ATOM      3  C   UNL d   1     -47.318  12.961  22.287  0.00  0.00     0.101 A 
ATOM      4  C   UNL d   1     -46.716  13.946  23.123  0.00  0.00     0.101 A 
ATOM      5  C   UNL d   1     -48.051  13.326  22.389  0.00  0.00     0.100 A 
ATOM      6  C   UNL d   1     -47.449  14.311  23.224  0.00  0.00     0.100 A 
ENDROOT
BRANCH   1   7
ATOM      7  C   UNL d   1     -45.922  12.914  22.558  0.00  0.00     0.154 A 
ATOM      8  C   UNL d   1     -45.756  12.221  22.951  0.00  0.00     0.091 A 
ATOM      9  C   UNL d   1     -45.027  11.858  22.851  0.00  0.00     0.170 A 
ATOM     10  C   UNL d   1     -46.205  11.766  23.476  0.00  0.00     0.127 A 
ATOM     11  N   UNL d   1     -45.021  11.174  23.315  0.00  0.00    -0.209 N 
ATOM     12  N   UNL d   1     -44.467  12.190  22.357  0.00  0.00    -0.205 NA
ATOM     13  C   UNL d   1     -44.391  10.642  23.377  0.00  0.00     0.123 C 
ATOM     14  N   UNL d   1     -45.746  11.118  23.698  0.00  0.00    -0.162 NA
ATOM     15  C   UNL d   1     -44.637  12.886  21.964  0.00  0.00     0.202 A 
ATOM     16  N   UNL d   1     -45.369  13.250  22.065  0.00  0.00    -0.206 NA
ENDBRANCH   1   7
BRANCH   2  17
ATOM     17  C   UNL d   1     -48.852  14.361  22.955  0.00  0.00     0.065 A 
ATOM     18  C   UNL d   1     -49.492  13.916  23.214  0.00  0.00     0.030 A 
ATOM     19  C   UNL d   1     -50.231  14.268  23.316  0.00  0.00     0.070 A 
ATOM     20 CL   UNL d   1     -50.870  13.815  23.577  0.00  0.00    -0.081 Cl
ATOM     21  C   UNL d   1     -50.325  15.076  23.155  0.00  0.00     0.068 A 
ATOM     22  C   UNL d   1     -49.679  15.525  22.893  0.00  0.00     0.014 A 
ATOM     23 CL   UNL d   1     -51.062  15.434  23.256  0.00  0.00    -0.082 Cl
ATOM     24  C   UNL d   1     -48.942  15.167  22.793  0.00  0.00     0.018 A 
ENDBRANCH   2  17
TORSDOF 2
ENDMDL
MODEL 2
REMARK VINA RESULT:      -7.3      0.554      1.270
REMARK  2 active torsions:
REMARK  status: ('A' for Active; 'I' for Inactive)
REMARK    1  A    between atoms: N_7  and  C_3 
REMARK    2  A    between atoms: C_11  and  N_8 
ROOT
ATOM      1  N   UNL d   1     -46.865  12.887  22.976  0.00  0.00    -0.286 N 
ATOM      2  N   UNL d   1     -48.261  13.760  22.947  0.00  0.00    -0.301 N 
ATOM      3  C   UNL d   1     -47.522  12.597  22.568  0.00  0.00     0.101 A 
ATOM      4  C   UNL d   1     -46.904  13.604  23.365  0.00  0.00     0.101 A 
ATOM      5  C   UNL d   1     -48.220  13.038  22.556  0.00  0.00     0.100 A 
ATOM      6  C   UNL d   1     -47.602  14.045  23.353  0.00  0.00     0.100 A 
ENDROOT
BRANCH   1   7
ATOM      7  C   UNL d   1     -46.171  12.449  22.988  0.00  0.00     0.154 A 
ATOM      8  C   UNL d   1     -45.538  12.680  22.531  0.00  0.00     0.091 A 
ATOM      9  C   UNL d   1     -44.843  12.242  22.543  0.00  0.00     0.170 A 
ATOM     10  C   UNL d   1     -45.438  13.317  22.013  0.00  0.00     0.127 A 
ATOM     11  N   UNL d   1     -44.308  12.608  22.030  0.00  0.00    -0.209 N 
ATOM     12  N   UNL d   1     -44.786  11.576  23.012  0.00  0.00    -0.205 NA
ATOM     13  C   UNL d   1     -43.538  12.348  21.875  0.00  0.00     0.123 C 
ATOM     14  N   UNL d   1     -44.674  13.267  21.705  0.00  0.00    -0.162 NA
ATOM     15  C   UNL d   1     -45.423  11.347  23.469  0.00  0.00     0.202 A 
ATOM     16  N   UNL d   1     -46.120  11.787  23.457  0.00  0.00    -0.206 NA
ENDBRANCH   1   7
BRANCH   2  17
ATOM     17  C   UNL d   1     -48.960  14.197  22.933  0.00  0.00     0.065 A 
ATOM     18  C   UNL d   1     -49.630  13.902  23.303  0.00  0.00     0.030 A 
ATOM     19  C   UNL d   1     -50.335  14.331  23.295  0.00  0.00     0.070 A 
ATOM     20 CL   UNL d   1     -51.006  14.029  23.670  0.00  0.00    -0.081 Cl
ATOM     21  C   UNL d   1     -50.362  15.065  22.908  0.00  0.00     0.068 A 
ATOM     22  C   UNL d   1     -49.685  15.362  22.534  0.00  0.00     0.014 A 
ATOM     23 CL   UNL d   1     -51.064  15.499  22.897  0.00  0.00    -0.082 Cl
ATOM     24  C   UNL d   1     -48.984  14.928  22.547  0.00  0.00     0.018 A 
ENDBRANCH   2  17
TORSDOF 2
ENDMDL
MODEL 3
REMARK VINA RESULT:      -7.1      2.525      4.996
REMARK  2 active torsions:
REMARK  status: ('A' for Active; 'I' for Inactive)
REMARK    1  A    between atoms: N_7  and  C_3 
REMARK    2  A    between atoms: C_11  and  N_8 
ROOT
ATOM      1  N   UNL d   1     -47.701  13.413  22.786  0.00  0.00    -0.286 N 
ATOM      2  N   UNL d   1     -46.505  12.312  23.044  0.00  0.00    -0.301 N 
ATOM      3  C   UNL d   1     -47.031  13.415  22.303  0.00  0.00     0.101 A 
ATOM      4  C   UNL d   1     -47.773  12.868  23.390  0.00  0.00     0.101 A 
ATOM      5  C   UNL d   1     -46.434  12.862  22.436  0.00  0.00     0.100 A 
ATOM      6  C   UNL d   1     -47.176  12.315  23.523  0.00  0.00     0.100 A 
ENDROOT
BRANCH   1   7
ATOM      7  C   UNL d   1     -48.297  13.964  22.655  0.00  0.00     0.154 A 
ATOM      8  C   UNL d   1     -48.963  13.748  22.240  0.00  0.00     0.091 A 
ATOM      9  C   UNL d   1     -49.558  14.298  22.109  0.00  0.00     0.170 A 
ATOM     10  C   UNL d   1     -49.187  13.031  21.893  0.00  0.00     0.127 A 
ATOM     11  N   UNL d   1     -50.156  13.923  21.678  0.00  0.00    -0.209 N 
ATOM     12  N   UNL d   1     -49.483  15.060  22.392  0.00  0.00    -0.205 NA
ATOM     13  C   UNL d   1     -50.861  14.276  21.427  0.00  0.00     0.123 C 
ATOM     14  N   UNL d   1     -49.927  13.145  21.547  0.00  0.00    -0.162 NA
ATOM     15  C   UNL d   1     -48.813  15.273  22.808  0.00  0.00     0.202 A 
ATOM     16  N   UNL d   1     -48.216  14.720  22.940  0.00  0.00    -0.206 NA
ENDBRANCH   1   7
BRANCH   2  17
ATOM     17  C   UNL d   1     -45.905  11.761  23.173  0.00  0.00     0.065 A 
ATOM     18  C   UNL d   1     -45.145  11.919  22.907  0.00  0.00     0.030 A 
ATOM     19  C   UNL d   1     -44.537  11.375  23.030  0.00  0.00     0.070 A 
ATOM     20 CL   UNL d   1     -43.774  11.540  22.761  0.00  0.00    -0.081 Cl
ATOM     21  C   UNL d   1     -44.700  10.664  23.426  0.00  0.00     0.068 A 
ATOM     22  C   UNL d   1     -45.468  10.505  23.694  0.00  0.00     0.014 A 
ATOM     23 CL   UNL d   1     -44.096  10.115  23.553  0.00  0.00    -0.082 Cl
ATOM     24  C   UNL d   1     -46.070  11.054  23.567  0.00  0.00     0.018 A 
ENDBRANCH   2  17
TORSDOF 2
ENDMDL
MODEL 4
REMARK VINA RESULT:      -6.6      2.353      5.066
REMARK  2 active torsions:
REMARK  status: ('A' for Active; 'I' for Inactive)
REMARK    1  A    between atoms: N_7  and  C_3 
REMARK    2  A    between atoms: C_11  and  N_8 
ROOT
ATOM      1  N   UNL d   1     -48.774  13.217  22.872  0.00  0.00    -0.286 N 
ATOM      2  N   UNL d   1     -47.239  12.622  22.900  0.00  0.00    -0.301 N 
ATOM      3  C   UNL d   1     -48.251  13.400  22.259  0.00  0.00     0.101 A 
ATOM      4  C   UNL d   1     -48.533  12.743  23.491  0.00  0.00     0.101 A 
ATOM      5  C   UNL d   1     -47.483  13.100  22.277  0.00  0.00     0.100 A 
ATOM      6  C   UNL d   1     -47.764  12.443  23.510  0.00  0.00     0.100 A 
ENDROOT
BRANCH   1   7
ATOM      7  C   UNL d   1     -49.539  13.515  22.854  0.00  0.00     0.154 A 
ATOM      8  C   UNL d   1     -49.679  14.283  23.085  0.00  0.00     0.091 A 
ATOM      9  C   UNL d   1     -50.444  14.582  23.068  0.00  0.00     0.170 A 
ATOM     10  C   UNL d   1     -49.172  14.877  23.357  0.00  0.00     0.127 A 
ATOM     11  N   UNL d   1     -50.413  15.365  23.330  0.00  0.00    -0.209 N 
ATOM     12  N   UNL d   1     -51.063  14.111  22.820  0.00  0.00    -0.205 NA
ATOM     13  C   UNL d   1     -51.061  15.874  23.399  0.00  0.00     0.123 C 
ATOM     14  N   UNL d   1     -49.631  15.546  23.507  0.00  0.00    -0.162 NA
ATOM     15  C   UNL d   1     -50.918  13.341  22.589  0.00  0.00     0.202 A 
ATOM     16  N   UNL d   1     -50.151  13.041  22.606  0.00  0.00    -0.206 NA
ENDBRANCH   1   7
BRANCH   2  17
ATOM     17  C   UNL d   1     -46.469  12.324  22.914  0.00  0.00     0.065 A 
ATOM     18  C   UNL d   1     -46.317  11.613  23.294  0.00  0.00     0.030 A 
ATOM     19  C   UNL d   1     -45.552  11.306  23.314  0.00  0.00     0.070 A 
ATOM     20 CL   UNL d   1     -45.405  10.589  23.698  0.00  0.00    -0.081 Cl
ATOM     21  C   UNL d   1     -44.935  11.722  22.947  0.00  0.00     0.068 A 
ATOM     22  C   UNL d   1     -45.089  12.441  22.564  0.00  0.00     0.014 A 
ATOM     23 CL   UNL d   1     -44.167  11.420  22.964  0.00  0.00    -0.082 Cl
ATOM     24  C   UNL d   1     -45.857  12.742  22.548  0.00  0.00     0.018 A 
ENDBRANCH   2  17
TORSDOF 2
ENDMDL
MODEL 5
REMARK VINA RESULT:      -6.3      8.292      8.897
REMARK  2 active torsions:
REMARK  status: ('A' for Active; 'I' for Inactive)
REMARK    1  A    between atoms: N_7  and  C_3 
REMARK    2  A    between atoms: C_11  and  N_8 
ROOT
ATOM      1  N   UNL d   1     -39.473  15.240  20.937  0.00  0.00    -0.286 N 
ATOM      2  N   UNL d   1     -39.998  15.324  19.379  0.00  0.00    -0.301 N 
ATOM      3  C   UNL d   1     -38.958  15.494  20.344  0.00  0.00     0.101 A 
ATOM      4  C   UNL d   1     -40.241  15.031  20.755  0.00  0.00     0.101 A 
ATOM      5  C   UNL d   1     -39.225  15.535  19.564  0.00  0.00     0.100 A 
ATOM      6  C   UNL d   1     -40.508  15.071  19.975  0.00  0.00     0.100 A 
ENDROOT
BRANCH   1   7
ATOM      7  C   UNL d   1     -39.208  15.199  21.714  0.00  0.00     0.154 A 
ATOM      8  C   UNL d   1     -38.938  14.491  22.012  0.00  0.00     0.091 A 
ATOM      9  C   UNL d   1     -38.673  14.450  22.788  0.00  0.00     0.170 A 
ATOM     10  C   UNL d   1     -38.867  13.742  21.671  0.00  0.00     0.127 A 
ATOM     11  N   UNL d   1     -38.436  13.671  22.931  0.00  0.00    -0.209 N 
ATOM     12  N   UNL d   1     -38.680  15.116  23.261  0.00  0.00    -0.205 NA
ATOM     13  C   UNL d   1     -38.131  13.385  23.645  0.00  0.00     0.123 C 
ATOM     14  N   UNL d   1     -38.555  13.237  22.244  0.00  0.00    -0.162 NA
ATOM     15  C   UNL d   1     -38.953  15.824  22.958  0.00  0.00     0.202 A 
ATOM     16  N   UNL d   1     -39.219  15.865  22.179  0.00  0.00    -0.206 NA
ENDBRANCH   1   7
BRANCH   2  17
ATOM     17  C   UNL d   1     -40.260  15.367  18.598  0.00  0.00     0.065 A 
ATOM     18  C   UNL d   1     -39.909  14.895  18.026  0.00  0.00     0.030 A 
ATOM     19  C   UNL d   1     -40.163  14.929  17.242  0.00  0.00     0.070 A 
ATOM     20 CL   UNL d   1     -39.805  14.451  16.671  0.00  0.00    -0.081 Cl
ATOM     21  C   UNL d   1     -40.779  15.445  17.035  0.00  0.00     0.068 A 
ATOM     22  C   UNL d   1     -41.134  15.922  17.613  0.00  0.00     0.014 A 
ATOM     23 CL   UNL d   1     -41.038  15.484  16.252  0.00  0.00    -0.082 Cl
ATOM     24  C   UNL d   1     -40.874  15.882  18.395  0.00  0.00     0.018 A 
ENDBRANCH   2  17
TORSDOF 2
ENDMDL
MODEL 6
REMARK VINA RESULT:      -6.1      8.567      9.481
REMARK  2 active torsions:
REMARK  status: ('A' for Active; 'I' for Inactive)
REMARK    1  A    between atoms: N_7  and  C_3 
REMARK    2  A    between atoms: C_11  and  N_8 
ROOT
ATOM      1  N   UNL d   1     -39.541  14.962  18.833  0.00  0.00    -0.286 N 
ATOM      2  N   UNL d   1     -39.243  14.852  20.449  0.00  0.00    -0.301 N 
ATOM      3  C   UNL d   1     -39.941  14.400  19.288  0.00  0.00     0.101 A 
ATOM      4  C   UNL d   1     -38.998  15.463  19.182  0.00  0.00     0.101 A 
ATOM      5  C   UNL d   1     -39.789  14.349  20.097  0.00  0.00     0.100 A 
ATOM      6  C   UNL d   1     -38.845  15.411  19.991  0.00  0.00     0.100 A 
ENDROOT
BRANCH   1   7
ATOM      7  C   UNL d   1     -39.692  15.014  18.028  0.00  0.00     0.154 A 
ATOM      8  C   UNL d   1     -40.388  15.346  17.767  0.00  0.00     0.091 A 
ATOM      9  C   UNL d   1     -40.539  15.398  16.962  0.00  0.00     0.170 A 
ATOM     10  C   UNL d   1     -41.030  15.669  18.176  0.00  0.00     0.127 A 
ATOM     11  N   UNL d   1     -41.279  15.756  16.868  0.00  0.00    -0.209 N 
ATOM     12  N   UNL d   1     -39.993  15.119  16.422  0.00  0.00    -0.205 NA
ATOM     13  C   UNL d   1     -41.646  15.916  16.145  0.00  0.00     0.123 C 
ATOM     14  N   UNL d   1     -41.579  15.922  17.615  0.00  0.00    -0.162 NA
ATOM     15  C   UNL d   1     -39.296  14.786  16.688  0.00  0.00     0.202 A 
ATOM     16  N   UNL d   1     -39.145  14.734  17.496  0.00  0.00    -0.206 NA
ENDBRANCH   1   7
BRANCH   2  17
ATOM     17  C   UNL d   1     -39.093  14.797  21.259  0.00  0.00     0.065 A 
ATOM     18  C   UNL d   1     -38.753  14.115  21.562  0.00  0.00     0.030 A 
ATOM     19  C   UNL d   1     -38.599  14.049  22.370  0.00  0.00     0.070 A 
ATOM     20 CL   UNL d   1     -38.256  13.360  22.670  0.00  0.00    -0.081 Cl
ATOM     21  C   UNL d   1     -38.792  14.678  22.876  0.00  0.00     0.068 A 
ATOM     22  C   UNL d   1     -39.136  15.367  22.568  0.00  0.00     0.014 A 
ATOM     23 CL   UNL d   1     -38.641  14.618  23.685  0.00  0.00    -0.082 Cl
ATOM     24  C   UNL d   1     -39.287  15.426  21.759  0.00  0.00     0.018 A 
ENDBRANCH   2  17
TORSDOF 2
ENDMDL
MODEL 7
REMARK VINA RESULT:      -5.7      9.028     10.038
REMARK  2 active torsions:
REMARK  status: ('A' for Active; 'I' for Inactive)
REMARK    1  A    between atoms: N_7  and  C_3 
REMARK    2  A    between atoms: C_11  and  N_8 
ROOT
ATOM      1  N   UNL d   1     -38.824  14.532  20.307  0.00  0.00    -0.286 N 
ATOM      2  N   UNL d   1     -38.654  14.288  18.688  0.00  0.00    -0.301 N 
ATOM      3  C   UNL d   1     -38.108  14.714  19.938  0.00  0.00     0.101 A 
ATOM      4  C   UNL d   1     -39.447  14.231  19.873  0.00  0.00     0.101 A 
ATOM      5  C   UNL d   1     -38.027  14.591  19.126  0.00  0.00     0.100 A 
ATOM      6  C   UNL d   1     -39.366  14.108  19.062  0.00  0.00     0.100 A 
ENDROOT
BRANCH   1   7
ATOM      7  C   UNL d   1     -38.905  14.654  21.115  0.00  0.00     0.154 A 
ATOM      8  C   UNL d   1     -38.705  14.061  21.637  0.00  0.00     0.091 A 
ATOM      9  C   UNL d   1     -38.786  14.184  22.444  0.00  0.00     0.170 A 
ATOM     10  C   UNL d   1     -38.412  13.298  21.515  0.00  0.00     0.127 A 
ATOM     11  N   UNL d   1     -38.543  13.493  22.828  0.00  0.00    -0.209 N 
ATOM     12  N   UNL d   1     -39.067  14.897  22.726  0.00  0.00    -0.205 NA
ATOM     13  C   UNL d   1     -38.535  13.376  23.647  0.00  0.00     0.123 C 
ATOM     14  N   UNL d   1     -38.313  12.950  22.256  0.00  0.00    -0.162 NA
ATOM     15  C   UNL d   1     -39.266  15.489  22.200  0.00  0.00     0.202 A 
ATOM     16  N   UNL d   1     -39.185  15.366  21.389  0.00  0.00    -0.206 NA
ENDBRANCH   1   7
BRANCH   2  17
ATOM     17  C   UNL d   1     -38.568  14.167  17.876  0.00  0.00     0.065 A 
ATOM     18  C   UNL d   1     -38.664  14.797  17.360  0.00  0.00     0.030 A 
ATOM     19  C   UNL d   1     -38.581  14.687  16.546  0.00  0.00     0.070 A 
ATOM     20 CL   UNL d   1     -38.678  15.326  16.031  0.00  0.00    -0.081 Cl
ATOM     21  C   UNL d   1     -38.399  13.932  16.253  0.00  0.00     0.068 A 
ATOM     22  C   UNL d   1     -38.303  13.296  16.775  0.00  0.00     0.014 A 
ATOM     23 CL   UNL d   1     -38.315  13.815  15.440  0.00  0.00    -0.082 Cl
ATOM     24  C   UNL d   1     -38.388  13.413  17.587  0.00  0.00     0.018 A 
ENDBRANCH   2  17
TORSDOF 2
ENDMDL
MODEL 8
REMARK VINA RESULT:      -5.7      8.840      9.731
REMARK  2 active torsions:
REMARK  status: ('A' for Active; 'I' for Inactive)
REMARK    1  A    between atoms: N_7  and  C_3 
REMARK    2  A    between atoms: C_11  and  N_8 
ROOT
ATOM      1  N   UNL d   1     -39.420  15.096  18.789  0.00  0.00    -0.286 N 
ATOM      2  N   UNL d   1     -39.228  15.154  20.423  0.00  0.00    -0.301 N 
ATOM      3  C   UNL d   1     -39.699  14.475  19.257  0.00  0.00     0.101 A 
ATOM      4  C   UNL d   1     -39.049  15.737  19.132  0.00  0.00     0.101 A 
ATOM      5  C   UNL d   1     -39.601  14.509  20.076  0.00  0.00     0.100 A 
ATOM      6  C   UNL d   1     -38.950  15.771  19.951  0.00  0.00     0.100 A 
ENDROOT
BRANCH   1   7
ATOM      7  C   UNL d   1     -39.517  15.064  17.974  0.00  0.00     0.154 A 
ATOM      8  C   UNL d   1     -38.971  14.670  17.516  0.00  0.00     0.091 A 
ATOM      9  C   UNL d   1     -39.069  14.638  16.702  0.00  0.00     0.170 A 
ATOM     10  C   UNL d   1     -38.280  14.261  17.714  0.00  0.00     0.127 A 
ATOM     11  N   UNL d   1     -38.435  14.207  16.390  0.00  0.00    -0.209 N 
ATOM     12  N   UNL d   1     -39.711  14.999  16.350  0.00  0.00    -0.205 NA
ATOM     13  C   UNL d   1     -38.316  14.040  15.589  0.00  0.00     0.123 C 
ATOM     14  N   UNL d   1     -37.952  13.976  17.013  0.00  0.00    -0.162 NA
ATOM     15  C   UNL d   1     -40.257  15.393  16.813  0.00  0.00     0.202 A 
ATOM     16  N   UNL d   1     -40.159  15.425  17.630  0.00  0.00    -0.206 NA
ENDBRANCH   1   7
BRANCH   2  17
ATOM     17  C   UNL d   1     -39.131  15.183  21.242  0.00  0.00     0.065 A 
ATOM     18  C   UNL d   1     -38.935  14.499  21.651  0.00  0.00     0.030 A 
ATOM     19  C   UNL d   1     -38.836  14.516  22.470  0.00  0.00     0.070 A 
ATOM     20 CL   UNL d   1     -38.638  13.825  22.877  0.00  0.00    -0.081 Cl
ATOM     21  C   UNL d   1     -38.937  15.232  22.879  0.00  0.00     0.068 A 
ATOM     22  C   UNL d   1     -39.136  15.922  22.465  0.00  0.00     0.014 A 
ATOM     23 CL   UNL d   1     -38.840  15.256  23.698  0.00  0.00    -0.082 Cl
ATOM     24  C   UNL d   1     -39.233  15.897  21.646  0.00  0.00     0.018 A 
ENDBRANCH   2  17
TORSDOF 2
ENDMDL
