MODEL 1
REMARK VINA RESULT:      88.1      0.000      0.000
REMARK  6 active torsions:
REMARK  status: ('A' for Active; 'I' for Inactive)
REMARK    1  A    between atoms: C_16  and  C_2 
REMARK    2  A    between atoms: C_11  and  C_7 
REMARK    3  A    between atoms: S_17  and  C_9 
REMARK    4  A    between atoms: O_20  and  C_11 
REMARK    5  A    between atoms: C_13  and  C_19 
REMARK    6  A    between atoms: C_19  and  S_17 
ROOT
ATOM      1  N   UNL d   1      61.789  44.919  49.947  0.00  0.00    -0.191 N 
ATOM      2  C   UNL d   1      61.892  44.127  50.133  0.00  0.00     0.187 A 
ATOM      3  N   UNL d   1      62.168  43.746  49.461  0.00  0.00    -0.127 NA
ATOM      4  C   UNL d   1      61.998  45.040  49.165  0.00  0.00     0.187 A 
ATOM      5  N   UNL d   1      61.523  45.568  50.407  0.00  0.00    -0.156 NA
ATOM      6  N   UNL d   1      62.236  44.304  48.857  0.00  0.00    -0.127 NA
ATOM      7  C   UNL d   1      61.473  46.320  50.072  0.00  0.00     0.131 A 
ATOM      8  C   UNL d   1      61.948  45.793  48.829  0.00  0.00     0.043 A 
ATOM      9  C   UNL d   1      61.686  46.432  49.282  0.00  0.00     0.031 A 
ENDROOT
BRANCH   7  10
ATOM     10  S   UNL d   1      61.211  46.959  50.525  0.00  0.00    -0.064 SA
BRANCH  10  11
ATOM     11  C   UNL d   1      61.453  47.723  50.336  0.00  0.00     0.062 C 
BRANCH  11  12
ATOM     12  C   UNL d   1      61.068  48.364  50.666  0.00  0.00     0.107 A 
ATOM     13  O   UNL d   1      60.256  48.482  50.682  0.00  0.00    -0.301 OA
ATOM     14  C   UNL d   1      60.101  49.189  51.063  0.00  0.00     0.163 A 
ATOM     15  C   UNL d   1      60.826  49.523  51.291  0.00  0.00     0.032 A 
ATOM     16  C   UNL d   1      61.421  49.009  51.043  0.00  0.00     0.027 A 
BRANCH  14  17
ATOM     17  C   UNL d   1      59.363  49.522  51.202  0.00  0.00     0.319 C 
ATOM     18  O   UNL d   1      59.112  49.707  51.971  0.00  0.00    -0.257 OA
BRANCH  17  19
ATOM     19  O   UNL d   1      58.858  49.679  50.569  0.00  0.00    -0.294 OA
ATOM     20  C   UNL d   1      58.037  49.694  50.674  0.00  0.00     0.185 C 
ENDBRANCH  17  19
ENDBRANCH  14  17
ENDBRANCH  11  12
ENDBRANCH  10  11
ENDBRANCH   7  10
BRANCH   2  21
ATOM     21  C   UNL d   1      61.747  43.771  50.857  0.00  0.00     0.038 A 
ATOM     22  C   UNL d   1      62.211  43.129  51.094  0.00  0.00     0.003 A 
ATOM     23  C   UNL d   1      62.068  42.766  51.826  0.00  0.00     0.000 A 
ATOM     24  C   UNL d   1      61.464  43.048  52.312  0.00  0.00     0.000 A 
ATOM     25  C   UNL d   1      61.000  43.691  52.074  0.00  0.00     0.000 A 
ATOM     26  C   UNL d   1      61.148  44.048  51.343  0.00  0.00     0.003 A 
ENDBRANCH   2  21
TORSDOF 6
ENDMDL
