MODEL 1
REMARK VINA RESULT:      18.7      0.000      0.000
REMARK  3 active torsions:
REMARK  status: ('A' for Active; 'I' for Inactive)
REMARK    1  A    between atoms: N_3  and  S_1 
REMARK    2  A    between atoms: C_10  and  S_1 
REMARK    3  A    between atoms: C_2  and  N_3 
ROOT
ATOM      1  N   UNL d   1      59.385  49.695  50.967  0.00  0.00     0.034 NA
ENDROOT
BRANCH   1   2
ATOM      2  C   UNL d   1      58.637  49.693  50.620  0.00  0.00     0.760 A 
ATOM      3  N   UNL d   1      58.461  49.705  49.814  0.00  0.00    -0.057 NA
ATOM      4  C   UNL d   1      57.663  49.698  49.714  0.00  0.00     0.118 A 
ATOM      5  C   UNL d   1      57.189  49.704  49.039  0.00  0.00     0.021 A 
ATOM      6  C   UNL d   1      57.316  49.682  50.463  0.00  0.00     0.118 A 
ATOM      7  C   UNL d   1      56.391  49.695  49.125  0.00  0.00     0.002 A 
ATOM      8  C   UNL d   1      56.044  49.679  49.873  0.00  0.00     0.002 A 
ATOM      9  C   UNL d   1      56.495  49.673  50.536  0.00  0.00     0.021 A 
ATOM     10  N   UNL d   1      57.905  49.680  51.012  0.00  0.00    -0.057 NA
ENDBRANCH   1   2
BRANCH   1  11
ATOM     11  S   UNL d   1      60.060  49.697  50.492  0.00  0.00     0.300 S 
ATOM     12  O   UNL d   1      60.736  49.699  50.013  0.00  0.00    -0.198 OA
ATOM     13  O   UNL d   1      59.585  49.696  49.817  0.00  0.00    -0.198 OA
BRANCH  11  14
ATOM     14  C   UNL d   1      60.535  49.698  51.168  0.00  0.00     0.106 A 
ATOM     15  C   UNL d   1      60.187  49.695  51.915  0.00  0.00     0.013 A 
ATOM     16  C   UNL d   1      60.662  49.696  52.593  0.00  0.00     0.001 A 
ATOM     17  C   UNL d   1      61.484  49.701  52.520  0.00  0.00     0.000 A 
ATOM     18  C   UNL d   1      61.802  49.704  51.771  0.00  0.00     0.001 A 
ATOM     19  C   UNL d   1      61.357  49.703  51.094  0.00  0.00     0.013 A 
ENDBRANCH  11  14
ENDBRANCH   1  11
TORSDOF 3
ENDMDL
