MODEL 1
REMARK VINA RESULT:      -5.4      0.000      0.000
REMARK  2 active torsions:
REMARK  status: ('A' for Active; 'I' for Inactive)
REMARK       I    between atoms: N_2  and  C_1 
REMARK    1  A    between atoms: C_6  and  C_1 
REMARK    2  A    between atoms: C_4  and  N_2 
ROOT
ATOM      1  C   UNL d   1     -47.744  13.270  22.856  0.00  0.00     0.085 A 
ATOM      2  C   UNL d   1     -47.597  14.086  22.796  0.00  0.00     0.019 A 
ATOM      3  C   UNL d   1     -47.121  12.731  22.912  0.00  0.00     0.019 A 
ATOM      4  C   UNL d   1     -46.340  12.998  22.908  0.00  0.00     0.002 A 
ATOM      5  C   UNL d   1     -46.817  14.355  22.792  0.00  0.00     0.002 A 
ATOM      6  C   UNL d   1     -46.184  13.807  22.849  0.00  0.00     0.000 A 
ENDROOT
BRANCH   1   7
ATOM      7  N   UNL d   1     -48.524  13.002  22.860  0.00  0.00    -0.207 NA
ATOM      8  C   UNL d   1     -48.895  12.808  22.149  0.00  0.00     0.300 C 
ATOM      9  O   UNL d   1     -48.487  12.882  21.435  0.00  0.00    -0.263 OA
BRANCH   8  10
ATOM     10  C   UNL d   1     -49.675  12.540  22.153  0.00  0.00     0.184 C 
ATOM     11  N   UNL d   1     -50.100  12.499  21.447  0.00  0.00    -0.141 N 
ENDBRANCH   8  10
ENDBRANCH   1   7
TORSDOF 2
ENDMDL
MODEL 2
REMARK VINA RESULT:      -3.0      2.060      3.245
REMARK  2 active torsions:
REMARK  status: ('A' for Active; 'I' for Inactive)
REMARK       I    between atoms: N_2  and  C_1 
REMARK    1  A    between atoms: C_6  and  C_1 
REMARK    2  A    between atoms: C_4  and  N_2 
ROOT
ATOM      1  C   UNL d   1     -49.312  11.749  22.895  0.00  0.00     0.085 A 
ATOM      2  C   UNL d   1     -49.935  11.832  23.440  0.00  0.00     0.019 A 
ATOM      3  C   UNL d   1     -49.362  12.083  22.142  0.00  0.00     0.019 A 
ATOM      4  C   UNL d   1     -50.035  12.506  21.920  0.00  0.00     0.002 A 
ATOM      5  C   UNL d   1     -50.608  12.255  23.219  0.00  0.00     0.002 A 
ATOM      6  C   UNL d   1     -50.658  12.594  22.454  0.00  0.00     0.000 A 
ENDROOT
BRANCH   1   7
ATOM      7  N   UNL d   1     -48.639  11.326  23.116  0.00  0.00    -0.207 NA
ATOM      8  C   UNL d   1     -47.986  11.724  23.425  0.00  0.00     0.300 C 
ATOM      9  O   UNL d   1     -48.006  12.545  23.512  0.00  0.00    -0.263 OA
BRANCH   8  10
ATOM     10  C   UNL d   1     -47.313  11.302  23.646  0.00  0.00     0.184 C 
ATOM     11  N   UNL d   1     -46.585  11.686  23.698  0.00  0.00    -0.141 N 
ENDBRANCH   8  10
ENDBRANCH   1   7
TORSDOF 2
ENDMDL
