MODEL 1
REMARK VINA RESULT:      -3.6      0.000      0.000
REMARK  4 active torsions:
REMARK  status: ('A' for Active; 'I' for Inactive)
REMARK    1  A    between atoms: C_7  and  C_4 
REMARK    2  A    between atoms: C_8  and  C_5 
REMARK    3  A    between atoms: S_9  and  C_6 
REMARK    4  A    between atoms: C_14  and  S_9 
ROOT
ATOM      1  N   UNL d   1      59.042  -0.859  29.259  0.00  0.00    -0.200 NA
ATOM      2  N   UNL d   1      57.930  -1.209  30.055  0.00  0.00    -0.202 NA
ATOM      3  N   UNL d   1      58.555   0.067  30.220  0.00  0.00    -0.206 NA
ATOM      4  C   UNL d   1      59.099  -0.139  29.617  0.00  0.00     0.187 A 
ATOM      5  C   UNL d   1      57.979  -0.475  30.428  0.00  0.00     0.166 A 
ATOM      6  C   UNL d   1      58.460  -1.391  29.477  0.00  0.00     0.197 A 
ENDROOT
BRANCH   5   7
ATOM      7  C   UNL d   1      57.441  -0.278  31.022  0.00  0.00     0.036 A 
ATOM      8  C   UNL d   1      57.174   0.481  31.074  0.00  0.00     0.003 A 
ATOM      9  C   UNL d   1      56.636   0.677  31.667  0.00  0.00     0.000 A 
ATOM     10  C   UNL d   1      56.377   0.100  32.198  0.00  0.00     0.000 A 
ATOM     11  C   UNL d   1      56.655  -0.674  32.136  0.00  0.00     0.000 A 
ATOM     12  C   UNL d   1      57.181  -0.855  31.552  0.00  0.00     0.003 A 
ENDBRANCH   5   7
BRANCH   6  13
ATOM     13  S   UNL d   1      58.404  -2.150  29.096  0.00  0.00    -0.048 SA
BRANCH  13  14
ATOM     14  C   UNL d   1      59.087  -2.594  28.941  0.00  0.00     0.038 C 
ATOM     15  C   UNL d   1      59.027  -3.373  28.666  0.00  0.00     0.008 C 
ENDBRANCH  13  14
ENDBRANCH   6  13
BRANCH   4  16
ATOM     16  C   UNL d   1      59.691   0.381  29.382  0.00  0.00     0.151 C 
ATOM     17 CL   UNL d   1      59.747   0.587  28.602  0.00  0.00    -0.067 Cl
ATOM     18 CL   UNL d   1      60.209   0.682  29.919  0.00  0.00    -0.067 Cl
ENDBRANCH   4  16
TORSDOF 4
ENDMDL
MODEL 2
REMARK VINA RESULT:      -3.2      1.427      2.107
REMARK  4 active torsions:
REMARK  status: ('A' for Active; 'I' for Inactive)
REMARK    1  A    between atoms: C_7  and  C_4 
REMARK    2  A    between atoms: C_8  and  C_5 
REMARK    3  A    between atoms: S_9  and  C_6 
REMARK    4  A    between atoms: C_14  and  S_9 
ROOT
ATOM      1  N   UNL d   1      59.125  -0.975  29.194  0.00  0.00    -0.200 NA
ATOM      2  N   UNL d   1      58.599   0.013  30.054  0.00  0.00    -0.202 NA
ATOM      3  N   UNL d   1      58.078  -1.319  30.091  0.00  0.00    -0.206 NA
ATOM      4  C   UNL d   1      58.621  -1.530  29.489  0.00  0.00     0.187 A 
ATOM      5  C   UNL d   1      58.078  -0.547  30.363  0.00  0.00     0.166 A 
ATOM      6  C   UNL d   1      59.114  -0.207  29.475  0.00  0.00     0.197 A 
ENDROOT
BRANCH   5   7
ATOM      7  C   UNL d   1      57.546  -0.332  30.955  0.00  0.00     0.036 A 
ATOM      8  C   UNL d   1      57.442   0.449  31.124  0.00  0.00     0.003 A 
ATOM      9  C   UNL d   1      56.910   0.665  31.717  0.00  0.00     0.000 A 
ATOM     10  C   UNL d   1      56.492   0.083  32.129  0.00  0.00     0.000 A 
ATOM     11  C   UNL d   1      56.606  -0.713  31.948  0.00  0.00     0.000 A 
ATOM     12  C   UNL d   1      57.128  -0.913  31.367  0.00  0.00     0.003 A 
ENDBRANCH   5   7
BRANCH   6  13
ATOM     13  S   UNL d   1      59.649   0.375  29.161  0.00  0.00    -0.048 SA
BRANCH  13  14
ATOM     14  C   UNL d   1      60.374   0.147  28.831  0.00  0.00     0.038 C 
ATOM     15  C   UNL d   1      61.007   0.680  28.796  0.00  0.00     0.008 C 
ENDBRANCH  13  14
ENDBRANCH   6  13
BRANCH   4  16
ATOM     16  C   UNL d   1      58.649  -2.297  29.192  0.00  0.00     0.151 C 
ATOM     17 CL   UNL d   1      58.193  -2.487  28.550  0.00  0.00    -0.067 Cl
ATOM     18 CL   UNL d   1      59.121  -2.852  29.532  0.00  0.00    -0.067 Cl
ENDBRANCH   4  16
TORSDOF 4
ENDMDL
MODEL 3
REMARK VINA RESULT:      -2.1      1.532      3.507
REMARK  4 active torsions:
REMARK  status: ('A' for Active; 'I' for Inactive)
REMARK    1  A    between atoms: C_7  and  C_4 
REMARK    2  A    between atoms: C_8  and  C_5 
REMARK    3  A    between atoms: S_9  and  C_6 
REMARK    4  A    between atoms: C_14  and  S_9 
ROOT
ATOM      1  N   UNL d   1      58.518  -0.154  29.854  0.00  0.00    -0.200 NA
ATOM      2  N   UNL d   1      59.138  -1.095  29.003  0.00  0.00    -0.202 NA
ATOM      3  N   UNL d   1      58.100  -1.512  29.894  0.00  0.00    -0.206 NA
ATOM      4  C   UNL d   1      58.038  -0.721  30.166  0.00  0.00     0.187 A 
ATOM      5  C   UNL d   1      58.652  -1.683  29.315  0.00  0.00     0.166 A 
ATOM      6  C   UNL d   1      59.065  -0.340  29.275  0.00  0.00     0.197 A 
ENDROOT
BRANCH   5   7
ATOM      7  C   UNL d   1      58.718  -2.459  29.043  0.00  0.00     0.036 A 
ATOM      8  C   UNL d   1      59.433  -2.829  29.085  0.00  0.00     0.003 A 
ATOM      9  C   UNL d   1      59.499  -3.605  28.813  0.00  0.00     0.000 A 
ATOM     10  C   UNL d   1      58.839  -3.993  28.503  0.00  0.00     0.000 A 
ATOM     11  C   UNL d   1      58.112  -3.604  28.464  0.00  0.00     0.000 A 
ATOM     12  C   UNL d   1      58.058  -2.846  28.733  0.00  0.00     0.003 A 
ENDBRANCH   5   7
BRANCH   6  13
ATOM     13  S   UNL d   1      59.570   0.263  28.949  0.00  0.00    -0.048 SA
BRANCH  13  14
ATOM     14  C   UNL d   1      60.394   0.185  28.984  0.00  0.00     0.038 C 
ATOM     15  C   UNL d   1      60.882   0.682  28.535  0.00  0.00     0.008 C 
ENDBRANCH  13  14
ENDBRANCH   6  13
BRANCH   4  16
ATOM     16  C   UNL d   1      57.494  -0.513  30.746  0.00  0.00     0.151 C 
ATOM     17 CL   UNL d   1      57.258  -1.071  31.283  0.00  0.00    -0.067 Cl
ATOM     18 CL   UNL d   1      57.200   0.235  30.784  0.00  0.00    -0.067 Cl
ENDBRANCH   4  16
TORSDOF 4
ENDMDL
MODEL 4
REMARK VINA RESULT:      -2.0      1.673      3.525
REMARK  4 active torsions:
REMARK  status: ('A' for Active; 'I' for Inactive)
REMARK    1  A    between atoms: C_7  and  C_4 
REMARK    2  A    between atoms: C_8  and  C_5 
REMARK    3  A    between atoms: S_9  and  C_6 
REMARK    4  A    between atoms: C_14  and  S_9 
ROOT
ATOM      1  N   UNL d   1      57.992  -1.803  29.857  0.00  0.00    -0.200 NA
ATOM      2  N   UNL d   1      58.605  -0.534  29.959  0.00  0.00    -0.202 NA
ATOM      3  N   UNL d   1      59.239  -1.578  29.213  0.00  0.00    -0.206 NA
ATOM      4  C   UNL d   1      58.598  -2.082  29.404  0.00  0.00     0.187 A 
ATOM      5  C   UNL d   1      59.229  -0.810  29.496  0.00  0.00     0.166 A 
ATOM      6  C   UNL d   1      57.996  -1.033  30.133  0.00  0.00     0.197 A 
ENDROOT
BRANCH   5   7
ATOM      7  C   UNL d   1      59.857  -0.308  29.311  0.00  0.00     0.036 A 
ATOM      8  C   UNL d   1      59.818   0.139  28.641  0.00  0.00     0.003 A 
ATOM      9  C   UNL d   1      60.446   0.641  28.457  0.00  0.00     0.000 A 
ATOM     10  C   UNL d   1      61.104   0.681  28.955  0.00  0.00     0.000 A 
ATOM     11  C   UNL d   1      61.133   0.220  29.638  0.00  0.00     0.000 A 
ATOM     12  C   UNL d   1      60.514  -0.268  29.809  0.00  0.00     0.003 A 
ENDBRANCH   5   7
BRANCH   6  13
ATOM     13  S   UNL d   1      57.355  -0.742  30.612  0.00  0.00    -0.048 SA
BRANCH  13  14
ATOM     14  C   UNL d   1      57.365  -0.843  31.434  0.00  0.00     0.038 C 
ATOM     15  C   UNL d   1      56.727  -0.585  31.896  0.00  0.00     0.008 C 
ENDBRANCH  13  14
ENDBRANCH   6  13
BRANCH   4  16
ATOM     16  C   UNL d   1      58.574  -2.859  29.137  0.00  0.00     0.151 C 
ATOM     17 CL   UNL d   1      58.039  -3.063  28.565  0.00  0.00    -0.067 Cl
ATOM     18 CL   UNL d   1      59.074  -3.412  29.439  0.00  0.00    -0.067 Cl
ENDBRANCH   4  16
TORSDOF 4
ENDMDL
MODEL 5
REMARK VINA RESULT:      -1.1      1.809      2.278
REMARK  4 active torsions:
REMARK  status: ('A' for Active; 'I' for Inactive)
REMARK    1  A    between atoms: C_7  and  C_4 
REMARK    2  A    between atoms: C_8  and  C_5 
REMARK    3  A    between atoms: S_9  and  C_6 
REMARK    4  A    between atoms: C_14  and  S_9 
ROOT
ATOM      1  N   UNL d   1      59.241   0.599  30.804  0.00  0.00    -0.200 NA
ATOM      2  N   UNL d   1      57.855   0.585  31.075  0.00  0.00    -0.202 NA
ATOM      3  N   UNL d   1      58.794   0.657  32.152  0.00  0.00    -0.206 NA
ATOM      4  C   UNL d   1      59.415   0.641  31.590  0.00  0.00     0.187 A 
ATOM      5  C   UNL d   1      58.022   0.628  31.881  0.00  0.00     0.166 A 
ATOM      6  C   UNL d   1      58.465   0.571  30.548  0.00  0.00     0.197 A 
ENDROOT
BRANCH   5   7
ATOM      7  C   UNL d   1      57.406   0.643  32.429  0.00  0.00     0.036 A 
ATOM      8  C   UNL d   1      56.645   0.649  32.163  0.00  0.00     0.003 A 
ATOM      9  C   UNL d   1      56.029   0.664  32.711  0.00  0.00     0.000 A 
ATOM     10  C   UNL d   1      56.194   0.673  33.520  0.00  0.00     0.000 A 
ATOM     11  C   UNL d   1      56.977   0.666  33.781  0.00  0.00     0.000 A 
ATOM     12  C   UNL d   1      57.572   0.652  33.238  0.00  0.00     0.003 A 
ENDBRANCH   5   7
BRANCH   6  13
ATOM     13  S   UNL d   1      58.285   0.526  29.717  0.00  0.00    -0.048 SA
BRANCH  13  14
ATOM     14  C   UNL d   1      58.464  -0.158  29.284  0.00  0.00     0.038 C 
ATOM     15  C   UNL d   1      58.390  -0.164  28.459  0.00  0.00     0.008 C 
ENDBRANCH  13  14
ENDBRANCH   6  13
BRANCH   4  16
ATOM     16  C   UNL d   1      60.203   0.668  31.825  0.00  0.00     0.151 C 
ATOM     17 CL   UNL d   1      60.376   0.681  32.616  0.00  0.00    -0.067 Cl
ATOM     18 CL   UNL d   1      60.794   0.682  31.280  0.00  0.00    -0.067 Cl
ENDBRANCH   4  16
TORSDOF 4
ENDMDL
MODEL 6
REMARK VINA RESULT:      -0.7      9.454      9.978
REMARK  4 active torsions:
REMARK  status: ('A' for Active; 'I' for Inactive)
REMARK    1  A    between atoms: C_7  and  C_4 
REMARK    2  A    between atoms: C_8  and  C_5 
REMARK    3  A    between atoms: S_9  and  C_6 
REMARK    4  A    between atoms: C_14  and  S_9 
ROOT
ATOM      1  N   UNL d   1      58.707  -9.813  32.559  0.00  0.00    -0.200 NA
ATOM      2  N   UNL d   1      59.889  -9.808  31.787  0.00  0.00    -0.202 NA
ATOM      3  N   UNL d   1      58.612  -9.807  31.141  0.00  0.00    -0.206 NA
ATOM      4  C   UNL d   1      58.249  -9.811  31.896  0.00  0.00     0.187 A 
ATOM      5  C   UNL d   1      59.429  -9.805  31.102  0.00  0.00     0.166 A 
ATOM      6  C   UNL d   1      59.523  -9.812  32.505  0.00  0.00     0.197 A 
ENDROOT
BRANCH   5   7
ATOM      7  C   UNL d   1      59.794  -9.802  30.362  0.00  0.00     0.036 A 
ATOM      8  C   UNL d   1      60.599  -9.783  30.321  0.00  0.00     0.003 A 
ATOM      9  C   UNL d   1      60.963  -9.780  29.581  0.00  0.00     0.000 A 
ATOM     10  C   UNL d   1      60.505  -9.794  28.894  0.00  0.00     0.000 A 
ATOM     11  C   UNL d   1      59.682  -9.813  28.947  0.00  0.00     0.000 A 
ATOM     12  C   UNL d   1      59.336  -9.816  29.675  0.00  0.00     0.003 A 
ENDBRANCH   5   7
BRANCH   6  13
ATOM     13  S   UNL d   1      60.003  -9.814  33.207  0.00  0.00    -0.048 SA
BRANCH  13  14
ATOM     14  C   UNL d   1      59.910  -9.224  33.782  0.00  0.00     0.038 C 
ATOM     15  C   UNL d   1      60.279  -9.296  34.521  0.00  0.00     0.008 C 
ENDBRANCH  13  14
ENDBRANCH   6  13
BRANCH   4  16
ATOM     16  C   UNL d   1      57.430  -9.812  31.974  0.00  0.00     0.151 C 
ATOM     17 CL   UNL d   1      57.105  -9.815  32.715  0.00  0.00    -0.067 Cl
ATOM     18 CL   UNL d   1      56.956  -9.811  31.324  0.00  0.00    -0.067 Cl
ENDBRANCH   4  16
TORSDOF 4
ENDMDL
