MODEL 1
REMARK VINA RESULT:      64.1      0.000      0.000
REMARK  7 active torsions:
REMARK  status: ('A' for Active; 'I' for Inactive)
REMARK    1  A    between atoms: S_2  and  C_1 
REMARK    2  A    between atoms: C_7  and  S_2 
REMARK    3  A    between atoms: C_9  and  N_3 
REMARK    4  A    between atoms: C_11  and  C_7 
REMARK    5  A    between atoms: C_8  and  C_9 
REMARK       I    between atoms: N_10  and  C_8 
REMARK       I    between atoms: N_15  and  C_11 
REMARK    6  A    between atoms: C_12  and  C_16 
REMARK    7  A    between atoms: C_23  and  N_15 
ROOT
ATOM      1  C   UNL d   1      13.472  13.693  -3.781  0.00  0.00     0.107 A 
ATOM      2  N   UNL d   1      13.573  12.436  -3.356  0.00  0.00    -0.299 N 
ATOM      3  C   UNL d   1      13.679  13.221  -3.133  0.00  0.00     0.092 A 
ATOM      4  C   UNL d   1      13.240  13.196  -4.396  0.00  0.00     0.028 A 
ATOM      5  C   UNL d   1      13.303  12.417  -4.129  0.00  0.00     0.065 A 
ATOM      6  C   UNL d   1      12.980  13.353  -5.160  0.00  0.00     0.002 A 
ATOM      7  C   UNL d   1      13.105  11.798  -4.636  0.00  0.00     0.018 A 
ATOM      8  C   UNL d   1      12.780  12.731  -5.669  0.00  0.00     0.000 A 
ATOM      9  C   UNL d   1      12.845  11.953  -5.400  0.00  0.00     0.002 A 
ENDROOT
BRANCH   1  10
ATOM     10  S   UNL d   1      13.494  14.520  -3.805  0.00  0.00     0.217 S 
ATOM     11  O   UNL d   1      13.696  14.536  -4.597  0.00  0.00    -0.217 OA
ATOM     12  O   UNL d   1      13.288  14.501  -2.999  0.00  0.00    -0.217 OA
BRANCH  10  13
ATOM     13  C   UNL d   1      13.515  15.349  -3.822  0.00  0.00     0.161 C 
BRANCH  13  14
ATOM     14  C   UNL d   1      14.054  15.751  -3.364  0.00  0.00     0.291 C 
ATOM     15  N   UNL d   1      13.874  15.949  -2.584  0.00  0.00    -0.207 NA
ATOM     16  O   UNL d   1      14.788  15.964  -3.681  0.00  0.00    -0.264 OA
BRANCH  15  17
ATOM     17  C   UNL d   1      14.422  16.357  -2.123  0.00  0.00     0.085 A 
ATOM     18  C   UNL d   1      14.766  17.055  -2.403  0.00  0.00     0.019 A 
ATOM     19  C   UNL d   1      15.313  17.466  -1.949  0.00  0.00     0.006 A 
ATOM     20  C   UNL d   1      15.527  17.181  -1.197  0.00  0.00     0.059 A 
ATOM     21  C   UNL d   1      15.190  16.484  -0.907  0.00  0.00     0.006 A 
ATOM     22  C   UNL d   1      14.634  16.068  -1.372  0.00  0.00     0.019 A 
BRANCH  20  23
ATOM     23  C   UNL d   1      16.070  17.582  -0.737  0.00  0.00     0.297 C 
ATOM     24  O   UNL d   1      15.909  18.343  -0.453  0.00  0.00    -0.264 OA
ATOM     25  N   UNL d   1      16.802  17.220  -0.551  0.00  0.00    -0.102 N 
ENDBRANCH  20  23
ENDBRANCH  15  17
ENDBRANCH  13  14
ENDBRANCH  10  13
ENDBRANCH   1  10
BRANCH   2  26
ATOM     26  C   UNL d   1      13.714  11.779  -2.879  0.00  0.00     0.142 C 
BRANCH  26  27
ATOM     27  C   UNL d   1      13.549  11.812  -2.074  0.00  0.00     0.282 C 
ATOM     28  N   UNL d   1      14.164  11.812  -1.526  0.00  0.00    -0.271 N 
ATOM     29  C   UNL d   1      14.951  11.780  -1.778  0.00  0.00     0.083 A 
ATOM     30  C   UNL d   1      13.999  11.844  -0.722  0.00  0.00     0.083 A 
ATOM     31  C   UNL d   1      15.569  11.781  -1.227  0.00  0.00     0.019 A 
ATOM     32  C   UNL d   1      15.400  11.813  -0.425  0.00  0.00     0.003 A 
ATOM     33  C   UNL d   1      14.621  11.845  -0.168  0.00  0.00     0.019 A 
ATOM     34  O   UNL d   1      12.769  11.843  -1.818  0.00  0.00    -0.265 OA
ENDBRANCH  26  27
ENDBRANCH   2  26
TORSDOF 7
ENDMDL
MODEL 2
REMARK VINA RESULT:      66.3      2.424      3.120
REMARK  7 active torsions:
REMARK  status: ('A' for Active; 'I' for Inactive)
REMARK    1  A    between atoms: S_2  and  C_1 
REMARK    2  A    between atoms: C_7  and  S_2 
REMARK    3  A    between atoms: C_9  and  N_3 
REMARK    4  A    between atoms: C_11  and  C_7 
REMARK    5  A    between atoms: C_8  and  C_9 
REMARK       I    between atoms: N_10  and  C_8 
REMARK       I    between atoms: N_15  and  C_11 
REMARK    6  A    between atoms: C_12  and  C_16 
REMARK    7  A    between atoms: C_23  and  N_15 
ROOT
ATOM      1  C   UNL d   1      13.631  14.042  -4.552  0.00  0.00     0.107 A 
ATOM      2  N   UNL d   1      13.628  13.648  -3.281  0.00  0.00    -0.299 N 
ATOM      3  C   UNL d   1      13.819  14.274  -3.780  0.00  0.00     0.092 A 
ATOM      4  C   UNL d   1      13.326  13.277  -4.522  0.00  0.00     0.028 A 
ATOM      5  C   UNL d   1      13.325  13.035  -3.732  0.00  0.00     0.065 A 
ATOM      6  C   UNL d   1      13.050  12.773  -5.109  0.00  0.00     0.002 A 
ATOM      7  C   UNL d   1      13.045  12.285  -3.538  0.00  0.00     0.018 A 
ATOM      8  C   UNL d   1      12.769  12.019  -4.916  0.00  0.00     0.000 A 
ATOM      9  C   UNL d   1      12.769  11.780  -4.125  0.00  0.00     0.002 A 
ENDROOT
BRANCH   1  10
ATOM     10  S   UNL d   1      13.733  14.500  -5.234  0.00  0.00     0.217 S 
ATOM     11  O   UNL d   1      14.430  14.123  -5.436  0.00  0.00    -0.217 OA
ATOM     12  O   UNL d   1      13.024  14.881  -5.025  0.00  0.00    -0.217 OA
BRANCH  10  13
ATOM     13  C   UNL d   1      13.829  14.961  -5.915  0.00  0.00     0.161 C 
BRANCH  13  14
ATOM     14  C   UNL d   1      13.925  15.767  -5.850  0.00  0.00     0.291 C 
ATOM     15  N   UNL d   1      13.437  16.281  -6.269  0.00  0.00    -0.207 NA
ATOM     16  O   UNL d   1      14.517  16.074  -5.359  0.00  0.00    -0.264 OA
BRANCH  15  17
ATOM     17  C   UNL d   1      13.537  17.097  -6.200  0.00  0.00     0.085 A 
ATOM     18  C   UNL d   1      12.916  17.611  -6.386  0.00  0.00     0.019 A 
ATOM     19  C   UNL d   1      13.010  18.424  -6.319  0.00  0.00     0.006 A 
ATOM     20  C   UNL d   1      13.736  18.740  -6.063  0.00  0.00     0.059 A 
ATOM     21  C   UNL d   1      14.362  18.236  -5.875  0.00  0.00     0.006 A 
ATOM     22  C   UNL d   1      14.264  17.408  -5.943  0.00  0.00     0.019 A 
BRANCH  20  23
ATOM     23  C   UNL d   1      13.838  19.548  -5.993  0.00  0.00     0.297 C 
ATOM     24  O   UNL d   1      13.193  20.065  -6.042  0.00  0.00    -0.264 OA
ATOM     25  N   UNL d   1      14.607  19.857  -5.871  0.00  0.00    -0.102 N 
ENDBRANCH  20  23
ENDBRANCH  15  17
ENDBRANCH  13  14
ENDBRANCH  10  13
ENDBRANCH   1  10
BRANCH   2  26
ATOM     26  C   UNL d   1      13.725  13.641  -2.463  0.00  0.00     0.142 C 
BRANCH  26  27
ATOM     27  C   UNL d   1      14.093  13.003  -2.097  0.00  0.00     0.282 C 
ATOM     28  N   UNL d   1      14.546  13.120  -1.419  0.00  0.00    -0.271 N 
ATOM     29  C   UNL d   1      14.635  13.878  -1.100  0.00  0.00     0.083 A 
ATOM     30  C   UNL d   1      14.914  12.483  -1.054  0.00  0.00     0.083 A 
ATOM     31  C   UNL d   1      15.090  13.996  -0.418  0.00  0.00     0.019 A 
ATOM     32  C   UNL d   1      15.456  13.357  -0.057  0.00  0.00     0.003 A 
ATOM     33  C   UNL d   1      15.372  12.602  -0.369  0.00  0.00     0.019 A 
ATOM     34  O   UNL d   1      14.008  12.247  -2.410  0.00  0.00    -0.265 OA
ENDBRANCH  26  27
ENDBRANCH   2  26
TORSDOF 7
ENDMDL
