MODEL 1
REMARK VINA RESULT:      -4.8      0.000      0.000
REMARK  1 active torsions:
REMARK  status: ('A' for Active; 'I' for Inactive)
REMARK    1  A    between atoms: C_6  and  C_1 
ROOT
ATOM      1  C   UNL d   1      55.905  -0.179  33.031  0.00  0.00     0.085 A 
ATOM      2  C   UNL d   1      55.822  -0.999  33.108  0.00  0.00     0.137 A 
ATOM      3  C   UNL d   1      56.390  -0.023  32.403  0.00  0.00     0.013 A 
ATOM      4  C   UNL d   1      56.611  -0.746  32.088  0.00  0.00     0.031 A 
ATOM      5  S   UNL d   1      56.253  -1.342  32.532  0.00  0.00    -0.066 SA
ATOM      6  C   UNL d   1      56.665   0.682  32.070  0.00  0.00     0.001 A 
ATOM      7  C   UNL d   1      57.099  -0.774  31.448  0.00  0.00     0.006 A 
ATOM      8  N   UNL d   1      55.357  -1.421  33.701  0.00  0.00    -0.141 N 
ATOM      9  C   UNL d   1      57.152   0.667  31.433  0.00  0.00     0.000 A 
ATOM     10  C   UNL d   1      57.377  -0.093  31.111  0.00  0.00     0.001 A 
ATOM     11  C   UNL d   1      57.904  -0.127  30.421  0.00  0.00     0.000 C 
ENDROOT
BRANCH   1  12
ATOM     12  C   UNL d   1      55.535   0.386  33.535  0.00  0.00     0.299 C 
ATOM     13  O   UNL d   1      54.782   0.661  33.362  0.00  0.00    -0.264 OA
ATOM     14  N   UNL d   1      55.935   0.677  34.227  0.00  0.00    -0.102 N 
ENDBRANCH   1  12
TORSDOF 1
ENDMDL
MODEL 2
REMARK VINA RESULT:      -4.6      1.678      2.641
REMARK  1 active torsions:
REMARK  status: ('A' for Active; 'I' for Inactive)
REMARK    1  A    between atoms: C_6  and  C_1 
ROOT
ATOM      1  C   UNL d   1      56.910  -0.199  31.766  0.00  0.00     0.085 A 
ATOM      2  C   UNL d   1      56.929  -1.020  31.657  0.00  0.00     0.137 A 
ATOM      3  C   UNL d   1      56.414  -0.029  32.381  0.00  0.00     0.013 A 
ATOM      4  C   UNL d   1      56.122  -0.743  32.656  0.00  0.00     0.031 A 
ATOM      5  S   UNL d   1      56.448  -1.349  32.200  0.00  0.00    -0.066 SA
ATOM      6  C   UNL d   1      56.183   0.682  32.734  0.00  0.00     0.001 A 
ATOM      7  C   UNL d   1      55.607  -0.757  33.275  0.00  0.00     0.006 A 
ATOM      8  N   UNL d   1      57.383  -1.454  31.064  0.00  0.00    -0.141 N 
ATOM      9  C   UNL d   1      55.670   0.681  33.351  0.00  0.00     0.000 A 
ATOM     10  C   UNL d   1      55.372  -0.069  33.631  0.00  0.00     0.001 A 
ATOM     11  C   UNL d   1      54.816  -0.088  34.298  0.00  0.00     0.000 C 
ENDROOT
BRANCH   1  12
ATOM     12  C   UNL d   1      57.345   0.353  31.301  0.00  0.00     0.299 C 
ATOM     13  O   UNL d   1      57.012   0.670  30.622  0.00  0.00    -0.264 OA
ATOM     14  N   UNL d   1      58.130   0.587  31.527  0.00  0.00    -0.102 N 
ENDBRANCH   1  12
TORSDOF 1
ENDMDL
MODEL 3
REMARK VINA RESULT:      -4.5      1.750      2.985
REMARK  1 active torsions:
REMARK  status: ('A' for Active; 'I' for Inactive)
REMARK    1  A    between atoms: C_6  and  C_1 
ROOT
ATOM      1  C   UNL d   1      57.020   0.026  32.280  0.00  0.00     0.085 A 
ATOM      2  C   UNL d   1      57.684   0.401  32.604  0.00  0.00     0.137 A 
ATOM      3  C   UNL d   1      56.407   0.081  32.803  0.00  0.00     0.013 A 
ATOM      4  C   UNL d   1      56.687   0.490  33.456  0.00  0.00     0.031 A 
ATOM      5  S   UNL d   1      57.478   0.682  33.320  0.00  0.00    -0.066 SA
ATOM      6  C   UNL d   1      55.625  -0.186  32.780  0.00  0.00     0.001 A 
ATOM      7  C   UNL d   1      56.199   0.635  34.080  0.00  0.00     0.006 A 
ATOM      8  N   UNL d   1      58.464   0.480  32.243  0.00  0.00    -0.141 N 
ATOM      9  C   UNL d   1      55.130  -0.047  33.396  0.00  0.00     0.000 A 
ATOM     10  C   UNL d   1      55.431   0.380  34.072  0.00  0.00     0.001 A 
ATOM     11  C   UNL d   1      54.908   0.538  34.747  0.00  0.00     0.000 C 
ENDROOT
BRANCH   1  12
ATOM     12  C   UNL d   1      57.006  -0.346  31.524  0.00  0.00     0.299 C 
ATOM     13  O   UNL d   1      56.988   0.109  30.842  0.00  0.00    -0.264 OA
ATOM     14  N   UNL d   1      57.011  -1.193  31.457  0.00  0.00    -0.102 N 
ENDBRANCH   1  12
TORSDOF 1
ENDMDL
MODEL 4
REMARK VINA RESULT:      -3.4      2.310      3.244
REMARK  1 active torsions:
REMARK  status: ('A' for Active; 'I' for Inactive)
REMARK    1  A    between atoms: C_6  and  C_1 
ROOT
ATOM      1  C   UNL d   1      57.513  -0.507  31.016  0.00  0.00     0.085 A 
ATOM      2  C   UNL d   1      57.728   0.291  30.965  0.00  0.00     0.137 A 
ATOM      3  C   UNL d   1      57.001  -0.601  31.634  0.00  0.00     0.013 A 
ATOM      4  C   UNL d   1      56.896   0.138  31.971  0.00  0.00     0.031 A 
ATOM      5  S   UNL d   1      57.351   0.682  31.548  0.00  0.00    -0.066 SA
ATOM      6  C   UNL d   1      56.611  -1.262  31.943  0.00  0.00     0.001 A 
ATOM      7  C   UNL d   1      56.411   0.226  32.607  0.00  0.00     0.006 A 
ATOM      8  N   UNL d   1      58.264   0.649  30.390  0.00  0.00    -0.141 N 
ATOM      9  C   UNL d   1      56.125  -1.187  32.576  0.00  0.00     0.000 A 
ATOM     10  C   UNL d   1      56.022  -0.411  32.920  0.00  0.00     0.001 A 
ATOM     11  C   UNL d   1      55.499  -0.313  33.606  0.00  0.00     0.000 C 
ENDROOT
BRANCH   1  12
ATOM     12  C   UNL d   1      57.793  -1.109  30.496  0.00  0.00     0.299 C 
ATOM     13  O   UNL d   1      57.386  -1.817  30.430  0.00  0.00    -0.264 OA
ATOM     14  N   UNL d   1      58.498  -0.990  30.036  0.00  0.00    -0.102 N 
ENDBRANCH   1  12
TORSDOF 1
ENDMDL
MODEL 5
REMARK VINA RESULT:      -2.9      9.773      9.950
REMARK  1 active torsions:
REMARK  status: ('A' for Active; 'I' for Inactive)
REMARK    1  A    between atoms: C_6  and  C_1 
ROOT
ATOM      1  C   UNL d   1      60.077  -8.874  35.147  0.00  0.00     0.085 A 
ATOM      2  C   UNL d   1      59.411  -9.339  35.312  0.00  0.00     0.137 A 
ATOM      3  C   UNL d   1      60.311  -9.013  34.386  0.00  0.00     0.013 A 
ATOM      4  C   UNL d   1      59.792  -9.564  34.074  0.00  0.00     0.031 A 
ATOM      5  S   UNL d   1      59.240  -9.758  34.657  0.00  0.00    -0.066 SA
ATOM      6  C   UNL d   1      60.929  -8.713  33.927  0.00  0.00     0.001 A 
ATOM      7  C   UNL d   1      59.881  -9.818  33.315  0.00  0.00     0.006 A 
ATOM      8  N   UNL d   1      58.972  -9.373  36.055  0.00  0.00    -0.141 N 
ATOM      9  C   UNL d   1      61.029  -8.958  33.170  0.00  0.00     0.000 A 
ATOM     10  C   UNL d   1      60.482  -9.533  32.854  0.00  0.00     0.001 A 
ATOM     11  C   UNL d   1      60.576  -9.809  32.035  0.00  0.00     0.000 C 
ENDROOT
BRANCH   1  12
ATOM     12  C   UNL d   1      60.437  -8.348  35.698  0.00  0.00     0.299 C 
ATOM     13  O   UNL d   1      60.226  -7.556  35.709  0.00  0.00    -0.264 OA
ATOM     14  N   UNL d   1      61.021  -8.629  36.248  0.00  0.00    -0.102 N 
ENDBRANCH   1  12
TORSDOF 1
ENDMDL
MODEL 6
REMARK VINA RESULT:      -2.8      3.944      4.971
REMARK  1 active torsions:
REMARK  status: ('A' for Active; 'I' for Inactive)
REMARK    1  A    between atoms: C_6  and  C_1 
ROOT
ATOM      1  C   UNL d   1      59.128  -0.538  29.303  0.00  0.00     0.085 A 
ATOM      2  C   UNL d   1      59.862  -0.164  29.215  0.00  0.00     0.137 A 
ATOM      3  C   UNL d   1      59.226  -1.333  29.198  0.00  0.00     0.013 A 
ATOM      4  C   UNL d   1      60.021  -1.457  29.045  0.00  0.00     0.031 A 
ATOM      5  S   UNL d   1      60.404  -0.726  29.058  0.00  0.00    -0.066 SA
ATOM      6  C   UNL d   1      58.699  -1.970  29.221  0.00  0.00     0.001 A 
ATOM      7  C   UNL d   1      60.295  -2.203  28.915  0.00  0.00     0.006 A 
ATOM      8  N   UNL d   1      60.025   0.682  29.279  0.00  0.00    -0.141 N 
ATOM      9  C   UNL d   1      58.960  -2.718  29.093  0.00  0.00     0.000 A 
ATOM     10  C   UNL d   1      59.792  -2.836  28.934  0.00  0.00     0.001 A 
ATOM     11  C   UNL d   1      60.090  -3.640  28.793  0.00  0.00     0.000 C 
ENDROOT
BRANCH   1  12
ATOM     12  C   UNL d   1      58.407  -0.136  29.474  0.00  0.00     0.299 C 
ATOM     13  O   UNL d   1      57.930   0.131  28.863  0.00  0.00    -0.264 OA
ATOM     14  N   UNL d   1      58.165  -0.003  30.278  0.00  0.00    -0.102 N 
ENDBRANCH   1  12
TORSDOF 1
ENDMDL
MODEL 7
REMARK VINA RESULT:      -2.3      5.228      5.815
REMARK  1 active torsions:
REMARK  status: ('A' for Active; 'I' for Inactive)
REMARK    1  A    between atoms: C_6  and  C_1 
ROOT
ATOM      1  C   UNL d   1      60.077  -2.852  29.035  0.00  0.00     0.085 A 
ATOM      2  C   UNL d   1      59.282  -3.033  28.885  0.00  0.00     0.137 A 
ATOM      3  C   UNL d   1      60.160  -2.049  29.070  0.00  0.00     0.013 A 
ATOM      4  C   UNL d   1      59.418  -1.727  28.942  0.00  0.00     0.031 A 
ATOM      5  S   UNL d   1      58.883  -2.346  28.829  0.00  0.00    -0.066 SA
ATOM      6  C   UNL d   1      60.813  -1.559  29.201  0.00  0.00     0.001 A 
ATOM      7  C   UNL d   1      59.320  -0.928  28.944  0.00  0.00     0.006 A 
ATOM      8  N   UNL d   1      58.935  -3.819  28.802  0.00  0.00    -0.141 N 
ATOM      9  C   UNL d   1      60.728  -0.762  29.205  0.00  0.00     0.000 A 
ATOM     10  C   UNL d   1      59.949  -0.435  29.071  0.00  0.00     0.001 A 
ATOM     11  C   UNL d   1      59.840   0.426  29.072  0.00  0.00     0.000 C 
ENDROOT
BRANCH   1  12
ATOM     12  C   UNL d   1      60.685  -3.428  29.131  0.00  0.00     0.299 C 
ATOM     13  O   UNL d   1      60.892  -3.685  29.882  0.00  0.00    -0.264 OA
ATOM     14  N   UNL d   1      61.090  -3.748  28.456  0.00  0.00    -0.102 N 
ENDBRANCH   1  12
TORSDOF 1
ENDMDL
MODEL 8
REMARK VINA RESULT:      -2.2      4.564      5.487
REMARK  1 active torsions:
REMARK  status: ('A' for Active; 'I' for Inactive)
REMARK    1  A    between atoms: C_6  and  C_1 
ROOT
ATOM      1  C   UNL d   1      59.864  -0.718  29.164  0.00  0.00     0.085 A 
ATOM      2  C   UNL d   1      59.039  -0.783  29.136  0.00  0.00     0.137 A 
ATOM      3  C   UNL d   1      60.187  -1.456  29.103  0.00  0.00     0.013 A 
ATOM      4  C   UNL d   1      59.563  -1.983  29.038  0.00  0.00     0.031 A 
ATOM      5  S   UNL d   1      58.858  -1.554  29.059  0.00  0.00    -0.066 SA
ATOM      6  C   UNL d   1      60.968  -1.727  29.099  0.00  0.00     0.001 A 
ATOM      7  C   UNL d   1      59.708  -2.772  28.968  0.00  0.00     0.006 A 
ATOM      8  N   UNL d   1      58.465  -0.138  29.181  0.00  0.00    -0.141 N 
ATOM      9  C   UNL d   1      61.125  -2.511  29.029  0.00  0.00     0.000 A 
ATOM     10  C   UNL d   1      60.467  -3.053  28.961  0.00  0.00     0.001 A 
ATOM     11  C   UNL d   1      60.620  -3.905  28.886  0.00  0.00     0.000 C 
ENDROOT
BRANCH   1  12
ATOM     12  C   UNL d   1      60.281   0.011  29.243  0.00  0.00     0.299 C 
ATOM     13  O   UNL d   1      60.488   0.288  29.987  0.00  0.00    -0.264 OA
ATOM     14  N   UNL d   1      60.493   0.466  28.557  0.00  0.00    -0.102 N 
ENDBRANCH   1  12
TORSDOF 1
ENDMDL
