MODEL 1
REMARK VINA RESULT:      -2.8      0.000      0.000
REMARK  4 active torsions:
REMARK  status: ('A' for Active; 'I' for Inactive)
REMARK    1  A    between atoms: S_2  and  N_1 
REMARK    2  A    between atoms: C_7  and  S_2 
REMARK    3  A    between atoms: S_8  and  C_5 
REMARK    4  A    between atoms: C_16  and  S_8 
ROOT
ATOM      1  N   UNL d   1      59.239  -1.168  28.974  0.00  0.00    -0.151 N 
ATOM      2  C   UNL d   1      59.346  -0.658  29.609  0.00  0.00     0.102 A 
ATOM      3  N   UNL d   1      58.685  -0.822  28.473  0.00  0.00    -0.155 NA
ATOM      4  C   UNL d   1      58.866  -0.001  29.507  0.00  0.00     0.067 A 
ATOM      5  C   UNL d   1      58.455  -0.106  28.797  0.00  0.00     0.110 A 
ATOM      6  C   UNL d   1      59.860  -0.779  30.262  0.00  0.00     0.022 C 
ATOM      7  C   UNL d   1      57.908   0.421  28.474  0.00  0.00     0.023 C 
ENDROOT
BRANCH   1   8
ATOM      8  S   UNL d   1      59.608  -1.889  28.851  0.00  0.00     0.292 S 
ATOM      9  O   UNL d   1      58.957  -2.275  29.184  0.00  0.00    -0.198 OA
ATOM     10  O   UNL d   1      60.251  -1.511  28.522  0.00  0.00    -0.198 OA
BRANCH   8  11
ATOM     11  C   UNL d   1      59.974  -2.622  28.731  0.00  0.00     0.135 A 
ATOM     12  S   UNL d   1      60.778  -2.760  28.690  0.00  0.00    -0.073 SA
ATOM     13  C   UNL d   1      60.895  -3.567  28.565  0.00  0.00     0.036 A 
ATOM     14  C   UNL d   1      60.155  -3.930  28.527  0.00  0.00     0.008 A 
ATOM     15  C   UNL d   1      59.580  -3.343  28.630  0.00  0.00     0.020 A 
ENDBRANCH   8  11
ENDBRANCH   1   8
BRANCH   4  16
ATOM     16  S   UNL d   1      58.743   0.682  29.960  0.00  0.00    -0.084 SA
BRANCH  16  17
ATOM     17  C   UNL d   1      58.272   0.643  30.637  0.00  0.00     0.029 A 
ATOM     18  C   UNL d   1      57.450   0.589  30.572  0.00  0.00     0.006 A 
ATOM     19  C   UNL d   1      56.995   0.551  31.255  0.00  0.00     0.001 A 
ATOM     20  C   UNL d   1      57.344   0.566  31.999  0.00  0.00     0.000 A 
ATOM     21  C   UNL d   1      58.163   0.620  32.061  0.00  0.00     0.001 A 
ATOM     22  C   UNL d   1      58.625   0.659  31.383  0.00  0.00     0.006 A 
ENDBRANCH  16  17
ENDBRANCH   4  16
TORSDOF 4
ENDMDL
MODEL 2
REMARK VINA RESULT:      -2.3      8.564      9.140
REMARK  4 active torsions:
REMARK  status: ('A' for Active; 'I' for Inactive)
REMARK    1  A    between atoms: S_2  and  N_1 
REMARK    2  A    between atoms: C_7  and  S_2 
REMARK    3  A    between atoms: S_8  and  C_5 
REMARK    4  A    between atoms: C_16  and  S_8 
ROOT
ATOM      1  N   UNL d   1      59.964  -9.408  33.221  0.00  0.00    -0.151 N 
ATOM      2  C   UNL d   1      60.395  -9.054  33.824  0.00  0.00     0.102 A 
ATOM      3  N   UNL d   1      59.283  -9.723  33.559  0.00  0.00    -0.155 NA
ATOM      4  C   UNL d   1      59.989  -9.146  34.531  0.00  0.00     0.067 A 
ATOM      5  C   UNL d   1      59.296  -9.564  34.363  0.00  0.00     0.110 A 
ATOM      6  C   UNL d   1      61.132  -8.659  33.743  0.00  0.00     0.022 C 
ATOM      7  C   UNL d   1      58.718  -9.781  34.910  0.00  0.00     0.023 C 
ENDROOT
BRANCH   1   8
ATOM      8  S   UNL d   1      60.164  -9.446  32.427  0.00  0.00     0.292 S 
ATOM      9  O   UNL d   1      60.875  -9.817  32.629  0.00  0.00    -0.198 OA
ATOM     10  O   UNL d   1      59.463  -9.081  32.226  0.00  0.00    -0.198 OA
BRANCH   8  11
ATOM     11  C   UNL d   1      60.374  -9.489  31.627  0.00  0.00     0.135 A 
ATOM     12  S   UNL d   1      59.923  -9.808  31.025  0.00  0.00    -0.073 SA
ATOM     13  C   UNL d   1      60.345  -9.734  30.321  0.00  0.00     0.036 A 
ATOM     14  C   UNL d   1      61.064  -9.366  30.490  0.00  0.00     0.008 A 
ATOM     15  C   UNL d   1      61.084  -9.213  31.304  0.00  0.00     0.020 A 
ENDBRANCH   8  11
ENDBRANCH   1   8
BRANCH   4  16
ATOM     16  S   UNL d   1      60.151  -8.908  35.308  0.00  0.00    -0.084 SA
BRANCH  16  17
ATOM     17  C   UNL d   1      59.959  -8.142  35.549  0.00  0.00     0.029 A 
ATOM     18  C   UNL d   1      60.552  -7.583  35.679  0.00  0.00     0.006 A 
ATOM     19  C   UNL d   1      60.344  -6.826  35.919  0.00  0.00     0.001 A 
ATOM     20  C   UNL d   1      59.557  -6.617  36.031  0.00  0.00     0.000 A 
ATOM     21  C   UNL d   1      58.968  -7.176  35.902  0.00  0.00     0.001 A 
ATOM     22  C   UNL d   1      59.167  -7.935  35.662  0.00  0.00     0.006 A 
ENDBRANCH  16  17
ENDBRANCH   4  16
TORSDOF 4
ENDMDL
MODEL 3
REMARK VINA RESULT:      -2.2      2.108      3.240
REMARK  4 active torsions:
REMARK  status: ('A' for Active; 'I' for Inactive)
REMARK    1  A    between atoms: S_2  and  N_1 
REMARK    2  A    between atoms: C_7  and  S_2 
REMARK    3  A    between atoms: S_8  and  C_5 
REMARK    4  A    between atoms: C_16  and  S_8 
ROOT
ATOM      1  N   UNL d   1      58.269   0.384  30.994  0.00  0.00    -0.151 N 
ATOM      2  C   UNL d   1      57.454   0.445  31.076  0.00  0.00     0.102 A 
ATOM      3  N   UNL d   1      58.597   0.466  31.745  0.00  0.00    -0.155 NA
ATOM      4  C   UNL d   1      57.273   0.564  31.867  0.00  0.00     0.067 A 
ATOM      5  C   UNL d   1      57.988   0.576  32.282  0.00  0.00     0.110 A 
ATOM      6  C   UNL d   1      56.887   0.396  30.457  0.00  0.00     0.022 C 
ATOM      7  C   UNL d   1      58.072   0.682  33.096  0.00  0.00     0.023 C 
ENDROOT
BRANCH   1   8
ATOM      8  S   UNL d   1      58.689   0.264  30.301  0.00  0.00     0.292 S 
ATOM      9  O   UNL d   1      59.371   0.552  30.668  0.00  0.00    -0.198 OA
ATOM     10  O   UNL d   1      58.017  -0.021  29.936  0.00  0.00    -0.198 OA
BRANCH   8  11
ATOM     11  C   UNL d   1      59.120   0.145  29.604  0.00  0.00     0.135 A 
ATOM     12  S   UNL d   1      59.727   0.615  29.324  0.00  0.00    -0.073 SA
ATOM     13  C   UNL d   1      59.996   0.292  28.615  0.00  0.00     0.036 A 
ATOM     14  C   UNL d   1      59.551  -0.384  28.455  0.00  0.00     0.008 A 
ATOM     15  C   UNL d   1      59.004  -0.477  29.071  0.00  0.00     0.020 A 
ENDBRANCH   8  11
ENDBRANCH   1   8
BRANCH   4  16
ATOM     16  S   UNL d   1      56.557   0.664  32.272  0.00  0.00    -0.084 SA
BRANCH  16  17
ATOM     17  C   UNL d   1      56.179   0.006  32.601  0.00  0.00     0.029 A 
ATOM     18  C   UNL d   1      56.277  -0.743  32.266  0.00  0.00     0.006 A 
ATOM     19  C   UNL d   1      55.895  -1.386  32.604  0.00  0.00     0.001 A 
ATOM     20  C   UNL d   1      55.418  -1.296  33.268  0.00  0.00     0.000 A 
ATOM     21  C   UNL d   1      55.323  -0.549  33.599  0.00  0.00     0.001 A 
ATOM     22  C   UNL d   1      55.701   0.100  33.268  0.00  0.00     0.006 A 
ENDBRANCH  16  17
ENDBRANCH   4  16
TORSDOF 4
ENDMDL
