MODEL 1
REMARK VINA RESULT:      50.1      0.000      0.000
REMARK  3 active torsions:
REMARK  status: ('A' for Active; 'I' for Inactive)
REMARK    1  A    between atoms: O_7  and  C_1 
REMARK    2  A    between atoms: C_12  and  O_7 
REMARK    3  A    between atoms: O_20  and  C_14 
ROOT
ATOM      1  C   UNL d   1     -54.735-101.760 -40.424  0.00  0.00     0.163 A 
ATOM      2  C   UNL d   1     -54.747-101.924 -41.219  0.00  0.00     0.222 A 
ATOM      3  C   UNL d   1     -54.743-101.307 -41.757  0.00  0.00     0.064 A 
ATOM      4  C   UNL d   1     -54.726-100.523 -41.478  0.00  0.00     0.106 A 
ATOM      5  C   UNL d   1     -54.720-101.019 -40.160  0.00  0.00     0.150 A 
ATOM      6  O   UNL d   1     -54.715-100.385 -40.671  0.00  0.00    -0.303 OA
ATOM      7  C   UNL d   1     -54.754-101.443 -42.570  0.00  0.00     0.009 A 
ATOM      8  C   UNL d   1     -54.722 -99.904 -42.022  0.00  0.00     0.067 A 
ATOM      9  O   UNL d   1     -54.763-102.709 -41.499  0.00  0.00    -0.284 OA
ATOM     10  C   UNL d   1     -54.734-100.067 -42.833  0.00  0.00     0.198 A 
ATOM     11  C   UNL d   1     -54.749-100.808 -43.097  0.00  0.00     0.042 A 
ATOM     12  O   UNL d   1     -54.730 -99.447 -43.398  0.00  0.00    -0.286 OA
ENDROOT
BRANCH   1  13
ATOM     13  O   UNL d   1     -54.740-102.414 -39.844  0.00  0.00    -0.302 OA
BRANCH  13  14
ATOM     14  C   UNL d   1     -54.849-102.256 -39.050  0.00  0.00     0.100 A 
ATOM     15  C   UNL d   1     -55.062-102.866 -38.510  0.00  0.00     0.027 A 
ATOM     16  C   UNL d   1     -55.169-102.700 -37.717  0.00  0.00     0.026 A 
ATOM     17  C   UNL d   1     -55.067-101.908 -37.430  0.00  0.00     0.094 A 
ATOM     18  C   UNL d   1     -54.855-101.298 -37.970  0.00  0.00     0.026 A 
ATOM     19  C   UNL d   1     -54.750-101.484 -38.774  0.00  0.00     0.027 A 
BRANCH  17  20
ATOM     20  O   UNL d   1     -55.169-101.700 -36.626  0.00  0.00    -0.328 OA
ATOM     21  C   UNL d   1     -55.839-101.814 -36.127  0.00  0.00     0.181 C 
ENDBRANCH  17  20
ENDBRANCH  13  14
ENDBRANCH   1  13
TORSDOF 3
ENDMDL
MODEL 2
REMARK VINA RESULT:      51.8      3.247      5.600
REMARK  3 active torsions:
REMARK  status: ('A' for Active; 'I' for Inactive)
REMARK    1  A    between atoms: O_7  and  C_1 
REMARK    2  A    between atoms: C_12  and  O_7 
REMARK    3  A    between atoms: O_20  and  C_14 
ROOT
ATOM      1  C   UNL d   1     -56.269 -98.926 -45.016  0.00  0.00     0.163 A 
ATOM      2  C   UNL d   1     -56.921 -98.970 -44.534  0.00  0.00     0.222 A 
ATOM      3  C   UNL d   1     -57.669 -98.923 -44.864  0.00  0.00     0.064 A 
ATOM      4  C   UNL d   1     -57.746 -98.831 -45.688  0.00  0.00     0.106 A 
ATOM      5  C   UNL d   1     -56.341 -98.839 -45.794  0.00  0.00     0.150 A 
ATOM      6  O   UNL d   1     -57.071 -98.790 -46.151  0.00  0.00    -0.303 OA
ATOM      7  C   UNL d   1     -58.349 -98.965 -44.401  0.00  0.00     0.009 A 
ATOM      8  C   UNL d   1     -58.499 -98.785 -46.018  0.00  0.00     0.067 A 
ATOM      9  O   UNL d   1     -56.845 -99.062 -43.709  0.00  0.00    -0.284 OA
ATOM     10  C   UNL d   1     -59.166 -98.829 -45.530  0.00  0.00     0.198 A 
ATOM     11  C   UNL d   1     -59.094 -98.916 -44.752  0.00  0.00     0.042 A 
ATOM     12  O   UNL d   1     -59.939 -98.783 -45.852  0.00  0.00    -0.286 OA
ENDROOT
BRANCH   1  13
ATOM     13  O   UNL d   1     -55.468 -98.975 -44.669  0.00  0.00    -0.302 OA
BRANCH  13  14
ATOM     14  C   UNL d   1     -55.285 -99.574 -44.146  0.00  0.00     0.100 A 
ATOM     15  C   UNL d   1     -55.225 -99.426 -43.319  0.00  0.00     0.027 A 
ATOM     16  C   UNL d   1     -55.042-100.031 -42.800  0.00  0.00     0.026 A 
ATOM     17  C   UNL d   1     -54.909-100.817 -43.093  0.00  0.00     0.094 A 
ATOM     18  C   UNL d   1     -54.969-100.965 -43.920  0.00  0.00     0.026 A 
ATOM     19  C   UNL d   1     -55.156-100.338 -44.433  0.00  0.00     0.027 A 
BRANCH  17  20
ATOM     20  O   UNL d   1     -54.720-101.461 -42.594  0.00  0.00    -0.328 OA
ATOM     21  C   UNL d   1     -54.717-101.499 -41.752  0.00  0.00     0.181 C 
ENDBRANCH  17  20
ENDBRANCH  13  14
ENDBRANCH   1  13
TORSDOF 3
ENDMDL
