MODEL 1
REMARK VINA RESULT:      -1.6      0.000      0.000
REMARK  8 active torsions:
REMARK  status: ('A' for Active; 'I' for Inactive)
REMARK    1  A    between atoms: C_9  and  N_1 
REMARK    2  A    between atoms: C_13  and  C_5 
REMARK    3  A    between atoms: C_8  and  C_6 
REMARK    4  A    between atoms: C_7  and  N_11 
REMARK    5  A    between atoms: C_10  and  C_9 
REMARK       I    between atoms: N_11  and  C_10 
REMARK    6  A    between atoms: C_15  and  C_13 
REMARK    7  A    between atoms: C_18  and  C_15 
REMARK    8  A    between atoms: C_20  and  C_18 
ROOT
ATOM      1  N   UNL d   1      58.318  -0.409  29.873  0.00  0.00    -0.230 N 
ATOM      2  C   UNL d   1      57.876   0.197  29.519  0.00  0.00     0.299 A 
ATOM      3  C   UNL d   1      58.295  -0.301  30.691  0.00  0.00     0.274 A 
ATOM      4  S   UNL d   1      57.579   0.682  30.125  0.00  0.00    -0.022 SA
ATOM      5  C   UNL d   1      57.839   0.372  30.841  0.00  0.00     0.090 A 
ATOM      6  O   UNL d   1      57.753   0.300  28.707  0.00  0.00    -0.259 OA
ATOM      7  O   UNL d   1      58.659  -0.775  31.256  0.00  0.00    -0.266 OA
ENDROOT
BRANCH   1   8
ATOM      8  C   UNL d   1      58.709  -1.011  29.471  0.00  0.00     0.149 C 
BRANCH   8   9
ATOM      9  C   UNL d   1      58.285  -1.678  29.218  0.00  0.00     0.297 C 
ATOM     10  N   UNL d   1      58.681  -2.310  28.867  0.00  0.00    -0.206 NA
ATOM     11  O   UNL d   1      57.463  -1.703  29.319  0.00  0.00    -0.264 OA
BRANCH  10  12
ATOM     12  C   UNL d   1      59.497  -2.275  28.772  0.00  0.00     0.090 A 
ATOM     13  C   UNL d   1      59.952  -2.946  28.897  0.00  0.00     0.082 A 
ATOM     14  C   UNL d   1      60.767  -2.914  28.802  0.00  0.00     0.008 A 
ATOM     15  C   UNL d   1      61.129  -2.203  28.580  0.00  0.00     0.000 A 
ATOM     16  C   UNL d   1      60.662  -1.530  28.455  0.00  0.00     0.002 A 
ATOM     17  C   UNL d   1      59.850  -1.570  28.552  0.00  0.00     0.019 A 
BRANCH  13  18
ATOM     18  C   UNL d   1      59.589  -3.654  29.118  0.00  0.00     0.212 C 
ATOM     19  O   UNL d   1      59.186  -4.109  28.554  0.00  0.00    -0.644 OA
ATOM     20  O   UNL d   1      59.628  -3.909  29.898  0.00  0.00    -0.644 OA
ENDBRANCH  13  18
ENDBRANCH  10  12
ENDBRANCH   8   9
ENDBRANCH   1   8
BRANCH   5  21
ATOM     21  C   UNL d   1      57.672   0.682  31.591  0.00  0.00     0.011 C 
BRANCH  21  22
ATOM     22  C   UNL d   1      56.979   0.461  31.986  0.00  0.00     0.001 C 
BRANCH  22  23
ATOM     23  C   UNL d   1      56.977   0.377  32.802  0.00  0.00     0.000 C 
BRANCH  23  24
ATOM     24  C   UNL d   1      56.274   0.199  33.198  0.00  0.00     0.000 A 
ATOM     25  C   UNL d   1      55.794  -0.402  32.921  0.00  0.00     0.000 A 
ATOM     26  C   UNL d   1      55.091  -0.584  33.312  0.00  0.00     0.000 A 
ATOM     27  C   UNL d   1      54.870  -0.157  33.988  0.00  0.00     0.000 A 
ATOM     28  C   UNL d   1      55.362   0.451  34.265  0.00  0.00     0.000 A 
ATOM     29  C   UNL d   1      56.060   0.626  33.869  0.00  0.00     0.000 A 
ENDBRANCH  23  24
ENDBRANCH  22  23
ENDBRANCH  21  22
ENDBRANCH   5  21
TORSDOF 8
ENDMDL
MODEL 2
REMARK VINA RESULT:       0.5      1.382      1.872
REMARK  8 active torsions:
REMARK  status: ('A' for Active; 'I' for Inactive)
REMARK    1  A    between atoms: C_9  and  N_1 
REMARK    2  A    between atoms: C_13  and  C_5 
REMARK    3  A    between atoms: C_8  and  C_6 
REMARK    4  A    between atoms: C_7  and  N_11 
REMARK    5  A    between atoms: C_10  and  C_9 
REMARK       I    between atoms: N_11  and  C_10 
REMARK    6  A    between atoms: C_15  and  C_13 
REMARK    7  A    between atoms: C_18  and  C_15 
REMARK    8  A    between atoms: C_20  and  C_18 
ROOT
ATOM      1  N   UNL d   1      57.697  -0.812  30.939  0.00  0.00    -0.230 N 
ATOM      2  C   UNL d   1      57.011  -1.162  31.248  0.00  0.00     0.299 A 
ATOM      3  C   UNL d   1      57.857  -0.131  31.375  0.00  0.00     0.274 A 
ATOM      4  S   UNL d   1      56.748  -0.691  31.879  0.00  0.00    -0.022 SA
ATOM      5  C   UNL d   1      57.270  -0.060  31.953  0.00  0.00     0.090 A 
ATOM      6  O   UNL d   1      56.653  -1.857  30.975  0.00  0.00    -0.259 OA
ATOM      7  O   UNL d   1      58.486   0.387  31.258  0.00  0.00    -0.266 OA
ENDROOT
BRANCH   1   8
ATOM      8  C   UNL d   1      58.137  -1.102  30.306  0.00  0.00     0.149 C 
BRANCH   8   9
ATOM      9  C   UNL d   1      58.256  -0.624  29.638  0.00  0.00     0.297 C 
ATOM     10  N   UNL d   1      58.784  -0.861  29.051  0.00  0.00    -0.206 NA
ATOM     11  O   UNL d   1      57.842   0.090  29.566  0.00  0.00    -0.264 OA
BRANCH  10  12
ATOM     12  C   UNL d   1      59.190  -1.571  29.133  0.00  0.00     0.090 A 
ATOM     13  C   UNL d   1      60.010  -1.576  29.120  0.00  0.00     0.082 A 
ATOM     14  C   UNL d   1      60.419  -2.284  29.202  0.00  0.00     0.008 A 
ATOM     15  C   UNL d   1      60.000  -2.993  29.297  0.00  0.00     0.000 A 
ATOM     16  C   UNL d   1      59.173  -2.979  29.309  0.00  0.00     0.002 A 
ATOM     17  C   UNL d   1      58.773  -2.269  29.227  0.00  0.00     0.019 A 
BRANCH  13  18
ATOM     18  C   UNL d   1      60.425  -0.869  29.025  0.00  0.00     0.212 C 
ATOM     19  O   UNL d   1      61.087  -0.707  29.500  0.00  0.00    -0.644 OA
ATOM     20  O   UNL d   1      60.184  -0.324  28.460  0.00  0.00    -0.644 OA
ENDBRANCH  13  18
ENDBRANCH  10  12
ENDBRANCH   8   9
ENDBRANCH   1   8
BRANCH   5  21
ATOM     21  C   UNL d   1      57.218   0.548  32.513  0.00  0.00     0.011 C 
BRANCH  21  22
ATOM     22  C   UNL d   1      56.512   0.671  32.927  0.00  0.00     0.001 C 
BRANCH  22  23
ATOM     23  C   UNL d   1      56.441   0.428  33.707  0.00  0.00     0.000 C 
BRANCH  23  24
ATOM     24  C   UNL d   1      55.709   0.466  34.087  0.00  0.00     0.000 A 
ATOM     25  C   UNL d   1      55.028   0.578  33.647  0.00  0.00     0.000 A 
ATOM     26  C   UNL d   1      54.295   0.617  34.021  0.00  0.00     0.000 A 
ATOM     27  C   UNL d   1      54.246   0.542  34.846  0.00  0.00     0.000 A 
ATOM     28  C   UNL d   1      54.939   0.429  35.288  0.00  0.00     0.000 A 
ATOM     29  C   UNL d   1      55.665   0.391  34.907  0.00  0.00     0.000 A 
ENDBRANCH  23  24
ENDBRANCH  22  23
ENDBRANCH  21  22
ENDBRANCH   5  21
TORSDOF 8
ENDMDL
