MODEL 1
REMARK VINA RESULT:      72.2      0.000      0.000
REMARK  8 active torsions:
REMARK  status: ('A' for Active; 'I' for Inactive)
REMARK    1  A    between atoms: C_11  and  N_1 
REMARK    2  A    between atoms: S_7  and  C_2 
REMARK    3  A    between atoms: C_18  and  S_7 
REMARK    4  A    between atoms: C_8  and  C_10 
REMARK       I    between atoms: N_14  and  C_8 
REMARK    5  A    between atoms: C_13  and  C_11 
REMARK    6  A    between atoms: C_25  and  N_14 
REMARK    7  A    between atoms: C_19  and  C_18 
REMARK    8  A    between atoms: C_26  and  C_25 
ROOT
ATOM      1  N   UNL d   1      58.936  49.706  51.626  0.00  0.00    -0.253 N 
ATOM      2  C   UNL d   1      59.279  49.706  50.913  0.00  0.00     0.182 A 
ATOM      3  C   UNL d   1      58.111  49.705  51.704  0.00  0.00     0.268 A 
ATOM      4  N   UNL d   1      58.825  49.706  50.220  0.00  0.00    -0.222 NA
ATOM      5  C   UNL d   1      57.652  49.705  51.038  0.00  0.00     0.074 A 
ATOM      6  C   UNL d   1      58.017  49.705  50.281  0.00  0.00     0.088 A 
ATOM      7  O   UNL d   1      57.756  49.704  52.441  0.00  0.00    -0.267 OA
ATOM      8  C   UNL d   1      56.839  49.704  51.091  0.00  0.00     0.006 A 
ATOM      9  C   UNL d   1      57.553  49.705  49.607  0.00  0.00     0.019 A 
ATOM     10  C   UNL d   1      56.389  49.704  50.400  0.00  0.00     0.000 A 
ATOM     11  C   UNL d   1      56.732  49.704  49.687  0.00  0.00     0.002 A 
ENDROOT
BRANCH   2  12
ATOM     12  S   UNL d   1      60.109  49.707  50.857  0.00  0.00    -0.049 SA
BRANCH  12  13
ATOM     13  C   UNL d   1      60.466  49.535  50.127  0.00  0.00     0.038 C 
BRANCH  13  14
ATOM     14  C   UNL d   1      60.861  48.822  49.999  0.00  0.00     0.007 A 
ATOM     15  C   UNL d   1      61.690  48.838  49.871  0.00  0.00     0.001 A 
ATOM     16  C   UNL d   1      62.093  48.148  49.743  0.00  0.00     0.005 A 
ATOM     17  C   UNL d   1      61.688  47.424  49.738  0.00  0.00     0.058 A 
ATOM     18  C   UNL d   1      60.880  47.418  49.864  0.00  0.00     0.005 A 
ATOM     19  C   UNL d   1      60.482  48.121  49.992  0.00  0.00     0.001 A 
BRANCH  17  20
ATOM     20  C   UNL d   1      62.083  46.692  49.608  0.00  0.00     0.279 C 
ATOM     21  O   UNL d   1      62.868  46.589  49.888  0.00  0.00    -0.265 OA
ATOM     22  N   UNL d   1      61.703  46.077  49.207  0.00  0.00    -0.203 NA
BRANCH  22  23
ATOM     23  C   UNL d   1      62.107  45.336  49.076  0.00  0.00     0.148 C 
BRANCH  23  24
ATOM     24  C   UNL d   1      61.697  44.638  49.049  0.00  0.00     0.255 C 
ATOM     25  O   UNL d   1      60.885  44.638  48.956  0.00  0.00    -0.281 OA
ENDBRANCH  23  24
ENDBRANCH  22  23
ENDBRANCH  17  20
ENDBRANCH  13  14
ENDBRANCH  12  13
ENDBRANCH   2  12
BRANCH   1  26
ATOM     26  C   UNL d   1      59.408  49.706  52.314  0.00  0.00     0.085 C 
BRANCH  26  27
ATOM     27  C   UNL d   1      59.876  49.034  52.476  0.00  0.00     0.019 C 
ATOM     28  C   UNL d   1      60.462  49.063  53.062  0.00  0.00     0.002 C 
ENDBRANCH  26  27
ENDBRANCH   1  26
TORSDOF 8
ENDMDL
