MODEL 1
REMARK VINA RESULT:       4.3      0.000      0.000
REMARK  5 active torsions:
REMARK  status: ('A' for Active; 'I' for Inactive)
REMARK    1  A    between atoms: C_11  and  N_1 
REMARK    2  A    between atoms: S_14  and  C_2 
REMARK    3  A    between atoms: C_12  and  C_3 
REMARK    4  A    between atoms: C_8  and  C_12 
REMARK    5  A    between atoms: C_20  and  S_14 
ROOT
ATOM      1  N   UNL d   1      32.863  21.746 -21.909  0.00  0.00    -0.269 N 
ATOM      2  C   UNL d   1      32.711  21.826 -21.116  0.00  0.00     0.201 A 
ATOM      3  C   UNL d   1      33.005  20.950 -22.055  0.00  0.00     0.172 A 
ATOM      4  N   UNL d   1      32.754  21.099 -20.758  0.00  0.00    -0.121 NA
ATOM      5  N   UNL d   1      32.938  20.551 -21.344  0.00  0.00    -0.128 NA
ENDROOT
BRANCH   3   6
ATOM      6  C   UNL d   1      33.176  20.699 -22.808  0.00  0.00     0.059 C 
BRANCH   6   7
ATOM      7  C   UNL d   1      33.091  19.904 -22.998  0.00  0.00     0.094 A 
ATOM      8  C   UNL d   1      32.891  19.683 -23.763  0.00  0.00     0.082 A 
ATOM      9  C   UNL d   1      32.807  18.884 -23.951  0.00  0.00     0.285 A 
ATOM     10  O   UNL d   1      32.602  18.653 -24.734  0.00  0.00    -0.265 OA
ATOM     11  N   UNL d   1      32.927  18.311 -23.357  0.00  0.00    -0.152 NA
ATOM     12  C   UNL d   1      33.125  18.534 -22.599  0.00  0.00     0.371 A 
ATOM     13  N   UNL d   1      33.208  19.341 -22.416  0.00  0.00    -0.191 NA
ATOM     14  O   UNL d   1      33.241  17.957 -22.019  0.00  0.00    -0.242 OA
ENDBRANCH   6   7
ENDBRANCH   3   6
BRANCH   1  15
ATOM     15  C   UNL d   1      32.867  22.370 -22.440  0.00  0.00     0.067 A 
ATOM     16  C   UNL d   1      32.494  22.285 -23.174  0.00  0.00     0.018 A 
ATOM     17  C   UNL d   1      32.496  22.919 -23.714  0.00  0.00     0.001 A 
ATOM     18  C   UNL d   1      32.118  22.834 -24.460  0.00  0.00     0.000 C 
ATOM     19  C   UNL d   1      32.870  23.624 -23.513  0.00  0.00     0.000 A 
ATOM     20  C   UNL d   1      33.241  23.702 -22.779  0.00  0.00     0.002 A 
ATOM     21  C   UNL d   1      33.238  23.076 -22.244  0.00  0.00     0.018 A 
ENDBRANCH   1  15
BRANCH   2  22
ATOM     22  S   UNL d   1      32.537  22.555 -20.732  0.00  0.00    -0.048 SA
BRANCH  22  23
ATOM     23  C   UNL d   1      32.422  22.565 -19.905  0.00  0.00     0.032 C 
ATOM     24  C   UNL d   1      33.061  22.724 -19.403  0.00  0.00     0.007 C 
ATOM     25  C   UNL d   1      31.670  22.417 -19.597  0.00  0.00     0.007 C 
ENDBRANCH  22  23
ENDBRANCH   2  22
TORSDOF 5
ENDMDL
MODEL 2
REMARK VINA RESULT:       6.1      1.994      2.950
REMARK  5 active torsions:
REMARK  status: ('A' for Active; 'I' for Inactive)
REMARK    1  A    between atoms: C_11  and  N_1 
REMARK    2  A    between atoms: S_14  and  C_2 
REMARK    3  A    between atoms: C_12  and  C_3 
REMARK    4  A    between atoms: C_8  and  C_12 
REMARK    5  A    between atoms: C_20  and  S_14 
ROOT
ATOM      1  N   UNL d   1      32.419  19.435 -23.294  0.00  0.00    -0.269 N 
ATOM      2  C   UNL d   1      32.581  19.572 -22.511  0.00  0.00     0.201 A 
ATOM      3  C   UNL d   1      32.104  18.679 -23.353  0.00  0.00     0.172 A 
ATOM      4  N   UNL d   1      32.376  18.920 -22.074  0.00  0.00    -0.121 NA
ATOM      5  N   UNL d   1      32.078  18.360 -22.600  0.00  0.00    -0.128 NA
ENDROOT
BRANCH   3   6
ATOM      6  C   UNL d   1      31.887  18.384 -24.078  0.00  0.00     0.059 C 
BRANCH   6   7
ATOM      7  C   UNL d   1      31.491  17.666 -24.121  0.00  0.00     0.094 A 
ATOM      8  C   UNL d   1      30.675  17.640 -24.043  0.00  0.00     0.082 A 
ATOM      9  C   UNL d   1      30.280  16.917 -24.087  0.00  0.00     0.285 A 
ATOM     10  O   UNL d   1      29.442  16.886 -24.008  0.00  0.00    -0.265 OA
ATOM     11  N   UNL d   1      30.720  16.220 -24.211  0.00  0.00    -0.152 NA
ATOM     12  C   UNL d   1      31.530  16.249 -24.287  0.00  0.00     0.371 A 
ATOM     13  N   UNL d   1      31.922  16.980 -24.242  0.00  0.00    -0.191 NA
ATOM     14  O   UNL d   1      31.956  15.551 -24.409  0.00  0.00    -0.242 OA
ENDBRANCH   6   7
ENDBRANCH   3   6
BRANCH   1  15
ATOM     15  C   UNL d   1      32.557  19.977 -23.892  0.00  0.00     0.067 A 
ATOM     16  C   UNL d   1      32.147  20.696 -23.898  0.00  0.00     0.018 A 
ATOM     17  C   UNL d   1      32.287  21.248 -24.506  0.00  0.00     0.001 A 
ATOM     18  C   UNL d   1      31.871  21.977 -24.512  0.00  0.00     0.000 C 
ATOM     19  C   UNL d   1      32.833  21.073 -25.096  0.00  0.00     0.000 A 
ATOM     20  C   UNL d   1      33.241  20.354 -25.085  0.00  0.00     0.002 A 
ATOM     21  C   UNL d   1      33.102  19.808 -24.484  0.00  0.00     0.018 A 
ENDBRANCH   1  15
BRANCH   2  22
ATOM     22  S   UNL d   1      32.911  20.285 -22.207  0.00  0.00    -0.048 SA
BRANCH  22  23
ATOM     23  C   UNL d   1      32.804  20.474 -21.401  0.00  0.00     0.032 C 
ATOM     24  C   UNL d   1      32.268  21.067 -21.185  0.00  0.00     0.007 C 
ATOM     25  C   UNL d   1      33.237  20.067 -20.827  0.00  0.00     0.007 C 
ENDBRANCH  22  23
ENDBRANCH   2  22
TORSDOF 5
ENDMDL
