MODEL 1
REMARK VINA RESULT:      -4.1      0.000      0.000
REMARK  3 active torsions:
REMARK  status: ('A' for Active; 'I' for Inactive)
REMARK    1  A    between atoms: C_15  and  N_1 
REMARK       I    between atoms: C_6  and  N_7 
REMARK    2  A    between atoms: C_11  and  C_6 
REMARK    3  A    between atoms: N_7  and  C_8 
ROOT
ATOM      1  N   UNL d   1     -41.364-123.031 -53.205  0.00  0.00    -0.273 N 
ATOM      2  C   UNL d   1     -41.238-121.972 -53.291  0.00  0.00     0.265 A 
ATOM      3  C   UNL d   1     -41.418-123.143 -52.392  0.00  0.00     0.067 A 
ATOM      4  C   UNL d   1     -41.350-122.399 -52.043  0.00  0.00     0.022 A 
ATOM      5  C   UNL d   1     -41.252-121.746 -52.506  0.00  0.00     0.058 A 
ATOM      6  C   UNL d   1     -41.483-123.002 -50.762  0.00  0.00     0.084 A 
ATOM      7  C   UNL d   1     -41.383-122.329 -51.227  0.00  0.00     0.019 A 
ATOM      8  C   UNL d   1     -41.519-123.817 -51.927  0.00  0.00     0.019 A 
ATOM      9  O   UNL d   1     -41.144-121.411 -53.888  0.00  0.00    -0.267 OA
ATOM     10  C   UNL d   1     -41.552-123.747 -51.112  0.00  0.00     0.021 A 
ATOM     11  C   UNL d   1     -41.184-121.003 -52.156  0.00  0.00     0.005 A 
ATOM     12  C   UNL d   1     -41.317-121.606 -50.876  0.00  0.00     0.002 A 
ATOM     13  C   UNL d   1     -41.216-120.932 -51.341  0.00  0.00     0.000 A 
ENDROOT
BRANCH   6  14
ATOM     14  N   UNL d   1     -41.516-122.932 -49.948  0.00  0.00    -0.212 NA
ATOM     15  C   UNL d   1     -42.110-123.319 -49.526  0.00  0.00     0.255 C 
ATOM     16  O   UNL d   1     -42.655-123.764 -49.922  0.00  0.00    -0.270 OA
BRANCH  15  17
ATOM     17  C   UNL d   1     -42.143-123.249 -48.712  0.00  0.00     0.073 C 
ATOM     18  C   UNL d   1     -42.681-122.727 -48.367  0.00  0.00     0.009 C 
ATOM     19  C   UNL d   1     -41.638-123.700 -48.241  0.00  0.00     0.009 C 
ATOM     20  C   UNL d   1     -42.174-123.174 -47.777  0.00  0.00     0.009 C 
ENDBRANCH  15  17
ENDBRANCH   6  14
BRANCH   1  21
ATOM     21  C   UNL d   1     -41.417-123.703 -53.702  0.00  0.00     0.083 C 
ATOM     22  C   UNL d   1     -41.289-123.620 -54.489  0.00  0.00     0.021 C 
ENDBRANCH   1  21
TORSDOF 3
ENDMDL
MODEL 2
REMARK VINA RESULT:      -2.8      1.133      3.984
REMARK  3 active torsions:
REMARK  status: ('A' for Active; 'I' for Inactive)
REMARK    1  A    between atoms: C_15  and  N_1 
REMARK       I    between atoms: C_6  and  N_7 
REMARK    2  A    between atoms: C_11  and  C_6 
REMARK    3  A    between atoms: N_7  and  C_8 
ROOT
ATOM      1  N   UNL d   1     -41.318-123.051 -50.371  0.00  0.00    -0.273 N 
ATOM      2  C   UNL d   1     -41.212-122.018 -50.115  0.00  0.00     0.265 A 
ATOM      3  C   UNL d   1     -41.336-123.035 -51.193  0.00  0.00     0.067 A 
ATOM      4  C   UNL d   1     -41.264-122.245 -51.419  0.00  0.00     0.022 A 
ATOM      5  C   UNL d   1     -41.195-121.672 -50.855  0.00  0.00     0.058 A 
ATOM      6  C   UNL d   1     -41.335-122.640 -52.782  0.00  0.00     0.084 A 
ATOM      7  C   UNL d   1     -41.264-122.047 -52.214  0.00  0.00     0.019 A 
ATOM      8  C   UNL d   1     -41.407-123.629 -51.762  0.00  0.00     0.019 A 
ATOM      9  O   UNL d   1     -41.151-121.557 -49.434  0.00  0.00    -0.267 OA
ATOM     10  C   UNL d   1     -41.407-123.431 -52.557  0.00  0.00     0.021 A 
ATOM     11  C   UNL d   1     -41.123-120.882 -51.080  0.00  0.00     0.005 A 
ATOM     12  C   UNL d   1     -41.194-121.278 -52.444  0.00  0.00     0.002 A 
ATOM     13  C   UNL d   1     -41.123-120.685 -51.875  0.00  0.00     0.000 A 
ENDROOT
BRANCH   6  14
ATOM     14  N   UNL d   1     -41.334-122.443 -53.576  0.00  0.00    -0.212 NA
ATOM     15  C   UNL d   1     -41.807-122.866 -54.104  0.00  0.00     0.255 C 
ATOM     16  O   UNL d   1     -42.266-123.472 -53.832  0.00  0.00    -0.270 OA
BRANCH  15  17
ATOM     17  C   UNL d   1     -41.806-122.669 -54.898  0.00  0.00     0.073 C 
ATOM     18  C   UNL d   1     -42.457-122.281 -55.224  0.00  0.00     0.009 C 
ATOM     19  C   UNL d   1     -41.154-122.860 -55.367  0.00  0.00     0.009 C 
ATOM     20  C   UNL d   1     -41.797-122.447 -55.810  0.00  0.00     0.009 C 
ENDBRANCH  15  17
ENDBRANCH   6  14
BRANCH   1  21
ATOM     21  C   UNL d   1     -41.382-123.793 -49.989  0.00  0.00     0.083 C 
ATOM     22  C   UNL d   1     -41.531-123.817 -49.202  0.00  0.00     0.021 C 
ENDBRANCH   1  21
TORSDOF 3
ENDMDL
