MODEL 1
REMARK VINA RESULT:      40.9      0.000      0.000
REMARK  3 active torsions:
REMARK  status: ('A' for Active; 'I' for Inactive)
REMARK    1  A    between atoms: N_3  and  C_1 
REMARK       I    between atoms: C_5  and  N_3 
REMARK    2  A    between atoms: C_8  and  C_5 
REMARK       I    between atoms: C_11  and  N_12 
REMARK    3  A    between atoms: N_12  and  C_13 
ROOT
ATOM      1  C   UNL d   1     -54.768-100.785 -42.263  0.00  0.00     0.197 A 
ATOM      2  N   UNL d   1     -54.832-101.599 -42.344  0.00  0.00    -0.221 NA
ATOM      3  S   UNL d   1     -54.715-100.609 -41.470  0.00  0.00    -0.047 SA
ATOM      4  C   UNL d   1     -54.747-101.313 -41.058  0.00  0.00     0.051 A 
ATOM      5  C   UNL d   1     -54.820-101.930 -41.604  0.00  0.00     0.090 A 
ATOM      6  C   UNL d   1     -54.717-101.471 -40.237  0.00  0.00     0.027 A 
ATOM      7  C   UNL d   1     -54.762-102.249 -39.973  0.00  0.00     0.085 A 
ATOM      8  C   UNL d   1     -54.863-102.707 -41.329  0.00  0.00     0.021 A 
ATOM      9  C   UNL d   1     -54.836-102.878 -40.529  0.00  0.00     0.021 A 
ENDROOT
BRANCH   1  10
ATOM     10  N   UNL d   1     -54.757-100.226 -42.875  0.00  0.00    -0.182 NA
ATOM     11  C   UNL d   1     -54.995-100.464 -43.623  0.00  0.00     0.287 C 
ATOM     12  O   UNL d   1     -55.241-101.266 -43.740  0.00  0.00    -0.265 OA
BRANCH  11  13
ATOM     13  C   UNL d   1     -54.996 -99.943 -44.241  0.00  0.00     0.087 A 
ATOM     14  S   UNL d   1     -55.242 -99.150 -44.300  0.00  0.00    -0.082 SA
ATOM     15  C   UNL d   1     -55.119 -98.889 -45.052  0.00  0.00     0.036 A 
ATOM     16  C   UNL d   1     -54.798 -99.495 -45.489  0.00  0.00     0.008 A 
ATOM     17  C   UNL d   1     -54.717-100.168 -44.981  0.00  0.00     0.012 A 
ENDBRANCH  11  13
ENDBRANCH   1  10
BRANCH   7  18
ATOM     18  N   UNL d   1     -54.731-102.391 -39.143  0.00  0.00    -0.208 NA
ATOM     19  C   UNL d   1     -55.404-102.700 -38.751  0.00  0.00     0.279 C 
ATOM     20  O   UNL d   1     -55.376-102.841 -37.931  0.00  0.00    -0.265 OA
ATOM     21  C   UNL d   1     -56.094-102.864 -39.180  0.00  0.00     0.068 C 
ENDBRANCH   7  18
TORSDOF 3
ENDMDL
