MODEL 1
REMARK VINA RESULT:      -6.3      0.000      0.000
REMARK  6 active torsions:
REMARK  status: ('A' for Active; 'I' for Inactive)
REMARK    1  A    between atoms: C_10  and  C_3 
REMARK    2  A    between atoms: N_12  and  C_4 
REMARK    3  A    between atoms: N_11  and  C_14 
REMARK    4  A    between atoms: C_19  and  N_12 
REMARK    5  A    between atoms: C_14  and  C_15 
REMARK    6  A    between atoms: C_15  and  C_19 
ROOT
ATOM      1  C   UNL d   1     -48.789  13.252  23.016  0.00  0.00     0.167 A 
ATOM      2  N   UNL d   1     -47.997  13.109  23.198  0.00  0.00    -0.195 N 
ATOM      3  C   UNL d   1     -48.843  14.012  22.712  0.00  0.00     0.057 A 
ATOM      4  C   UNL d   1     -47.772  12.384  23.516  0.00  0.00     0.167 A 
ATOM      5  N   UNL d   1     -47.570  13.782  23.004  0.00  0.00    -0.161 NA
ATOM      6  N   UNL d   1     -49.356  12.670  23.153  0.00  0.00    -0.227 NA
ATOM      7  C   UNL d   1     -48.344  11.799  23.653  0.00  0.00     0.058 A 
ATOM      8  C   UNL d   1     -48.084  14.335  22.707  0.00  0.00     0.124 A 
ATOM      9  C   UNL d   1     -49.127  11.940  23.473  0.00  0.00     0.086 A 
ATOM     10  C   UNL d   1     -49.679  11.343  23.618  0.00  0.00     0.021 C 
ENDROOT
BRANCH   4  11
ATOM     11  N   UNL d   1     -46.980  12.241  23.698  0.00  0.00    -0.225 NA
BRANCH  11  12
ATOM     12  C   UNL d   1     -46.664  11.486  23.600  0.00  0.00     0.102 C 
BRANCH  12  13
ATOM     13  C   UNL d   1     -45.837  11.376  23.603  0.00  0.00     0.040 C 
BRANCH  13  14
ATOM     14  C   UNL d   1     -45.522  10.648  23.389  0.00  0.00     0.082 C 
BRANCH  14  15
ATOM     15  N   UNL d   1     -44.700  10.540  23.389  0.00  0.00    -0.299 N 
ATOM     16  C   UNL d   1     -44.372   9.833  23.675  0.00  0.00     0.107 A 
ATOM     17  C   UNL d   1     -43.554   9.725  23.674  0.00  0.00     0.142 A 
ATOM     18  O   UNL d   1     -43.060  10.323  23.388  0.00  0.00    -0.300 OA
ATOM     19  C   UNL d   1     -43.383  11.025  23.104  0.00  0.00     0.142 A 
ATOM     20  C   UNL d   1     -44.201  11.133  23.105  0.00  0.00     0.107 A 
ENDBRANCH  14  15
ENDBRANCH  13  14
ENDBRANCH  12  13
ENDBRANCH  11  12
ENDBRANCH   4  11
BRANCH   3  21
ATOM     21  C   UNL d   1     -49.574  14.320  22.475  0.00  0.00     0.004 A 
ATOM     22  C   UNL d   1     -49.864  14.157  21.729  0.00  0.00     0.000 A 
ATOM     23  C   UNL d   1     -50.588  14.459  21.488  0.00  0.00     0.000 A 
ATOM     24  C   UNL d   1     -51.027  14.936  22.014  0.00  0.00     0.000 A 
ATOM     25  C   UNL d   1     -50.725  15.094  22.766  0.00  0.00     0.000 A 
ATOM     26  C   UNL d   1     -50.006  14.789  22.993  0.00  0.00     0.000 A 
ENDBRANCH   3  21
TORSDOF 6
ENDMDL
MODEL 2
REMARK VINA RESULT:      -5.4      1.708      2.039
REMARK  6 active torsions:
REMARK  status: ('A' for Active; 'I' for Inactive)
REMARK    1  A    between atoms: C_10  and  C_3 
REMARK    2  A    between atoms: N_12  and  C_4 
REMARK    3  A    between atoms: N_11  and  C_14 
REMARK    4  A    between atoms: C_19  and  N_12 
REMARK    5  A    between atoms: C_14  and  C_15 
REMARK    6  A    between atoms: C_15  and  C_19 
ROOT
ATOM      1  C   UNL d   1     -48.250  14.098  22.937  0.00  0.00     0.167 A 
ATOM      2  N   UNL d   1     -47.442  14.192  22.797  0.00  0.00    -0.195 N 
ATOM      3  C   UNL d   1     -48.620  14.809  22.759  0.00  0.00     0.057 A 
ATOM      4  C   UNL d   1     -46.926  13.564  22.929  0.00  0.00     0.167 A 
ATOM      5  N   UNL d   1     -47.321  14.959  22.534  0.00  0.00    -0.161 NA
ATOM      6  N   UNL d   1     -48.541  13.377  23.209  0.00  0.00    -0.227 NA
ATOM      7  C   UNL d   1     -47.220  12.839  23.202  0.00  0.00     0.058 A 
ATOM      8  C   UNL d   1     -48.038  15.338  22.510  0.00  0.00     0.124 A 
ATOM      9  C   UNL d   1     -48.019  12.746  23.341  0.00  0.00     0.086 A 
ATOM     10  C   UNL d   1     -48.289  12.014  23.613  0.00  0.00     0.021 C 
ENDROOT
BRANCH   4  11
ATOM     11  N   UNL d   1     -46.118  13.658  22.788  0.00  0.00    -0.225 NA
BRANCH  11  12
ATOM     12  C   UNL d   1     -45.727  13.150  22.271  0.00  0.00     0.102 C 
BRANCH  12  13
ATOM     13  C   UNL d   1     -44.896  13.173  22.211  0.00  0.00     0.040 C 
BRANCH  13  14
ATOM     14  C   UNL d   1     -44.527  12.887  21.535  0.00  0.00     0.082 C 
BRANCH  14  15
ATOM     15  N   UNL d   1     -43.700  12.857  21.498  0.00  0.00    -0.299 N 
ATOM     16  C   UNL d   1     -43.288  12.234  21.860  0.00  0.00     0.107 A 
ATOM     17  C   UNL d   1     -42.464  12.205  21.823  0.00  0.00     0.142 A 
ATOM     18  O   UNL d   1     -42.048  12.798  21.425  0.00  0.00    -0.300 OA
ATOM     19  C   UNL d   1     -42.455  13.417  21.065  0.00  0.00     0.142 A 
ATOM     20  C   UNL d   1     -43.278  13.447  21.101  0.00  0.00     0.107 A 
ENDBRANCH  14  15
ENDBRANCH  13  14
ENDBRANCH  12  13
ENDBRANCH  11  12
ENDBRANCH   4  11
BRANCH   3  21
ATOM     21  C   UNL d   1     -49.439  14.890  22.845  0.00  0.00     0.004 A 
ATOM     22  C   UNL d   1     -49.938  14.650  22.244  0.00  0.00     0.000 A 
ATOM     23  C   UNL d   1     -50.751  14.728  22.322  0.00  0.00     0.000 A 
ATOM     24  C   UNL d   1     -51.064  15.055  23.022  0.00  0.00     0.000 A 
ATOM     25  C   UNL d   1     -50.551  15.295  23.623  0.00  0.00     0.000 A 
ATOM     26  C   UNL d   1     -49.747  15.213  23.534  0.00  0.00     0.000 A 
ENDBRANCH   3  21
TORSDOF 6
ENDMDL
MODEL 3
REMARK VINA RESULT:      -5.0      2.060      2.822
REMARK  6 active torsions:
REMARK  status: ('A' for Active; 'I' for Inactive)
REMARK    1  A    between atoms: C_10  and  C_3 
REMARK    2  A    between atoms: N_12  and  C_4 
REMARK    3  A    between atoms: N_11  and  C_14 
REMARK    4  A    between atoms: C_19  and  N_12 
REMARK    5  A    between atoms: C_14  and  C_15 
REMARK    6  A    between atoms: C_15  and  C_19 
ROOT
ATOM      1  C   UNL d   1     -48.116  12.937  22.843  0.00  0.00     0.167 A 
ATOM      2  N   UNL d   1     -47.324  12.706  22.851  0.00  0.00    -0.195 N 
ATOM      3  C   UNL d   1     -48.574  12.264  22.947  0.00  0.00     0.057 A 
ATOM      4  C   UNL d   1     -46.730  13.269  22.758  0.00  0.00     0.167 A 
ATOM      5  N   UNL d   1     -47.300  11.894  22.960  0.00  0.00    -0.161 NA
ATOM      6  N   UNL d   1     -48.314  13.730  22.742  0.00  0.00    -0.227 NA
ATOM      7  C   UNL d   1     -46.931  14.068  22.657  0.00  0.00     0.058 A 
ATOM      8  C   UNL d   1     -48.062  11.621  23.018  0.00  0.00     0.124 A 
ATOM      9  C   UNL d   1     -47.715  14.296  22.649  0.00  0.00     0.086 A 
ATOM     10  C   UNL d   1     -47.891  15.096  22.547  0.00  0.00     0.021 C 
ENDROOT
BRANCH   4  11
ATOM     11  N   UNL d   1     -45.938  13.039  22.766  0.00  0.00    -0.225 NA
BRANCH  11  12
ATOM     12  C   UNL d   1     -45.441  13.248  22.144  0.00  0.00     0.102 C 
BRANCH  12  13
ATOM     13  C   UNL d   1     -44.650  12.982  22.132  0.00  0.00     0.040 C 
BRANCH  13  14
ATOM     14  C   UNL d   1     -44.254  12.910  21.416  0.00  0.00     0.082 C 
BRANCH  14  15
ATOM     15  N   UNL d   1     -43.428  12.979  21.394  0.00  0.00    -0.299 N 
ATOM     16  C   UNL d   1     -43.073  13.618  21.003  0.00  0.00     0.107 A 
ATOM     17  C   UNL d   1     -42.252  13.687  20.980  0.00  0.00     0.142 A 
ATOM     18  O   UNL d   1     -41.781  13.115  21.349  0.00  0.00    -0.300 OA
ATOM     19  C   UNL d   1     -42.131  12.479  21.737  0.00  0.00     0.142 A 
ATOM     20  C   UNL d   1     -42.953  12.411  21.760  0.00  0.00     0.107 A 
ENDBRANCH  14  15
ENDBRANCH  13  14
ENDBRANCH  12  13
ENDBRANCH  11  12
ENDBRANCH   4  11
BRANCH   3  21
ATOM     21  C   UNL d   1     -49.400  12.316  22.964  0.00  0.00     0.004 A 
ATOM     22  C   UNL d   1     -49.787  12.435  23.673  0.00  0.00     0.000 A 
ATOM     23  C   UNL d   1     -50.606  12.487  23.697  0.00  0.00     0.000 A 
ATOM     24  C   UNL d   1     -51.040  12.416  22.989  0.00  0.00     0.000 A 
ATOM     25  C   UNL d   1     -50.639  12.295  22.278  0.00  0.00     0.000 A 
ATOM     26  C   UNL d   1     -49.828  12.246  22.266  0.00  0.00     0.000 A 
ENDBRANCH   3  21
TORSDOF 6
ENDMDL
MODEL 4
REMARK VINA RESULT:      -4.5      7.956     10.431
REMARK  6 active torsions:
REMARK  status: ('A' for Active; 'I' for Inactive)
REMARK    1  A    between atoms: C_10  and  C_3 
REMARK    2  A    between atoms: N_12  and  C_4 
REMARK    3  A    between atoms: N_11  and  C_14 
REMARK    4  A    between atoms: C_19  and  N_12 
REMARK    5  A    between atoms: C_14  and  C_15 
REMARK    6  A    between atoms: C_15  and  C_19 
ROOT
ATOM      1  C   UNL d   1     -39.238  14.894  21.051  0.00  0.00     0.167 A 
ATOM      2  N   UNL d   1     -39.071  15.346  20.381  0.00  0.00    -0.195 N 
ATOM      3  C   UNL d   1     -38.561  14.870  21.513  0.00  0.00     0.057 A 
ATOM      4  C   UNL d   1     -39.653  15.468  19.811  0.00  0.00     0.167 A 
ATOM      5  N   UNL d   1     -38.292  15.597  20.435  0.00  0.00    -0.161 NA
ATOM      6  N   UNL d   1     -39.987  14.565  21.151  0.00  0.00    -0.227 NA
ATOM      7  C   UNL d   1     -40.406  15.136  19.913  0.00  0.00     0.058 A 
ATOM      8  C   UNL d   1     -37.978  15.307  21.125  0.00  0.00     0.124 A 
ATOM      9  C   UNL d   1     -40.571  14.689  20.575  0.00  0.00     0.086 A 
ATOM     10  C   UNL d   1     -41.328  14.368  20.655  0.00  0.00     0.021 C 
ENDROOT
BRANCH   4  11
ATOM     11  N   UNL d   1     -39.485  15.920  19.141  0.00  0.00    -0.225 NA
BRANCH  11  12
ATOM     12  C   UNL d   1     -39.782  15.694  18.406  0.00  0.00     0.102 C 
BRANCH  12  13
ATOM     13  C   UNL d   1     -39.316  15.787  17.721  0.00  0.00     0.040 C 
BRANCH  13  14
ATOM     14  C   UNL d   1     -39.578  15.480  17.005  0.00  0.00     0.082 C 
BRANCH  14  15
ATOM     15  N   UNL d   1     -39.031  15.310  16.406  0.00  0.00    -0.299 N 
ATOM     16  C   UNL d   1     -38.972  14.541  16.101  0.00  0.00     0.107 A 
ATOM     17  C   UNL d   1     -38.428  14.371  15.505  0.00  0.00     0.142 A 
ATOM     18  O   UNL d   1     -37.940  14.970  15.210  0.00  0.00    -0.300 OA
ATOM     19  C   UNL d   1     -37.996  15.734  15.511  0.00  0.00     0.142 A 
ATOM     20  C   UNL d   1     -38.540  15.904  16.108  0.00  0.00     0.107 A 
ENDBRANCH  14  15
ENDBRANCH  13  14
ENDBRANCH  12  13
ENDBRANCH  11  12
ENDBRANCH   4  11
BRANCH   3  21
ATOM     21  C   UNL d   1     -38.553  14.455  22.229  0.00  0.00     0.004 A 
ATOM     22  C   UNL d   1     -38.661  14.853  22.933  0.00  0.00     0.000 A 
ATOM     23  C   UNL d   1     -38.655  14.448  23.647  0.00  0.00     0.000 A 
ATOM     24  C   UNL d   1     -38.537  13.622  23.646  0.00  0.00     0.000 A 
ATOM     25  C   UNL d   1     -38.430  13.229  22.928  0.00  0.00     0.000 A 
ATOM     26  C   UNL d   1     -38.438  13.641  22.228  0.00  0.00     0.000 A 
ENDBRANCH   3  21
TORSDOF 6
ENDMDL
MODEL 5
REMARK VINA RESULT:      -4.1      8.670     10.517
REMARK  6 active torsions:
REMARK  status: ('A' for Active; 'I' for Inactive)
REMARK    1  A    between atoms: C_10  and  C_3 
REMARK    2  A    between atoms: N_12  and  C_4 
REMARK    3  A    between atoms: N_11  and  C_14 
REMARK    4  A    between atoms: C_19  and  N_12 
REMARK    5  A    between atoms: C_14  and  C_15 
REMARK    6  A    between atoms: C_15  and  C_19 
ROOT
ATOM      1  C   UNL d   1     -39.215  15.193  17.386  0.00  0.00     0.167 A 
ATOM      2  N   UNL d   1     -39.181  15.350  18.195  0.00  0.00    -0.195 N 
ATOM      3  C   UNL d   1     -38.446  15.109  17.114  0.00  0.00     0.057 A 
ATOM      4  C   UNL d   1     -39.876  15.461  18.623  0.00  0.00     0.167 A 
ATOM      5  N   UNL d   1     -38.391  15.362  18.415  0.00  0.00    -0.161 NA
ATOM      6  N   UNL d   1     -39.944  15.146  17.004  0.00  0.00    -0.227 NA
ATOM      7  C   UNL d   1     -40.609  15.415  18.238  0.00  0.00     0.058 A 
ATOM      8  C   UNL d   1     -37.940  15.215  17.757  0.00  0.00     0.124 A 
ATOM      9  C   UNL d   1     -40.643  15.259  17.437  0.00  0.00     0.086 A 
ATOM     10  C   UNL d   1     -41.384  15.217  17.075  0.00  0.00     0.021 C 
ENDROOT
BRANCH   4  11
ATOM     11  N   UNL d   1     -39.842  15.619  19.432  0.00  0.00    -0.225 NA
BRANCH  11  12
ATOM     12  C   UNL d   1     -39.946  15.009  19.976  0.00  0.00     0.102 C 
BRANCH  12  13
ATOM     13  C   UNL d   1     -39.815  15.147  20.788  0.00  0.00     0.040 C 
BRANCH  13  14
ATOM     14  C   UNL d   1     -39.852  14.521  21.319  0.00  0.00     0.082 C 
BRANCH  14  15
ATOM     15  N   UNL d   1     -39.394  14.539  22.010  0.00  0.00    -0.299 N 
ATOM     16  C   UNL d   1     -39.325  15.241  22.446  0.00  0.00     0.107 A 
ATOM     17  C   UNL d   1     -38.870  15.260  23.134  0.00  0.00     0.142 A 
ATOM     18  O   UNL d   1     -38.480  14.576  23.388  0.00  0.00    -0.300 OA
ATOM     19  C   UNL d   1     -38.546  13.878  22.956  0.00  0.00     0.142 A 
ATOM     20  C   UNL d   1     -39.002  13.860  22.269  0.00  0.00     0.107 A 
ENDBRANCH  14  15
ENDBRANCH  13  14
ENDBRANCH  12  13
ENDBRANCH  11  12
ENDBRANCH   4  11
BRANCH   3  21
ATOM     21  C   UNL d   1     -38.296  14.947  16.316  0.00  0.00     0.004 A 
ATOM     22  C   UNL d   1     -38.090  15.552  15.808  0.00  0.00     0.000 A 
ATOM     23  C   UNL d   1     -37.940  15.398  15.015  0.00  0.00     0.000 A 
ATOM     24  C   UNL d   1     -38.001  14.616  14.733  0.00  0.00     0.000 A 
ATOM     25  C   UNL d   1     -38.211  14.011  15.255  0.00  0.00     0.000 A 
ATOM     26  C   UNL d   1     -38.356  14.176  16.038  0.00  0.00     0.000 A 
ENDBRANCH   3  21
TORSDOF 6
ENDMDL
MODEL 6
REMARK VINA RESULT:      -3.7      6.271      9.092
REMARK  6 active torsions:
REMARK  status: ('A' for Active; 'I' for Inactive)
REMARK    1  A    between atoms: C_10  and  C_3 
REMARK    2  A    between atoms: N_12  and  C_4 
REMARK    3  A    between atoms: N_11  and  C_14 
REMARK    4  A    between atoms: C_19  and  N_12 
REMARK    5  A    between atoms: C_14  and  C_15 
REMARK    6  A    between atoms: C_15  and  C_19 
ROOT
ATOM      1  C   UNL d   1     -39.811  14.474  18.613  0.00  0.00     0.167 A 
ATOM      2  N   UNL d   1     -40.550  14.386  18.968  0.00  0.00    -0.195 N 
ATOM      3  C   UNL d   1     -39.924  14.500  17.801  0.00  0.00     0.057 A 
ATOM      4  C   UNL d   1     -40.611  14.343  19.788  0.00  0.00     0.167 A 
ATOM      5  N   UNL d   1     -41.114  14.359  18.372  0.00  0.00    -0.161 NA
ATOM      6  N   UNL d   1     -39.132  14.518  19.078  0.00  0.00    -0.227 NA
ATOM      7  C   UNL d   1     -39.927  14.387  20.255  0.00  0.00     0.058 A 
ATOM      8  C   UNL d   1     -40.734  14.429  17.658  0.00  0.00     0.124 A 
ATOM      9  C   UNL d   1     -39.195  14.474  19.904  0.00  0.00     0.086 A 
ATOM     10  C   UNL d   1     -38.528  14.516  20.388  0.00  0.00     0.021 C 
ENDROOT
BRANCH   4  11
ATOM     11  N   UNL d   1     -41.350  14.255  20.144  0.00  0.00    -0.225 NA
BRANCH  11  12
ATOM     12  C   UNL d   1     -41.456  13.705  20.748  0.00  0.00     0.102 C 
BRANCH  12  13
ATOM     13  C   UNL d   1     -42.215  13.576  21.068  0.00  0.00     0.040 C 
BRANCH  13  14
ATOM     14  C   UNL d   1     -42.524  12.815  21.092  0.00  0.00     0.082 C 
BRANCH  14  15
ATOM     15  N   UNL d   1     -43.220  12.667  21.517  0.00  0.00    -0.299 N 
ATOM     16  C   UNL d   1     -43.237  12.070  22.093  0.00  0.00     0.107 A 
ATOM     17  C   UNL d   1     -43.930  11.922  22.516  0.00  0.00     0.142 A 
ATOM     18  O   UNL d   1     -44.608  12.370  22.365  0.00  0.00    -0.300 OA
ATOM     19  C   UNL d   1     -44.593  12.963  21.794  0.00  0.00     0.142 A 
ATOM     20  C   UNL d   1     -43.900  13.111  21.371  0.00  0.00     0.107 A 
ENDBRANCH  14  15
ENDBRANCH  13  14
ENDBRANCH  12  13
ENDBRANCH  11  12
ENDBRANCH   4  11
BRANCH   3  21
ATOM     21  C   UNL d   1     -39.280  14.586  17.288  0.00  0.00     0.004 A 
ATOM     22  C   UNL d   1     -38.888  13.925  17.012  0.00  0.00     0.000 A 
ATOM     23  C   UNL d   1     -38.248  14.002  16.503  0.00  0.00     0.000 A 
ATOM     24  C   UNL d   1     -38.002  14.764  16.271  0.00  0.00     0.000 A 
ATOM     25  C   UNL d   1     -38.405  15.425  16.556  0.00  0.00     0.000 A 
ATOM     26  C   UNL d   1     -39.037  15.336  17.059  0.00  0.00     0.000 A 
ENDBRANCH   3  21
TORSDOF 6
ENDMDL
