MODEL 1
REMARK VINA RESULT:      -2.8      0.000      0.000
REMARK  3 active torsions:
REMARK  status: ('A' for Active; 'I' for Inactive)
REMARK    1  A    between atoms: C_6  and  C_1 
REMARK    2  A    between atoms: C_7  and  C_5 
REMARK    3  A    between atoms: O_11  and  C_6 
ROOT
ATOM      1  C   UNL d   1      33.039  19.136 -22.542  0.00  0.00     0.167 A 
ATOM      2  C   UNL d   1      32.778  19.786 -22.894  0.00  0.00     0.047 A 
ATOM      3  N   UNL d   1      33.178  19.820 -21.381  0.00  0.00    -0.148 NA
ATOM      4  N   UNL d   1      33.241  19.152 -21.779  0.00  0.00    -0.143 NA
ATOM      5  C   UNL d   1      32.914  20.477 -21.737  0.00  0.00     0.105 A 
ENDROOT
BRANCH   5   6
ATOM      6  C   UNL d   1      32.782  21.254 -21.493  0.00  0.00     0.019 A 
ATOM      7  C   UNL d   1      32.240  21.394 -20.877  0.00  0.00     0.002 A 
ATOM      8  C   UNL d   1      32.101  22.171 -20.626  0.00  0.00     0.011 A 
ATOM      9  C   UNL d   1      32.504  22.801 -20.993  0.00  0.00     0.058 A 
ATOM     10  C   UNL d   1      33.039  22.646 -21.604  0.00  0.00     0.011 A 
ATOM     11 CL   UNL d   1      32.361  23.591 -20.735  0.00  0.00    -0.082 Cl
ATOM     12  C   UNL d   1      33.175  21.877 -21.850  0.00  0.00     0.002 A 
ENDBRANCH   5   6
BRANCH   1  13
ATOM     13  C   UNL d   1      33.101  18.462 -22.951  0.00  0.00     0.316 C 
ATOM     14  O   UNL d   1      33.241  17.780 -22.573  0.00  0.00    -0.257 OA
BRANCH  13  15
ATOM     15  O   UNL d   1      33.018  18.481 -23.770  0.00  0.00    -0.294 OA
ATOM     16  C   UNL d   1      33.096  17.764 -24.215  0.00  0.00     0.185 C 
ENDBRANCH  13  15
ENDBRANCH   1  13
TORSDOF 3
ENDMDL
MODEL 2
REMARK VINA RESULT:      -2.8      0.688      1.159
REMARK  3 active torsions:
REMARK  status: ('A' for Active; 'I' for Inactive)
REMARK    1  A    between atoms: C_6  and  C_1 
REMARK    2  A    between atoms: C_7  and  C_5 
REMARK    3  A    between atoms: O_11  and  C_6 
ROOT
ATOM      1  C   UNL d   1      32.893  18.610 -22.998  0.00  0.00     0.167 A 
ATOM      2  C   UNL d   1      32.590  19.284 -23.259  0.00  0.00     0.047 A 
ATOM      3  N   UNL d   1      33.240  19.214 -21.837  0.00  0.00    -0.148 NA
ATOM      4  N   UNL d   1      33.221  18.573 -22.282  0.00  0.00    -0.143 NA
ATOM      5  C   UNL d   1      32.934  19.895 -22.100  0.00  0.00     0.105 A 
ENDROOT
BRANCH   5   6
ATOM      6  C   UNL d   1      32.861  20.656 -21.788  0.00  0.00     0.019 A 
ATOM      7  C   UNL d   1      33.241  21.286 -22.176  0.00  0.00     0.002 A 
ATOM      8  C   UNL d   1      33.172  22.052 -21.869  0.00  0.00     0.011 A 
ATOM      9  C   UNL d   1      32.725  22.183 -21.179  0.00  0.00     0.058 A 
ATOM     10  C   UNL d   1      32.354  21.546 -20.805  0.00  0.00     0.011 A 
ATOM     11 CL   UNL d   1      32.658  22.964 -20.869  0.00  0.00    -0.082 Cl
ATOM     12  C   UNL d   1      32.422  20.789 -21.110  0.00  0.00     0.002 A 
ENDBRANCH   5   6
BRANCH   1  13
ATOM     13  C   UNL d   1      32.870  17.963 -23.454  0.00  0.00     0.316 C 
ATOM     14  O   UNL d   1      33.084  18.008 -24.216  0.00  0.00    -0.257 OA
BRANCH  13  15
ATOM     15  O   UNL d   1      32.623  17.250 -23.126  0.00  0.00    -0.294 OA
ATOM     16  C   UNL d   1      32.629  16.547 -23.599  0.00  0.00     0.185 C 
ENDBRANCH  13  15
ENDBRANCH   1  13
TORSDOF 3
ENDMDL
MODEL 3
REMARK VINA RESULT:      -2.7      2.549      4.156
REMARK  3 active torsions:
REMARK  status: ('A' for Active; 'I' for Inactive)
REMARK    1  A    between atoms: C_6  and  C_1 
REMARK    2  A    between atoms: C_7  and  C_5 
REMARK    3  A    between atoms: O_11  and  C_6 
ROOT
ATOM      1  C   UNL d   1      32.719  20.833 -21.193  0.00  0.00     0.167 A 
ATOM      2  C   UNL d   1      32.484  20.881 -21.939  0.00  0.00     0.047 A 
ATOM      3  N   UNL d   1      33.241  19.608 -21.436  0.00  0.00    -0.148 NA
ATOM      4  N   UNL d   1      33.100  20.192 -20.938  0.00  0.00    -0.143 NA
ATOM      5  C   UNL d   1      33.004  19.657 -22.190  0.00  0.00     0.105 A 
ENDROOT
BRANCH   5   6
ATOM      6  C   UNL d   1      33.058  19.160 -22.847  0.00  0.00     0.019 A 
ATOM      7  C   UNL d   1      33.185  19.499 -23.596  0.00  0.00     0.002 A 
ATOM      8  C   UNL d   1      33.240  19.007 -24.261  0.00  0.00     0.011 A 
ATOM      9  C   UNL d   1      33.168  18.183 -24.171  0.00  0.00     0.058 A 
ATOM     10  C   UNL d   1      33.041  17.861 -23.420  0.00  0.00     0.011 A 
ATOM     11 CL   UNL d   1      33.224  17.685 -24.850  0.00  0.00    -0.082 Cl
ATOM     12  C   UNL d   1      32.987  18.348 -22.765  0.00  0.00     0.002 A 
ENDBRANCH   5   6
BRANCH   1  13
ATOM     13  C   UNL d   1      32.573  21.429 -20.693  0.00  0.00     0.316 C 
ATOM     14  O   UNL d   1      31.848  21.746 -20.654  0.00  0.00    -0.257 OA
BRANCH  13  15
ATOM     15  O   UNL d   1      33.183  21.711 -20.217  0.00  0.00    -0.294 OA
ATOM     16  C   UNL d   1      33.088  22.446 -19.806  0.00  0.00     0.185 C 
ENDBRANCH  13  15
ENDBRANCH   1  13
TORSDOF 3
ENDMDL
MODEL 4
REMARK VINA RESULT:      -2.3      2.764      4.208
REMARK  3 active torsions:
REMARK  status: ('A' for Active; 'I' for Inactive)
REMARK    1  A    between atoms: C_6  and  C_1 
REMARK    2  A    between atoms: C_7  and  C_5 
REMARK    3  A    between atoms: O_11  and  C_6 
ROOT
ATOM      1  C   UNL d   1      32.888  22.102 -20.548  0.00  0.00     0.167 A 
ATOM      2  C   UNL d   1      32.737  22.108 -21.318  0.00  0.00     0.047 A 
ATOM      3  N   UNL d   1      33.235  20.796 -20.626  0.00  0.00    -0.148 NA
ATOM      4  N   UNL d   1      33.139  21.441 -20.199  0.00  0.00    -0.143 NA
ATOM      5  C   UNL d   1      33.082  20.801 -21.403  0.00  0.00     0.105 A 
ENDROOT
BRANCH   5   6
ATOM      6  C   UNL d   1      33.121  20.238 -22.005  0.00  0.00     0.019 A 
ATOM      7  C   UNL d   1      33.179  19.434 -21.798  0.00  0.00     0.002 A 
ATOM      8  C   UNL d   1      33.219  18.863 -22.396  0.00  0.00     0.011 A 
ATOM      9  C   UNL d   1      33.199  19.098 -23.195  0.00  0.00     0.058 A 
ATOM     10  C   UNL d   1      33.140  19.901 -23.384  0.00  0.00     0.011 A 
ATOM     11 CL   UNL d   1      33.239  18.514 -23.801  0.00  0.00    -0.082 Cl
ATOM     12  C   UNL d   1      33.102  20.464 -22.792  0.00  0.00     0.002 A 
ENDBRANCH   5   6
BRANCH   1  13
ATOM     13  C   UNL d   1      32.789  22.761 -20.121  0.00  0.00     0.316 C 
ATOM     14  O   UNL d   1      32.380  23.369 -20.419  0.00  0.00    -0.257 OA
BRANCH  13  15
ATOM     15  O   UNL d   1      33.117  22.801 -19.366  0.00  0.00    -0.294 OA
ATOM     16  C   UNL d   1      32.870  23.414 -18.835  0.00  0.00     0.185 C 
ENDBRANCH  13  15
ENDBRANCH   1  13
TORSDOF 3
ENDMDL
MODEL 5
REMARK VINA RESULT:      -2.3      4.243      5.821
REMARK  3 active torsions:
REMARK  status: ('A' for Active; 'I' for Inactive)
REMARK    1  A    between atoms: C_6  and  C_1 
REMARK    2  A    between atoms: C_7  and  C_5 
REMARK    3  A    between atoms: O_11  and  C_6 
ROOT
ATOM      1  C   UNL d   1      31.611  17.629 -24.541  0.00  0.00     0.167 A 
ATOM      2  C   UNL d   1      31.432  17.092 -24.000  0.00  0.00     0.047 A 
ATOM      3  N   UNL d   1      30.333  17.607 -24.987  0.00  0.00    -0.148 NA
ATOM      4  N   UNL d   1      31.058  17.890 -25.039  0.00  0.00    -0.143 NA
ATOM      5  C   UNL d   1      30.152  17.064 -24.440  0.00  0.00     0.105 A 
ENDROOT
BRANCH   5   6
ATOM      6  C   UNL d   1      29.464  16.657 -24.233  0.00  0.00     0.019 A 
ATOM      7  C   UNL d   1      28.906  17.034 -23.744  0.00  0.00     0.002 A 
ATOM      8  C   UNL d   1      28.214  16.633 -23.532  0.00  0.00     0.011 A 
ATOM      9  C   UNL d   1      28.084  15.859 -23.810  0.00  0.00     0.058 A 
ATOM     10  C   UNL d   1      28.647  15.497 -24.295  0.00  0.00     0.011 A 
ATOM     11 CL   UNL d   1      27.378  15.453 -23.592  0.00  0.00    -0.082 Cl
ATOM     12  C   UNL d   1      29.331  15.895 -24.503  0.00  0.00     0.002 A 
ENDBRANCH   5   6
BRANCH   1  13
ATOM     13  C   UNL d   1      32.348  17.912 -24.590  0.00  0.00     0.316 C 
ATOM     14  O   UNL d   1      32.921  17.473 -24.917  0.00  0.00    -0.257 OA
BRANCH  13  15
ATOM     15  O   UNL d   1      32.509  18.665 -24.296  0.00  0.00    -0.294 OA
ATOM     16  C   UNL d   1      33.200  19.078 -24.560  0.00  0.00     0.185 C 
ENDBRANCH  13  15
ENDBRANCH   1  13
TORSDOF 3
ENDMDL
MODEL 6
REMARK VINA RESULT:      -2.3      3.764      5.101
REMARK  3 active torsions:
REMARK  status: ('A' for Active; 'I' for Inactive)
REMARK    1  A    between atoms: C_6  and  C_1 
REMARK    2  A    between atoms: C_7  and  C_5 
REMARK    3  A    between atoms: O_11  and  C_6 
ROOT
ATOM      1  C   UNL d   1      32.743  23.045 -18.068  0.00  0.00     0.167 A 
ATOM      2  C   UNL d   1      32.333  23.496 -18.561  0.00  0.00     0.047 A 
ATOM      3  N   UNL d   1      33.240  22.351 -19.119  0.00  0.00    -0.148 NA
ATOM      4  N   UNL d   1      33.201  22.467 -18.349  0.00  0.00    -0.143 NA
ATOM      5  C   UNL d   1      32.826  22.807 -19.616  0.00  0.00     0.105 A 
ENDROOT
BRANCH   5   6
ATOM      6  C   UNL d   1      32.740  22.839 -20.436  0.00  0.00     0.019 A 
ATOM      7  C   UNL d   1      32.840  23.570 -20.822  0.00  0.00     0.002 A 
ATOM      8  C   UNL d   1      32.755  23.610 -21.644  0.00  0.00     0.011 A 
ATOM      9  C   UNL d   1      32.570  22.922 -22.075  0.00  0.00     0.058 A 
ATOM     10  C   UNL d   1      32.473  22.203 -21.678  0.00  0.00     0.011 A 
ATOM     11 CL   UNL d   1      32.484  22.967 -22.912  0.00  0.00    -0.082 Cl
ATOM     12  C   UNL d   1      32.558  22.165 -20.865  0.00  0.00     0.002 A 
ENDBRANCH   5   6
BRANCH   1  13
ATOM     13  C   UNL d   1      32.698  23.168 -17.288  0.00  0.00     0.316 C 
ATOM     14  O   UNL d   1      32.152  23.661 -16.995  0.00  0.00    -0.257 OA
BRANCH  13  15
ATOM     15  O   UNL d   1      33.225  22.777 -16.790  0.00  0.00    -0.294 OA
ATOM     16  C   UNL d   1      33.218  22.945 -15.959  0.00  0.00     0.185 C 
ENDBRANCH  13  15
ENDBRANCH   1  13
TORSDOF 3
ENDMDL
MODEL 7
REMARK VINA RESULT:      -2.3      4.272      5.315
REMARK  3 active torsions:
REMARK  status: ('A' for Active; 'I' for Inactive)
REMARK    1  A    between atoms: C_6  and  C_1 
REMARK    2  A    between atoms: C_7  and  C_5 
REMARK    3  A    between atoms: O_11  and  C_6 
ROOT
ATOM      1  C   UNL d   1      29.355  16.168 -24.051  0.00  0.00     0.167 A 
ATOM      2  C   UNL d   1      29.405  16.950 -24.038  0.00  0.00     0.047 A 
ATOM      3  N   UNL d   1      30.702  16.085 -24.164  0.00  0.00    -0.148 NA
ATOM      4  N   UNL d   1      30.009  15.731 -24.115  0.00  0.00    -0.143 NA
ATOM      5  C   UNL d   1      30.752  16.875 -24.150  0.00  0.00     0.105 A 
ENDROOT
BRANCH   5   6
ATOM      6  C   UNL d   1      31.374  17.417 -24.190  0.00  0.00     0.019 A 
ATOM      7  C   UNL d   1      31.456  17.883 -24.874  0.00  0.00     0.002 A 
ATOM      8  C   UNL d   1      32.077  18.429 -24.921  0.00  0.00     0.011 A 
ATOM      9  C   UNL d   1      32.610  18.504 -24.285  0.00  0.00     0.058 A 
ATOM     10  C   UNL d   1      32.515  18.034 -23.612  0.00  0.00     0.011 A 
ATOM     11 CL   UNL d   1      33.241  19.061 -24.336  0.00  0.00    -0.082 Cl
ATOM     12  C   UNL d   1      31.900  17.495 -23.567  0.00  0.00     0.002 A 
ENDBRANCH   5   6
BRANCH   1  13
ATOM     13  C   UNL d   1      28.649  15.815 -24.001  0.00  0.00     0.316 C 
ATOM     14  O   UNL d   1      28.334  15.466 -24.638  0.00  0.00    -0.257 OA
BRANCH  13  15
ATOM     15  O   UNL d   1      28.250  15.817 -23.280  0.00  0.00    -0.294 OA
ATOM     16  C   UNL d   1      27.459  15.518 -23.239  0.00  0.00     0.185 C 
ENDBRANCH  13  15
ENDBRANCH   1  13
TORSDOF 3
ENDMDL
MODEL 8
REMARK VINA RESULT:      -2.3      2.487      4.262
REMARK  3 active torsions:
REMARK  status: ('A' for Active; 'I' for Inactive)
REMARK    1  A    between atoms: C_6  and  C_1 
REMARK    2  A    between atoms: C_7  and  C_5 
REMARK    3  A    between atoms: O_11  and  C_6 
ROOT
ATOM      1  C   UNL d   1      32.870  20.373 -21.800  0.00  0.00     0.167 A 
ATOM      2  C   UNL d   1      32.539  20.368 -22.511  0.00  0.00     0.047 A 
ATOM      3  N   UNL d   1      33.241  19.081 -21.965  0.00  0.00    -0.148 NA
ATOM      4  N   UNL d   1      33.224  19.724 -21.524  0.00  0.00    -0.143 NA
ATOM      5  C   UNL d   1      32.906  19.077 -22.683  0.00  0.00     0.105 A 
ENDROOT
BRANCH   5   6
ATOM      6  C   UNL d   1      32.823  18.513 -23.280  0.00  0.00     0.019 A 
ATOM      7  C   UNL d   1      32.548  17.753 -23.078  0.00  0.00     0.002 A 
ATOM      8  C   UNL d   1      32.462  17.182 -23.671  0.00  0.00     0.011 A 
ATOM      9  C   UNL d   1      32.651  17.372 -24.459  0.00  0.00     0.058 A 
ATOM     10  C   UNL d   1      32.922  18.131 -24.644  0.00  0.00     0.011 A 
ATOM     11 CL   UNL d   1      32.562  16.788 -25.060  0.00  0.00    -0.082 Cl
ATOM     12  C   UNL d   1      33.007  18.695 -24.057  0.00  0.00     0.002 A 
ENDBRANCH   5   6
BRANCH   1  13
ATOM     13  C   UNL d   1      32.849  21.028 -21.358  0.00  0.00     0.316 C 
ATOM     14  O   UNL d   1      32.951  20.981 -20.574  0.00  0.00    -0.257 OA
BRANCH  13  15
ATOM     15  O   UNL d   1      32.721  21.755 -21.723  0.00  0.00    -0.294 OA
ATOM     16  C   UNL d   1      32.563  22.440 -21.250  0.00  0.00     0.185 C 
ENDBRANCH  13  15
ENDBRANCH   1  13
TORSDOF 3
ENDMDL
MODEL 9
REMARK VINA RESULT:      -2.3      1.501      2.143
REMARK  3 active torsions:
REMARK  status: ('A' for Active; 'I' for Inactive)
REMARK    1  A    between atoms: C_6  and  C_1 
REMARK    2  A    between atoms: C_7  and  C_5 
REMARK    3  A    between atoms: O_11  and  C_6 
ROOT
ATOM      1  C   UNL d   1      32.456  17.627 -23.791  0.00  0.00     0.167 A 
ATOM      2  C   UNL d   1      32.130  18.322 -23.948  0.00  0.00     0.047 A 
ATOM      3  N   UNL d   1      33.208  18.198 -22.821  0.00  0.00    -0.148 NA
ATOM      4  N   UNL d   1      32.999  17.563 -23.223  0.00  0.00    -0.143 NA
ATOM      5  C   UNL d   1      32.879  18.901 -22.980  0.00  0.00     0.105 A 
ENDROOT
BRANCH   5   6
ATOM      6  C   UNL d   1      32.965  19.663 -22.675  0.00  0.00     0.019 A 
ATOM      7  C   UNL d   1      32.853  19.783 -21.859  0.00  0.00     0.002 A 
ATOM      8  C   UNL d   1      32.938  20.545 -21.545  0.00  0.00     0.011 A 
ATOM      9  C   UNL d   1      33.133  21.179 -22.048  0.00  0.00     0.058 A 
ATOM     10  C   UNL d   1      33.241  21.044 -22.856  0.00  0.00     0.011 A 
ATOM     11 CL   UNL d   1      33.218  21.953 -21.725  0.00  0.00    -0.082 Cl
ATOM     12  C   UNL d   1      33.157  20.290 -23.165  0.00  0.00     0.002 A 
ENDBRANCH   5   6
BRANCH   1  13
ATOM     13  C   UNL d   1      32.240  16.986 -24.202  0.00  0.00     0.316 C 
ATOM     14  O   UNL d   1      32.724  16.687 -24.753  0.00  0.00    -0.257 OA
BRANCH  13  15
ATOM     15  O   UNL d   1      31.509  16.639 -24.049  0.00  0.00    -0.294 OA
ATOM     16  C   UNL d   1      31.344  15.863 -24.346  0.00  0.00     0.185 C 
ENDBRANCH  13  15
ENDBRANCH   1  13
TORSDOF 3
ENDMDL
