MODEL 1
REMARK VINA RESULT:      -9.1      0.000      0.000
REMARK  5 active torsions:
REMARK  status: ('A' for Active; 'I' for Inactive)
REMARK    1  A    between atoms: C_12  and  C_4 
REMARK    2  A    between atoms: N_10  and  C_6 
REMARK    3  A    between atoms: C_11  and  C_9 
REMARK    4  A    between atoms: C_14  and  N_10 
REMARK    5  A    between atoms: C_15  and  C_14 
ROOT
ATOM      1  C   UNL d   1      52.610  33.851  53.735  0.00  0.00     0.167 A 
ATOM      2  N   UNL d   1      51.928  34.167  53.387  0.00  0.00    -0.195 N 
ATOM      3  N   UNL d   1      52.244  35.422  53.937  0.00  0.00    -0.163 NA
ATOM      4  C   UNL d   1      53.098  34.317  54.176  0.00  0.00     0.055 A 
ATOM      5  N   UNL d   1      52.793  33.057  53.632  0.00  0.00    -0.231 NA
ATOM      6  C   UNL d   1      51.446  33.680  52.945  0.00  0.00     0.167 A 
ATOM      7  C   UNL d   1      52.915  35.111  54.279  0.00  0.00     0.104 A 
ATOM      8  C   UNL d   1      51.628  32.882  52.840  0.00  0.00     0.054 A 
ATOM      9  C   UNL d   1      52.300  32.571  53.183  0.00  0.00     0.063 A 
ATOM     10  C   UNL d   1      53.399  35.592  54.721  0.00  0.00     0.023 C 
ENDROOT
BRANCH   6  11
ATOM     11  N   UNL d   1      50.742  34.005  52.587  0.00  0.00    -0.224 NA
BRANCH  11  12
ATOM     12  C   UNL d   1      50.354  34.080  51.844  0.00  0.00     0.120 C 
BRANCH  12  13
ATOM     13  C   UNL d   1      49.609  34.464  51.787  0.00  0.00     0.101 A 
ATOM     14  N   UNL d   1      49.296  34.866  52.458  0.00  0.00    -0.242 NA
ATOM     15  C   UNL d   1      48.536  35.257  52.396  0.00  0.00     0.099 A 
ATOM     16  C   UNL d   1      48.108  35.238  51.671  0.00  0.00     0.021 A 
ATOM     17  C   UNL d   1      48.433  34.826  50.991  0.00  0.00     0.003 A 
ATOM     18  C   UNL d   1      49.179  34.444  51.057  0.00  0.00     0.021 A 
ENDBRANCH  12  13
ENDBRANCH  11  12
ENDBRANCH   6  11
BRANCH   9  19
ATOM     19  C   UNL d   1      52.491  31.748  53.077  0.00  0.00     0.036 C 
ATOM     20  C   UNL d   1      52.676  30.934  52.976  0.00  0.00     0.006 C 
ATOM     21  C   UNL d   1      53.133  31.525  52.561  0.00  0.00     0.006 C 
ATOM     22  C   UNL d   1      52.037  31.161  53.489  0.00  0.00     0.006 C 
ENDBRANCH   9  19
BRANCH   4  23
ATOM     23  C   UNL d   1      53.773  34.005  54.520  0.00  0.00     0.004 A 
ATOM     24  C   UNL d   1      54.480  34.033  54.112  0.00  0.00     0.000 A 
ATOM     25  C   UNL d   1      55.163  33.718  54.460  0.00  0.00     0.000 A 
ATOM     26  C   UNL d   1      55.116  33.384  55.204  0.00  0.00     0.000 A 
ATOM     27  C   UNL d   1      54.400  33.362  55.602  0.00  0.00     0.000 A 
ATOM     28  C   UNL d   1      53.729  33.673  55.260  0.00  0.00     0.000 A 
ENDBRANCH   4  23
TORSDOF 5
ENDMDL
MODEL 2
REMARK VINA RESULT:      -8.1      1.391      4.103
REMARK  5 active torsions:
REMARK  status: ('A' for Active; 'I' for Inactive)
REMARK    1  A    between atoms: C_12  and  C_4 
REMARK    2  A    between atoms: N_10  and  C_6 
REMARK    3  A    between atoms: C_11  and  C_9 
REMARK    4  A    between atoms: C_14  and  N_10 
REMARK    5  A    between atoms: C_15  and  C_14 
ROOT
ATOM      1  C   UNL d   1      53.116  33.382  53.849  0.00  0.00     0.167 A 
ATOM      2  N   UNL d   1      53.273  32.583  53.702  0.00  0.00    -0.195 N 
ATOM      3  N   UNL d   1      54.426  32.676  54.501  0.00  0.00    -0.163 NA
ATOM      4  C   UNL d   1      53.608  33.818  54.315  0.00  0.00     0.055 A 
ATOM      5  N   UNL d   1      52.453  33.737  53.518  0.00  0.00    -0.231 NA
ATOM      6  C   UNL d   1      52.763  32.159  53.227  0.00  0.00     0.167 A 
ATOM      7  C   UNL d   1      54.271  33.463  54.645  0.00  0.00     0.104 A 
ATOM      8  C   UNL d   1      52.097  32.513  52.895  0.00  0.00     0.054 A 
ATOM      9  C   UNL d   1      51.942  33.300  53.039  0.00  0.00     0.063 A 
ATOM     10  C   UNL d   1      54.776  33.891  55.117  0.00  0.00     0.023 C 
ENDROOT
BRANCH   6  11
ATOM     11  N   UNL d   1      52.926  31.334  53.076  0.00  0.00    -0.224 NA
BRANCH  11  12
ATOM     12  C   UNL d   1      52.559  30.577  53.085  0.00  0.00     0.120 C 
BRANCH  12  13
ATOM     13  C   UNL d   1      52.878  29.952  53.549  0.00  0.00     0.101 A 
ATOM     14  N   UNL d   1      52.422  29.627  54.178  0.00  0.00    -0.242 NA
ATOM     15  C   UNL d   1      52.750  28.990  54.648  0.00  0.00     0.099 A 
ATOM     16  C   UNL d   1      53.520  28.695  54.482  0.00  0.00     0.021 A 
ATOM     17  C   UNL d   1      53.980  29.031  53.838  0.00  0.00     0.003 A 
ATOM     18  C   UNL d   1      53.653  29.655  53.380  0.00  0.00     0.021 A 
ENDBRANCH  12  13
ENDBRANCH  11  12
ENDBRANCH   6  11
BRANCH   9  19
ATOM     19  C   UNL d   1      51.255  33.670  52.697  0.00  0.00     0.036 C 
ATOM     20  C   UNL d   1      50.573  34.034  52.364  0.00  0.00     0.006 C 
ATOM     21  C   UNL d   1      51.314  34.056  51.940  0.00  0.00     0.006 C 
ATOM     22  C   UNL d   1      50.519  33.648  53.120  0.00  0.00     0.006 C 
ENDBRANCH   9  19
BRANCH   4  23
ATOM     23  C   UNL d   1      53.453  34.609  54.460  0.00  0.00     0.004 A 
ATOM     24  C   UNL d   1      53.723  35.174  53.936  0.00  0.00     0.000 A 
ATOM     25  C   UNL d   1      53.566  35.974  54.083  0.00  0.00     0.000 A 
ATOM     26  C   UNL d   1      53.143  36.184  54.750  0.00  0.00     0.000 A 
ATOM     27  C   UNL d   1      52.877  35.607  55.268  0.00  0.00     0.000 A 
ATOM     28  C   UNL d   1      53.032  34.820  55.123  0.00  0.00     0.000 A 
ENDBRANCH   4  23
TORSDOF 5
ENDMDL
MODEL 3
REMARK VINA RESULT:      -8.0      0.967      2.506
REMARK  5 active torsions:
REMARK  status: ('A' for Active; 'I' for Inactive)
REMARK    1  A    between atoms: C_12  and  C_4 
REMARK    2  A    between atoms: N_10  and  C_6 
REMARK    3  A    between atoms: C_11  and  C_9 
REMARK    4  A    between atoms: C_14  and  N_10 
REMARK    5  A    between atoms: C_15  and  C_14 
ROOT
ATOM      1  C   UNL d   1      52.394  33.385  53.323  0.00  0.00     0.167 A 
ATOM      2  N   UNL d   1      51.664  33.486  52.945  0.00  0.00    -0.195 N 
ATOM      3  N   UNL d   1      51.696  32.135  52.554  0.00  0.00    -0.163 NA
ATOM      4  C   UNL d   1      52.765  32.670  53.314  0.00  0.00     0.055 A 
ATOM      5  N   UNL d   1      52.745  34.019  53.711  0.00  0.00    -0.231 NA
ATOM      6  C   UNL d   1      51.304  34.217  52.965  0.00  0.00     0.167 A 
ATOM      7  C   UNL d   1      52.414  32.037  52.926  0.00  0.00     0.104 A 
ATOM      8  C   UNL d   1      51.655  34.854  53.354  0.00  0.00     0.054 A 
ATOM      9  C   UNL d   1      52.373  34.755  53.726  0.00  0.00     0.063 A 
ATOM     10  C   UNL d   1      52.778  31.310  52.910  0.00  0.00     0.023 C 
ENDROOT
BRANCH   6  11
ATOM     11  N   UNL d   1      50.551  34.320  52.575  0.00  0.00    -0.224 NA
BRANCH  11  12
ATOM     12  C   UNL d   1      49.775  34.617  52.707  0.00  0.00     0.120 C 
BRANCH  12  13
ATOM     13  C   UNL d   1      49.237  34.708  52.067  0.00  0.00     0.101 A 
ATOM     14  N   UNL d   1      49.415  34.360  51.321  0.00  0.00    -0.242 NA
ATOM     15  C   UNL d   1      48.865  34.455  50.672  0.00  0.00     0.099 A 
ATOM     16  C   UNL d   1      48.153  34.892  50.781  0.00  0.00     0.021 A 
ATOM     17  C   UNL d   1      47.978  35.245  51.545  0.00  0.00     0.003 A 
ATOM     18  C   UNL d   1      48.521  35.148  52.179  0.00  0.00     0.021 A 
ENDBRANCH  12  13
ENDBRANCH  11  12
ENDBRANCH   6  11
BRANCH   9  19
ATOM     19  C   UNL d   1      52.739  35.410  54.129  0.00  0.00     0.036 C 
ATOM     20  C   UNL d   1      53.104  36.059  54.522  0.00  0.00     0.006 C 
ATOM     21  C   UNL d   1      52.522  35.589  54.934  0.00  0.00     0.006 C 
ATOM     22  C   UNL d   1      53.318  35.877  53.720  0.00  0.00     0.006 C 
ENDBRANCH   9  19
BRANCH   4  23
ATOM     23  C   UNL d   1      53.487  32.571  53.688  0.00  0.00     0.004 A 
ATOM     24  C   UNL d   1      54.177  32.699  53.269  0.00  0.00     0.000 A 
ATOM     25  C   UNL d   1      54.907  32.599  53.647  0.00  0.00     0.000 A 
ATOM     26  C   UNL d   1      54.925  32.373  54.432  0.00  0.00     0.000 A 
ATOM     27  C   UNL d   1      54.225  32.248  54.841  0.00  0.00     0.000 A 
ATOM     28  C   UNL d   1      53.507  32.347  54.469  0.00  0.00     0.000 A 
ENDBRANCH   4  23
TORSDOF 5
ENDMDL
MODEL 4
REMARK VINA RESULT:      -6.6      1.389      3.307
REMARK  5 active torsions:
REMARK  status: ('A' for Active; 'I' for Inactive)
REMARK    1  A    between atoms: C_12  and  C_4 
REMARK    2  A    between atoms: N_10  and  C_6 
REMARK    3  A    between atoms: C_11  and  C_9 
REMARK    4  A    between atoms: C_14  and  N_10 
REMARK    5  A    between atoms: C_15  and  C_14 
ROOT
ATOM      1  C   UNL d   1      52.991  31.541  53.462  0.00  0.00     0.167 A 
ATOM      2  N   UNL d   1      52.545  32.089  53.029  0.00  0.00    -0.195 N 
ATOM      3  N   UNL d   1      51.886  31.025  52.388  0.00  0.00    -0.163 NA
ATOM      4  C   UNL d   1      52.884  30.750  53.356  0.00  0.00     0.055 A 
ATOM      5  N   UNL d   1      53.549  31.805  54.004  0.00  0.00    -0.231 NA
ATOM      6  C   UNL d   1      52.668  32.885  53.150  0.00  0.00     0.167 A 
ATOM      7  C   UNL d   1      52.325  30.486  52.813  0.00  0.00     0.104 A 
ATOM      8  C   UNL d   1      53.228  33.152  53.694  0.00  0.00     0.054 A 
ATOM      9  C   UNL d   1      53.667  32.613  54.120  0.00  0.00     0.063 A 
ATOM     10  C   UNL d   1      52.207  29.691  52.697  0.00  0.00     0.023 C 
ENDROOT
BRANCH   6  11
ATOM     11  N   UNL d   1      52.207  33.450  52.705  0.00  0.00    -0.224 NA
BRANCH  11  12
ATOM     12  C   UNL d   1      51.830  34.198  52.778  0.00  0.00     0.120 C 
BRANCH  12  13
ATOM     13  C   UNL d   1      51.058  34.321  52.467  0.00  0.00     0.101 A 
ATOM     14  N   UNL d   1      50.929  34.256  51.637  0.00  0.00    -0.242 NA
ATOM     15  C   UNL d   1      50.141  34.382  51.325  0.00  0.00     0.099 A 
ATOM     16  C   UNL d   1      49.505  34.569  51.843  0.00  0.00     0.021 A 
ATOM     17  C   UNL d   1      49.644  34.634  52.689  0.00  0.00     0.003 A 
ATOM     18  C   UNL d   1      50.419  34.509  52.990  0.00  0.00     0.021 A 
ENDBRANCH  12  13
ENDBRANCH  11  12
ENDBRANCH   6  11
BRANCH   9  19
ATOM     19  C   UNL d   1      54.247  32.884  54.682  0.00  0.00     0.036 C 
ATOM     20  C   UNL d   1      54.823  33.153  55.233  0.00  0.00     0.006 C 
ATOM     21  C   UNL d   1      54.055  32.903  55.513  0.00  0.00     0.006 C 
ATOM     22  C   UNL d   1      55.009  33.133  54.404  0.00  0.00     0.006 C 
ENDBRANCH   9  19
BRANCH   4  23
ATOM     23  C   UNL d   1      53.325  30.208  53.783  0.00  0.00     0.004 A 
ATOM     24  C   UNL d   1      53.030  29.916  54.487  0.00  0.00     0.000 A 
ATOM     25  C   UNL d   1      53.476  29.369  54.919  0.00  0.00     0.000 A 
ATOM     26  C   UNL d   1      54.205  29.131  54.634  0.00  0.00     0.000 A 
ATOM     27  C   UNL d   1      54.490  29.432  53.927  0.00  0.00     0.000 A 
ATOM     28  C   UNL d   1      54.050  29.971  53.502  0.00  0.00     0.000 A 
ENDBRANCH   4  23
TORSDOF 5
ENDMDL
