MODEL 1
REMARK VINA RESULT:      57.5      0.000      0.000
REMARK  6 active torsions:
REMARK  status: ('A' for Active; 'I' for Inactive)
REMARK    1  A    between atoms: N_2  and  S_1 
REMARK    2  A    between atoms: C_3  and  S_1 
REMARK    3  A    between atoms: C_4  and  C_9 
REMARK    4  A    between atoms: O_12  and  C_4 
REMARK    5  A    between atoms: C_19  and  O_12 
REMARK    6  A    between atoms: C_18  and  C_19 
ROOT
ATOM      1  C   UNL d   1      59.190  49.523  50.864  0.00  0.00     0.104 A 
ATOM      2  C   UNL d   1      59.829  49.328  50.367  0.00  0.00     0.018 A 
ATOM      3  C   UNL d   1      60.595  49.320  50.678  0.00  0.00     0.064 A 
ATOM      4  C   UNL d   1      59.313  49.708  51.658  0.00  0.00     0.013 A 
ATOM      5  C   UNL d   1      60.722  49.505  51.477  0.00  0.00     0.005 A 
ATOM      6  C   UNL d   1      60.079  49.699  51.970  0.00  0.00     0.001 A 
ENDROOT
BRANCH   3   7
ATOM      7  C   UNL d   1      61.243  49.127  50.197  0.00  0.00     0.300 C 
ATOM      8  O   UNL d   1      61.597  49.703  49.722  0.00  0.00    -0.259 OA
BRANCH   7   9
ATOM      9  O   UNL d   1      61.531  48.352  50.197  0.00  0.00    -0.271 OA
BRANCH   9  10
ATOM     10  C   UNL d   1      61.193  47.791  50.695  0.00  0.00     0.126 C 
BRANCH  10  11
ATOM     11  C   UNL d   1      61.203  47.002  50.482  0.00  0.00     0.027 A 
ATOM     12  C   UNL d   1      61.662  46.761  49.855  0.00  0.00     0.028 A 
ATOM     13  C   UNL d   1      61.672  45.967  49.642  0.00  0.00     0.119 A 
ATOM     14  O   UNL d   1      62.075  45.560  49.040  0.00  0.00    -0.300 OA
ATOM     15  C   UNL d   1      61.224  45.419  50.056  0.00  0.00     0.119 A 
ATOM     16  C   UNL d   1      61.867  44.764  49.096  0.00  0.00     0.304 A 
ATOM     17  O   UNL d   1      61.343  44.677  49.721  0.00  0.00    -0.300 OA
ATOM     18  C   UNL d   1      60.760  45.665  50.691  0.00  0.00     0.026 A 
ATOM     19  C   UNL d   1      60.751  46.459  50.904  0.00  0.00     0.004 A 
ENDBRANCH  10  11
ENDBRANCH   9  10
ENDBRANCH   7   9
ENDBRANCH   3   7
BRANCH   1  20
ATOM     20  S   UNL d   1      58.424  49.532  50.553  0.00  0.00     0.271 S 
ATOM     21  O   UNL d   1      58.083  49.372  51.294  0.00  0.00    -0.200 OA
ATOM     22  O   UNL d   1      58.763  49.692  49.810  0.00  0.00    -0.200 OA
BRANCH  20  23
ATOM     23  N   UNL d   1      57.649  49.537  50.253  0.00  0.00    -0.229 N 
ATOM     24  C   UNL d   1      57.011  49.699  50.764  0.00  0.00     0.092 A 
ATOM     25  C   UNL d   1      56.246  49.702  50.455  0.00  0.00     0.020 A 
ATOM     26  C   UNL d   1      56.099  49.548  49.654  0.00  0.00     0.003 A 
ATOM     27  C   UNL d   1      56.737  49.389  49.158  0.00  0.00     0.020 A 
ATOM     28  C   UNL d   1      57.512  49.383  49.457  0.00  0.00     0.092 A 
ENDBRANCH  20  23
ENDBRANCH   1  20
TORSDOF 6
ENDMDL
