MODEL 1
REMARK VINA RESULT:      23.4      0.000      0.000
REMARK  3 active torsions:
REMARK  status: ('A' for Active; 'I' for Inactive)
REMARK    1  A    between atoms: N_4  and  C_1 
REMARK    2  A    between atoms: C_9  and  C_3 
REMARK    3  A    between atoms: C_7  and  N_4 
ROOT
ATOM      1  C   UNL d   1      14.659  12.767  -0.616  0.00  0.00     0.196 A 
ATOM      2  N   UNL d   1      14.463  13.010  -1.404  0.00  0.00    -0.221 NA
ATOM      3  C   UNL d   1      14.063  12.401  -1.727  0.00  0.00     0.090 A 
ATOM      4  S   UNL d   1      14.381  12.029  -0.473  0.00  0.00    -0.046 SA
ATOM      5  C   UNL d   1      13.998  11.780  -1.173  0.00  0.00     0.058 A 
ENDROOT
BRANCH   1   6
ATOM      6  N   UNL d   1      15.094  13.213  -0.014  0.00  0.00    -0.202 NA
BRANCH   6   7
ATOM      7  C   UNL d   1      15.142  14.045  -0.070  0.00  0.00     0.165 A 
ATOM      8  N   UNL d   1      15.941  14.286  -0.080  0.00  0.00    -0.225 NA
ATOM      9  C   UNL d   1      16.227  15.079  -0.131  0.00  0.00     0.101 A 
ATOM     10  C   UNL d   1      15.818  15.775  -0.182  0.00  0.00     0.021 A 
ATOM     11  C   UNL d   1      14.988  15.882  -0.197  0.00  0.00     0.002 A 
ATOM     12  C   UNL d   1      14.389  15.328  -0.164  0.00  0.00     0.003 A 
ATOM     13  C   UNL d   1      14.461  14.491  -0.107  0.00  0.00     0.039 A 
ENDBRANCH   6   7
ENDBRANCH   1   6
BRANCH   3  14
ATOM     14  C   UNL d   1      13.748  12.353  -2.483  0.00  0.00     0.018 A 
ATOM     15  C   UNL d   1      14.082  12.793  -3.087  0.00  0.00     0.002 A 
ATOM     16  C   UNL d   1      13.774  12.751  -3.843  0.00  0.00     0.007 A 
ATOM     17  C   UNL d   1      13.114  12.257  -4.010  0.00  0.00     0.035 A 
ATOM     18  C   UNL d   1      12.776  11.812  -3.395  0.00  0.00     0.007 A 
ATOM     19 BR   UNL d   1      12.769  12.182  -4.756  0.00  0.00    -0.049 Br
ATOM     20  C   UNL d   1      13.091  11.860  -2.639  0.00  0.00     0.002 A 
ENDBRANCH   3  14
TORSDOF 3
ENDMDL
