MODEL 1
REMARK VINA RESULT:      19.4      0.000      0.000
REMARK  2 active torsions:
REMARK  status: ('A' for Active; 'I' for Inactive)
REMARK       I    between atoms: C_9  and  N_1 
REMARK    1  A    between atoms: C_5  and  C_3 
REMARK    2  A    between atoms: C_8  and  C_4 
ROOT
ATOM      1  N   UNL d   1      44.842 -15.146  44.605  0.00  0.00    -0.193 N 
ATOM      2  N   UNL d   1      44.918 -15.951  44.597  0.00  0.00    -0.162 NA
ATOM      3  C   UNL d   1      45.579 -14.818  44.427  0.00  0.00     0.110 A 
ATOM      4  C   UNL d   1      45.702 -16.141  44.414  0.00  0.00     0.109 A 
ATOM      5  C   UNL d   1      46.092 -15.429  44.313  0.00  0.00     0.043 A 
ATOM      6  C   UNL d   1      44.086 -14.609  44.777  0.00  0.00     0.281 C 
ATOM      7  O   UNL d   1      44.186 -13.814  44.744  0.00  0.00    -0.265 OA
ATOM      8  C   UNL d   1      43.349 -14.937  44.955  0.00  0.00     0.068 C 
ENDROOT
BRANCH   3   9
ATOM      9  C   UNL d   1      45.733 -14.026  44.381  0.00  0.00     0.118 A 
ATOM     10  O   UNL d   1      45.506 -13.537  43.757  0.00  0.00    -0.306 OA
ATOM     11  C   UNL d   1      45.776 -12.768  43.934  0.00  0.00     0.100 A 
ATOM     12  C   UNL d   1      45.661 -12.100  43.443  0.00  0.00     0.027 C 
ATOM     13  C   UNL d   1      46.168 -12.774  44.660  0.00  0.00     0.027 A 
ATOM     14  C   UNL d   1      46.139 -13.550  44.931  0.00  0.00     0.028 A 
ENDBRANCH   3   9
BRANCH   4  15
ATOM     15  C   UNL d   1      46.023 -16.899  44.348  0.00  0.00     0.049 A 
ATOM     16  S   UNL d   1      46.134 -17.416  44.953  0.00  0.00    -0.085 SA
ATOM     17  C   UNL d   1      46.459 -18.090  44.655  0.00  0.00     0.035 A 
ATOM     18  C   UNL d   1      46.550 -17.980  43.841  0.00  0.00     0.007 A 
ATOM     19  C   UNL d   1      46.278 -17.242  43.657  0.00  0.00     0.009 A 
ENDBRANCH   4  15
TORSDOF 2
ENDMDL
MODEL 2
REMARK VINA RESULT:      20.4      2.277      4.639
REMARK  2 active torsions:
REMARK  status: ('A' for Active; 'I' for Inactive)
REMARK       I    between atoms: C_9  and  N_1 
REMARK    1  A    between atoms: C_5  and  C_3 
REMARK    2  A    between atoms: C_8  and  C_4 
ROOT
ATOM      1  N   UNL d   1      46.215 -17.389  42.945  0.00  0.00    -0.193 N 
ATOM      2  N   UNL d   1      46.053 -16.607  43.075  0.00  0.00    -0.162 NA
ATOM      3  C   UNL d   1      46.173 -17.782  43.671  0.00  0.00     0.110 A 
ATOM      4  C   UNL d   1      45.907 -16.497  43.881  0.00  0.00     0.109 A 
ATOM      5  C   UNL d   1      45.986 -17.233  44.230  0.00  0.00     0.043 A 
ATOM      6  C   UNL d   1      46.421 -17.843  42.145  0.00  0.00     0.281 C 
ATOM      7  O   UNL d   1      46.557 -18.631  42.194  0.00  0.00    -0.265 OA
ATOM      8  C   UNL d   1      46.463 -17.450  41.419  0.00  0.00     0.068 C 
ENDROOT
BRANCH   3   9
ATOM      9  C   UNL d   1      46.300 -18.573  43.776  0.00  0.00     0.118 A 
ATOM     10  O   UNL d   1      46.404 -18.941  44.507  0.00  0.00    -0.306 OA
ATOM     11  C   UNL d   1      46.517 -19.754  44.361  0.00  0.00     0.100 A 
ATOM     12  C   UNL d   1      46.644 -20.329  44.955  0.00  0.00     0.027 C 
ATOM     13  C   UNL d   1      46.485 -19.895  43.548  0.00  0.00     0.027 A 
ATOM     14  C   UNL d   1      46.351 -19.166  43.192  0.00  0.00     0.028 A 
ENDBRANCH   3   9
BRANCH   4  15
ATOM     15  C   UNL d   1      45.720 -15.785  44.256  0.00  0.00     0.049 A 
ATOM     16  S   UNL d   1      45.047 -15.635  44.669  0.00  0.00    -0.085 SA
ATOM     17  C   UNL d   1      45.081 -14.879  44.944  0.00  0.00     0.035 A 
ATOM     18  C   UNL d   1      45.798 -14.557  44.691  0.00  0.00     0.007 A 
ATOM     19  C   UNL d   1      46.190 -15.122  44.265  0.00  0.00     0.009 A 
ENDBRANCH   4  15
TORSDOF 2
ENDMDL
