MODEL 1
REMARK VINA RESULT:      63.4      0.000      0.000
REMARK  6 active torsions:
REMARK  status: ('A' for Active; 'I' for Inactive)
REMARK    1  A    between atoms: C_9  and  N_1 
REMARK    2  A    between atoms: C_2  and  C_3 
REMARK    3  A    between atoms: C_4  and  C_6 
REMARK    4  A    between atoms: C_7  and  C_5 
REMARK       I    between atoms: C_6  and  N_8 
REMARK    5  A    between atoms: N_8  and  N_12 
REMARK    6  A    between atoms: N_12  and  C_17 
ROOT
ATOM      1  C   UNL d   1     -51.208  25.327  33.551  0.00  0.00     0.005 A 
ATOM      2  C   UNL d   1     -51.032  26.078  33.842  0.00  0.00     0.059 A 
ATOM      3  C   UNL d   1     -50.580  24.852  33.307  0.00  0.00     0.000 A 
ATOM      4  C   UNL d   1     -50.267  26.341  33.887  0.00  0.00     0.005 A 
ATOM      5  C   UNL d   1     -49.798  25.121  33.353  0.00  0.00     0.000 A 
ATOM      6  C   UNL d   1     -49.660  25.859  33.642  0.00  0.00     0.000 A 
ENDROOT
BRANCH   2   7
ATOM      7  C   UNL d   1     -51.667  26.570  34.093  0.00  0.00     0.297 C 
ATOM      8  N   UNL d   1     -51.714  26.774  34.891  0.00  0.00    -0.106 NA
ATOM      9  O   UNL d   1     -52.231  26.841  33.547  0.00  0.00    -0.264 OA
BRANCH   8  10
ATOM     10  N   UNL d   1     -51.152  26.503  35.436  0.00  0.00    -0.145 NA
BRANCH  10  11
ATOM     11  C   UNL d   1     -51.308  26.540  36.235  0.00  0.00     0.103 A 
ATOM     12  C   UNL d   1     -52.051  26.354  36.514  0.00  0.00     0.023 A 
ATOM     13  C   UNL d   1     -52.216  26.389  37.325  0.00  0.00     0.025 A 
ATOM     14  C   UNL d   1     -51.628  26.613  37.846  0.00  0.00     0.127 A 
ATOM     15  C   UNL d   1     -50.877  26.802  37.574  0.00  0.00     0.025 A 
ATOM     16  C   UNL d   1     -50.712  26.767  36.763  0.00  0.00     0.023 A 
BRANCH  14  17
ATOM     17  N   UNL d   1     -51.804  26.645  38.653  0.00  0.00    -0.114 N 
ATOM     18  O   UNL d   1     -51.695  27.318  39.089  0.00  0.00    -0.532 OA
ATOM     19  O   UNL d   1     -52.105  25.965  39.040  0.00  0.00    -0.532 OA
ENDBRANCH  14  17
ENDBRANCH  10  11
ENDBRANCH   8  10
ENDBRANCH   2   7
BRANCH   1  20
ATOM     20  C   UNL d   1     -51.972  25.065  33.507  0.00  0.00     0.006 A 
ATOM     21  C   UNL d   1     -52.140  24.274  33.618  0.00  0.00     0.064 A 
ATOM     22  C   UNL d   1     -52.921  24.006  33.573  0.00  0.00     0.006 A 
ATOM     23  C   UNL d   1     -53.525  24.531  33.416  0.00  0.00     0.000 A 
ATOM     24  C   UNL d   1     -53.371  25.294  33.307  0.00  0.00     0.000 A 
ATOM     25  C   UNL d   1     -52.594  25.584  33.349  0.00  0.00     0.000 A 
BRANCH  21  26
ATOM     26  C   UNL d   1     -51.529  23.728  33.780  0.00  0.00     0.211 C 
ATOM     27  O   UNL d   1     -50.838  23.721  33.306  0.00  0.00    -0.644 OA
ATOM     28  O   UNL d   1     -51.595  23.190  34.404  0.00  0.00    -0.644 OA
ENDBRANCH  21  26
ENDBRANCH   1  20
TORSDOF 6
ENDMDL
