MODEL 1
REMARK VINA RESULT:      31.0      0.000      0.000
REMARK  5 active torsions:
REMARK  status: ('A' for Active; 'I' for Inactive)
REMARK    1  A    between atoms: N_10  and  C_3 
REMARK    2  A    between atoms: N_11  and  C_6 
REMARK    3  A    between atoms: C_12  and  N_10 
REMARK    4  A    between atoms: C_13  and  N_11 
REMARK    5  A    between atoms: C_21  and  C_13 
ROOT
ATOM      1  C   UNL d   1      46.263 -18.966  43.844  0.00  0.00     0.187 A 
ATOM      2  C   UNL d   1      46.438 -18.870  43.082  0.00  0.00     0.094 A 
ATOM      3  C   UNL d   1      46.464 -18.145  42.769  0.00  0.00     0.185 A 
ATOM      4  N   UNL d   1      46.113 -18.345  44.297  0.00  0.00    -0.040 NA
ATOM      5  N   UNL d   1      46.313 -17.525  43.229  0.00  0.00    -0.040 NA
ATOM      6  C   UNL d   1      46.138 -17.625  43.991  0.00  0.00     0.753 A 
ATOM      7  N   UNL d   1      46.390 -20.322  43.696  0.00  0.00    -0.162 NA
ATOM      8  N   UNL d   1      46.238 -19.691  44.158  0.00  0.00    -0.208 N 
ATOM      9  C   UNL d   1      46.565 -20.222  42.934  0.00  0.00     0.127 A 
ATOM     10  C   UNL d   1      46.063 -19.790  44.915  0.00  0.00     0.123 C 
ENDROOT
BRANCH   3  11
ATOM     11  N   UNL d   1      46.645 -18.033  41.977  0.00  0.00    -0.226 NA
BRANCH  11  12
ATOM     12  C   UNL d   1      46.052 -18.054  41.409  0.00  0.00     0.083 A 
ATOM     13  C   UNL d   1      45.253 -18.123  41.629  0.00  0.00     0.021 A 
ATOM     14  C   UNL d   1      44.656 -18.144  41.060  0.00  0.00     0.031 A 
ATOM     15  C   UNL d   1      44.859 -18.094  40.254  0.00  0.00     0.140 A 
ATOM     16  C   UNL d   1      45.647 -18.026  40.031  0.00  0.00     0.031 A 
ATOM     17  F   UNL d   1      44.272 -18.114  39.679  0.00  0.00    -0.204 F 
ATOM     18  C   UNL d   1      46.245 -18.005  40.609  0.00  0.00     0.021 A 
ENDBRANCH  11  12
ENDBRANCH   3  11
BRANCH   6  19
ATOM     19  N   UNL d   1      45.979 -16.963  44.467  0.00  0.00    -0.058 NA
BRANCH  19  20
ATOM     20  C   UNL d   1      45.700 -16.261  44.119  0.00  0.00     0.118 C 
BRANCH  20  21
ATOM     21  C   UNL d   1      45.553 -15.493  44.385  0.00  0.00     0.020 A 
ATOM     22  C   UNL d   1      44.811 -15.286  44.691  0.00  0.00     0.002 A 
ATOM     23  C   UNL d   1      44.678 -14.508  44.955  0.00  0.00     0.000 A 
ATOM     24  C   UNL d   1      45.277 -13.948  44.914  0.00  0.00     0.000 A 
ATOM     25  C   UNL d   1      46.013 -14.152  44.612  0.00  0.00     0.000 A 
ATOM     26  C   UNL d   1      46.150 -14.923  44.348  0.00  0.00     0.002 A 
ENDBRANCH  20  21
ENDBRANCH  19  20
ENDBRANCH   6  19
TORSDOF 5
ENDMDL
