MODEL 1
REMARK VINA RESULT:      -5.6      0.000      0.000
REMARK  1 active torsions:
REMARK  status: ('A' for Active; 'I' for Inactive)
REMARK    1  A    between atoms: C_6  and  C_1 
ROOT
ATOM      1  C   UNL d   1     -41.453-122.723 -52.850  0.00  0.00     0.162 A 
ATOM      2  N   UNL d   1     -41.322-122.081 -52.365  0.00  0.00    -0.225 NA
ATOM      3  N   UNL d   1     -41.485-123.398 -52.380  0.00  0.00    -0.225 NA
ATOM      4  C   UNL d   1     -41.272-122.360 -51.582  0.00  0.00     0.101 A 
ATOM      5  C   UNL d   1     -41.373-123.172 -51.592  0.00  0.00     0.101 A 
ATOM      6  C   UNL d   1     -41.147-121.958 -50.875  0.00  0.00     0.021 A 
ATOM      7  C   UNL d   1     -41.350-123.602 -50.893  0.00  0.00     0.021 A 
ATOM      8  C   UNL d   1     -41.225-123.207 -50.181  0.00  0.00     0.002 A 
ATOM      9  C   UNL d   1     -41.123-122.379 -50.171  0.00  0.00     0.002 A 
ENDROOT
BRANCH   1  10
ATOM     10  C   UNL d   1     -41.539-122.703 -53.673  0.00  0.00     0.037 A 
ATOM     11  C   UNL d   1     -42.035-122.146 -54.032  0.00  0.00     0.024 A 
ATOM     12  C   UNL d   1     -42.121-122.126 -54.850  0.00  0.00     0.103 A 
ATOM     13  N   UNL d   1     -42.626-121.559 -55.198  0.00  0.00    -0.148 N 
ATOM     14  C   UNL d   1     -41.715-122.659 -55.320  0.00  0.00     0.021 A 
ATOM     15  C   UNL d   1     -41.210-123.227 -54.972  0.00  0.00     0.002 A 
ATOM     16  C   UNL d   1     -41.123-123.247 -54.139  0.00  0.00     0.003 A 
ENDBRANCH   1  10
TORSDOF 1
ENDMDL
MODEL 2
REMARK VINA RESULT:      -5.0      1.767      4.328
REMARK  1 active torsions:
REMARK  status: ('A' for Active; 'I' for Inactive)
REMARK    1  A    between atoms: C_6  and  C_1 
ROOT
ATOM      1  C   UNL d   1     -41.862-123.105 -50.497  0.00  0.00     0.162 A 
ATOM      2  N   UNL d   1     -41.779-122.388 -50.875  0.00  0.00    -0.225 NA
ATOM      3  N   UNL d   1     -41.691-123.703 -51.037  0.00  0.00    -0.225 NA
ATOM      4  C   UNL d   1     -41.552-122.540 -51.661  0.00  0.00     0.101 A 
ATOM      5  C   UNL d   1     -41.498-123.351 -51.761  0.00  0.00     0.101 A 
ATOM      6  C   UNL d   1     -41.393-122.026 -52.284  0.00  0.00     0.021 A 
ATOM      7  C   UNL d   1     -41.283-123.667 -52.487  0.00  0.00     0.021 A 
ATOM      8  C   UNL d   1     -41.123-123.158 -53.116  0.00  0.00     0.002 A 
ATOM      9  C   UNL d   1     -41.178-122.332 -53.014  0.00  0.00     0.002 A 
ENDROOT
BRANCH   1  10
ATOM     10  C   UNL d   1     -42.081-123.218 -49.707  0.00  0.00     0.037 A 
ATOM     11  C   UNL d   1     -41.508-123.249 -49.110  0.00  0.00     0.024 A 
ATOM     12  C   UNL d   1     -41.726-123.361 -48.325  0.00  0.00     0.103 A 
ATOM     13  N   UNL d   1     -41.136-123.390 -47.734  0.00  0.00    -0.148 N 
ATOM     14  C   UNL d   1     -42.515-123.443 -48.123  0.00  0.00     0.021 A 
ATOM     15  C   UNL d   1     -43.105-123.413 -48.714  0.00  0.00     0.002 A 
ATOM     16  C   UNL d   1     -42.883-123.299 -49.514  0.00  0.00     0.003 A 
ENDBRANCH   1  10
TORSDOF 1
ENDMDL
MODEL 3
REMARK VINA RESULT:      -4.9      1.855      3.098
REMARK  1 active torsions:
REMARK  status: ('A' for Active; 'I' for Inactive)
REMARK    1  A    between atoms: C_6  and  C_1 
ROOT
ATOM      1  C   UNL d   1     -41.833-123.003 -50.067  0.00  0.00     0.162 A 
ATOM      2  N   UNL d   1     -41.354-123.047 -49.409  0.00  0.00    -0.225 NA
ATOM      3  N   UNL d   1     -42.595-123.224 -49.848  0.00  0.00    -0.225 NA
ATOM      4  C   UNL d   1     -41.824-123.300 -48.771  0.00  0.00     0.101 A 
ATOM      5  C   UNL d   1     -42.590-123.410 -49.041  0.00  0.00     0.101 A 
ATOM      6  C   UNL d   1     -41.632-123.439 -47.982  0.00  0.00     0.021 A 
ATOM      7  C   UNL d   1     -43.180-123.660 -48.530  0.00  0.00     0.021 A 
ATOM      8  C   UNL d   1     -42.994-123.801 -47.739  0.00  0.00     0.002 A 
ATOM      9  C   UNL d   1     -42.215-123.690 -47.463  0.00  0.00     0.002 A 
ENDROOT
BRANCH   1  10
ATOM     10  C   UNL d   1     -41.597-122.774 -50.827  0.00  0.00     0.037 A 
ATOM     11  C   UNL d   1     -41.481-123.339 -51.421  0.00  0.00     0.024 A 
ATOM     12  C   UNL d   1     -41.247-123.112 -52.176  0.00  0.00     0.103 A 
ATOM     13  N   UNL d   1     -41.133-123.694 -52.765  0.00  0.00    -0.148 N 
ATOM     14  C   UNL d   1     -41.125-122.321 -52.350  0.00  0.00     0.021 A 
ATOM     15  C   UNL d   1     -41.238-121.739 -51.761  0.00  0.00     0.002 A 
ATOM     16  C   UNL d   1     -41.477-121.971 -50.992  0.00  0.00     0.003 A 
ENDBRANCH   1  10
TORSDOF 1
ENDMDL
MODEL 4
REMARK VINA RESULT:      -3.8      1.301      1.904
REMARK  1 active torsions:
REMARK  status: ('A' for Active; 'I' for Inactive)
REMARK    1  A    between atoms: C_6  and  C_1 
ROOT
ATOM      1  C   UNL d   1     -41.807-122.799 -51.354  0.00  0.00     0.162 A 
ATOM      2  N   UNL d   1     -42.247-122.321 -50.862  0.00  0.00    -0.225 NA
ATOM      3  N   UNL d   1     -41.531-123.438 -50.914  0.00  0.00    -0.225 NA
ATOM      4  C   UNL d   1     -42.244-122.666 -50.104  0.00  0.00     0.101 A 
ATOM      5  C   UNL d   1     -41.803-123.355 -50.137  0.00  0.00     0.101 A 
ATOM      6  C   UNL d   1     -42.596-122.423 -49.401  0.00  0.00     0.021 A 
ATOM      7  C   UNL d   1     -41.702-123.817 -49.466  0.00  0.00     0.021 A 
ATOM      8  C   UNL d   1     -42.051-123.580 -48.758  0.00  0.00     0.002 A 
ATOM      9  C   UNL d   1     -42.501-122.878 -48.725  0.00  0.00     0.002 A 
ENDROOT
BRANCH   1  10
ATOM     10  C   UNL d   1     -41.662-122.668 -52.159  0.00  0.00     0.037 A 
ATOM     11  C   UNL d   1     -41.476-123.299 -52.662  0.00  0.00     0.024 A 
ATOM     12  C   UNL d   1     -41.332-123.168 -53.462  0.00  0.00     0.103 A 
ATOM     13  N   UNL d   1     -41.145-123.815 -53.957  0.00  0.00    -0.148 N 
ATOM     14  C   UNL d   1     -41.371-122.411 -53.770  0.00  0.00     0.021 A 
ATOM     15  C   UNL d   1     -41.558-121.765 -53.274  0.00  0.00     0.002 A 
ATOM     16  C   UNL d   1     -41.705-121.897 -52.460  0.00  0.00     0.003 A 
ENDBRANCH   1  10
TORSDOF 1
ENDMDL
MODEL 5
REMARK VINA RESULT:      -2.9      1.004      3.846
REMARK  1 active torsions:
REMARK  status: ('A' for Active; 'I' for Inactive)
REMARK    1  A    between atoms: C_6  and  C_1 
ROOT
ATOM      1  C   UNL d   1     -41.681-122.117 -53.398  0.00  0.00     0.162 A 
ATOM      2  N   UNL d   1     -42.022-122.675 -53.886  0.00  0.00    -0.225 NA
ATOM      3  N   UNL d   1     -41.508-121.451 -53.850  0.00  0.00    -0.225 NA
ATOM      4  C   UNL d   1     -42.062-122.351 -54.652  0.00  0.00     0.101 A 
ATOM      5  C   UNL d   1     -41.745-121.596 -54.629  0.00  0.00     0.101 A 
ATOM      6  C   UNL d   1     -42.352-122.667 -55.355  0.00  0.00     0.021 A 
ATOM      7  C   UNL d   1     -41.711-121.139 -55.310  0.00  0.00     0.021 A 
ATOM      8  C   UNL d   1     -41.999-121.449 -56.018  0.00  0.00     0.002 A 
ATOM      9  C   UNL d   1     -42.321-122.218 -56.041  0.00  0.00     0.002 A 
ENDROOT
BRANCH   1  10
ATOM     10  C   UNL d   1     -41.533-122.204 -52.588  0.00  0.00     0.037 A 
ATOM     11  C   UNL d   1     -41.643-122.934 -52.215  0.00  0.00     0.024 A 
ATOM     12  C   UNL d   1     -41.496-123.019 -51.409  0.00  0.00     0.103 A 
ATOM     13  N   UNL d   1     -41.612-123.763 -51.046  0.00  0.00    -0.148 N 
ATOM     14  C   UNL d   1     -41.238-122.381 -50.967  0.00  0.00     0.021 A 
ATOM     15  C   UNL d   1     -41.123-121.637 -51.331  0.00  0.00     0.002 A 
ATOM     16  C   UNL d   1     -41.273-121.550 -52.151  0.00  0.00     0.003 A 
ENDBRANCH   1  10
TORSDOF 1
ENDMDL
