MODEL 1
REMARK VINA RESULT:      33.6      0.000      0.000
REMARK  4 active torsions:
REMARK  status: ('A' for Active; 'I' for Inactive)
REMARK    1  A    between atoms: C_8  and  C_1 
REMARK    2  A    between atoms: C_10  and  C_5 
REMARK    3  A    between atoms: N_9  and  C_10 
REMARK    4  A    between atoms: O_19  and  C_14 
ROOT
ATOM      1  C   UNL d   1      45.797 -14.742  44.268  0.00  0.00     0.066 A 
ATOM      2  C   UNL d   1      45.206 -15.208  44.605  0.00  0.00     0.200 A 
ATOM      3  C   UNL d   1      45.933 -16.391  44.267  0.00  0.00     0.108 A 
ATOM      4  C   UNL d   1      45.265 -16.024  44.609  0.00  0.00     0.062 A 
ATOM      5  C   UNL d   1      45.983 -17.207  44.276  0.00  0.00     0.079 A 
ATOM      6  C   UNL d   1      46.464 -15.110  43.926  0.00  0.00     0.126 A 
ATOM      7  O   UNL d   1      46.536 -15.927  43.923  0.00  0.00    -0.305 OA
ATOM      8  C   UNL d   1      44.676 -16.487  44.946  0.00  0.00     0.009 A 
ATOM      9  C   UNL d   1      45.401 -17.673  44.608  0.00  0.00     0.199 A 
ATOM     10  O   UNL d   1      44.549 -14.846  44.942  0.00  0.00    -0.286 OA
ATOM     11  C   UNL d   1      44.734 -17.305  44.950  0.00  0.00     0.042 A 
ATOM     12  O   UNL d   1      45.455 -18.481  44.615  0.00  0.00    -0.286 OA
ENDROOT
BRANCH   1  13
ATOM     13  C   UNL d   1      45.730 -13.859  44.265  0.00  0.00     0.027 A 
ATOM     14  C   UNL d   1      45.241 -13.458  43.652  0.00  0.00     0.094 A 
ATOM     15  C   UNL d   1      45.167 -12.558  43.641  0.00  0.00     0.024 A 
ATOM     16  C   UNL d   1      45.600 -12.084  44.264  0.00  0.00     0.002 A 
ATOM     17  C   UNL d   1      46.089 -12.485  44.877  0.00  0.00     0.000 A 
ATOM     18  C   UNL d   1      46.163 -13.374  44.889  0.00  0.00     0.002 A 
BRANCH  14  19
ATOM     19  O   UNL d   1      44.809 -13.932  43.029  0.00  0.00    -0.328 OA
ATOM     20  C   UNL d   1      44.311 -13.527  42.412  0.00  0.00     0.181 C 
ENDBRANCH  14  19
ENDBRANCH   1  13
BRANCH   5  21
ATOM     21  C   UNL d   1      46.647 -17.573  43.936  0.00  0.00     0.085 C 
BRANCH  21  22
ATOM     22  N   UNL d   1      46.544 -18.163  43.370  0.00  0.00    -0.302 N 
ATOM     23  C   UNL d   1      46.370 -17.958  42.597  0.00  0.00     0.080 A 
ATOM     24  C   UNL d   1      46.268 -18.544  42.036  0.00  0.00     0.019 A 
ATOM     25  C   UNL d   1      46.338 -19.336  42.239  0.00  0.00     0.003 A 
ATOM     26  C   UNL d   1      46.511 -19.541  43.012  0.00  0.00     0.019 A 
ATOM     27  C   UNL d   1      46.236 -19.918  41.679  0.00  0.00     0.000 C 
ATOM     28  C   UNL d   1      46.614 -18.965  43.574  0.00  0.00     0.080 A 
ENDBRANCH  21  22
ENDBRANCH   5  21
TORSDOF 4
ENDMDL
