MODEL 1
REMARK VINA RESULT:      30.4      0.000      0.000
REMARK  6 active torsions:
REMARK  status: ('A' for Active; 'I' for Inactive)
REMARK    1  A    between atoms: N_7  and  C_1 
REMARK    2  A    between atoms: S_2  and  C_14 
REMARK    3  A    between atoms: N_9  and  S_2 
REMARK       I    between atoms: C_11  and  N_7 
REMARK       I    between atoms: C_10  and  N_8 
REMARK    4  A    between atoms: O_27  and  C_10 
REMARK    5  A    between atoms: C_19  and  C_11 
REMARK    6  A    between atoms: C_30  and  O_27 
ROOT
ATOM      1  C   UNL d   1     -41.208-121.739 -51.737  0.00  0.00     0.099 A 
ATOM      2  C   UNL d   1     -41.172-121.146 -51.163  0.00  0.00     0.091 A 
ATOM      3  C   UNL d   1     -41.196-122.317 -50.517  0.00  0.00     0.049 A 
ATOM      4  C   UNL d   1     -41.165-121.498 -50.416  0.00  0.00     0.021 A 
ATOM      5  S   UNL d   1     -41.223-122.474 -51.333  0.00  0.00    -0.068 SA
ATOM      6  N   UNL d   1     -41.164-122.500 -49.092  0.00  0.00    -0.251 N 
ATOM      7  C   UNL d   1     -41.163-122.998 -48.437  0.00  0.00     0.378 C 
ATOM      8  C   UNL d   1     -41.195-122.822 -49.856  0.00  0.00     0.091 A 
ATOM      9  C   UNL d   1     -41.148-120.336 -51.301  0.00  0.00     0.103 C 
ATOM     10  N   UNL d   1     -41.124-119.533 -51.452  0.00  0.00    -0.191 NA
ATOM     11  C   UNL d   1     -41.133-121.182 -49.651  0.00  0.00     0.020 A 
ATOM     12  C   UNL d   1     -41.133-121.684 -48.996  0.00  0.00     0.085 A 
ATOM     13  O   UNL d   1     -41.194-123.816 -48.530  0.00  0.00    -0.237 OA
ENDROOT
BRANCH   1  14
ATOM     14  N   UNL d   1     -41.226-121.621 -52.558  0.00  0.00    -0.316 N 
ATOM     15  C   UNL d   1     -41.944-121.711 -52.974  0.00  0.00     0.258 C 
ATOM     16  O   UNL d   1     -42.632-121.917 -52.562  0.00  0.00    -0.267 OA
ATOM     17  H   UNL d   1     -41.020-121.489 -53.152  0.00  0.00     0.169 HD
BRANCH  15  18
ATOM     18  C   UNL d   1     -41.962-121.593 -53.795  0.00  0.00     0.056 A 
ATOM     19  C   UNL d   1     -41.274-121.705 -54.234  0.00  0.00     0.005 A 
ATOM     20  C   UNL d   1     -41.284-121.589 -55.058  0.00  0.00     0.013 A 
ATOM     21  C   UNL d   1     -41.991-121.360 -55.429  0.00  0.00     0.104 A 
ATOM     22  C   UNL d   1     -42.679-121.249 -54.977  0.00  0.00     0.013 A 
ATOM     23  C   UNL d   1     -42.668-121.365 -54.163  0.00  0.00     0.005 A 
BRANCH  21  24
ATOM     24  S   UNL d   1     -42.005-121.243 -56.252  0.00  0.00     0.271 S 
ATOM     25  O   UNL d   1     -41.444-120.638 -56.139  0.00  0.00    -0.200 OA
ATOM     26  O   UNL d   1     -42.561-121.843 -56.362  0.00  0.00    -0.200 OA
BRANCH  24  27
ATOM     27  N   UNL d   1     -42.016-121.124 -57.068  0.00  0.00    -0.229 N 
ATOM     28  C   UNL d   1     -41.413-120.764 -57.514  0.00  0.00     0.092 A 
ATOM     29  C   UNL d   1     -41.649-120.759 -58.301  0.00  0.00     0.021 A 
ATOM     30  C   UNL d   1     -42.392-121.112 -58.352  0.00  0.00     0.021 A 
ATOM     31  C   UNL d   1     -42.615-121.336 -57.591  0.00  0.00     0.092 A 
ENDBRANCH  24  27
ENDBRANCH  21  24
ENDBRANCH  15  18
ENDBRANCH   1  14
BRANCH   7  32
ATOM     32  O   UNL d   1     -41.131-122.669 -47.671  0.00  0.00    -0.257 OA
BRANCH  32  33
ATOM     33  C   UNL d   1     -41.799-122.680 -47.203  0.00  0.00     0.128 C 
ATOM     34  C   UNL d   1     -41.937-122.064 -46.680  0.00  0.00     0.029 C 
ENDBRANCH  32  33
ENDBRANCH   7  32
TORSDOF 6
ENDMDL
