MODEL 1
REMARK VINA RESULT:      72.5      0.000      0.000
REMARK  3 active torsions:
REMARK  status: ('A' for Active; 'I' for Inactive)
REMARK    1  A    between atoms: S_3  and  N_1 
REMARK    2  A    between atoms: C_7  and  C_4 
REMARK    3  A    between atoms: C_11  and  C_5 
ROOT
ATOM      1  N   UNL d   1      61.057  48.553  51.185  0.00  0.00    -0.155 N 
ATOM      2  N   UNL d   1      61.565  47.927  50.930  0.00  0.00    -0.156 NA
ATOM      3  C   UNL d   1      60.362  48.459  50.741  0.00  0.00     0.102 A 
ATOM      4  C   UNL d   1      61.179  47.486  50.359  0.00  0.00     0.104 A 
ATOM      5  C   UNL d   1      60.425  47.829  50.249  0.00  0.00     0.041 A 
ENDROOT
BRANCH   4   6
ATOM      6  C   UNL d   1      61.485  46.842  49.983  0.00  0.00     0.019 A 
ATOM      7  C   UNL d   1      61.202  46.083  50.169  0.00  0.00     0.002 A 
ATOM      8  C   UNL d   1      61.501  45.412  49.798  0.00  0.00     0.007 A 
ATOM      9  C   UNL d   1      62.102  45.483  49.220  0.00  0.00     0.035 A 
ATOM     10  C   UNL d   1      62.385  46.245  49.033  0.00  0.00     0.007 A 
ATOM     11 BR   UNL d   1      62.399  44.817  48.850  0.00  0.00    -0.049 Br
ATOM     12  C   UNL d   1      62.085  46.917  49.406  0.00  0.00     0.002 A 
ENDBRANCH   4   6
BRANCH   1  13
ATOM     13  S   UNL d   1      61.221  49.113  51.738  0.00  0.00     0.266 S 
ATOM     14  O   UNL d   1      61.396  49.705  52.306  0.00  0.00    -0.203 OA
ATOM     15  O   UNL d   1      60.923  48.636  52.315  0.00  0.00    -0.203 OA
ATOM     16  C   UNL d   1      61.530  49.608  51.137  0.00  0.00     0.165 C 
ENDBRANCH   1  13
BRANCH   3  17
ATOM     17  C   UNL d   1      59.704  48.950  50.805  0.00  0.00     0.048 A 
ATOM     18  S   UNL d   1      59.243  49.247  50.194  0.00  0.00    -0.085 SA
ATOM     19  C   UNL d   1      58.653  49.707  50.499  0.00  0.00     0.035 A 
ATOM     20  C   UNL d   1      58.732  49.707  51.313  0.00  0.00     0.007 A 
ATOM     21  C   UNL d   1      59.371  49.248  51.506  0.00  0.00     0.009 A 
ENDBRANCH   3  17
TORSDOF 3
ENDMDL
