MODEL 1
REMARK VINA RESULT:      -7.8      0.000      0.000
REMARK  4 active torsions:
REMARK  status: ('A' for Active; 'I' for Inactive)
REMARK    1  A    between atoms: C_7  and  C_2 
REMARK    2  A    between atoms: O_8  and  C_7 
REMARK    3  A    between atoms: C_9  and  O_8 
REMARK    4  A    between atoms: O_11  and  C_10 
ROOT
ATOM      1  C   UNL d   1      53.216  32.173  53.453  0.00  0.00     0.161 C 
ENDROOT
BRANCH   1   2
ATOM      2  C   UNL d   1      53.251  32.906  53.823  0.00  0.00     0.188 A 
ATOM      3  N   UNL d   1      52.895  33.505  53.355  0.00  0.00    -0.224 NA
ATOM      4  C   UNL d   1      52.959  34.221  53.773  0.00  0.00     0.101 A 
ATOM      5  C   UNL d   1      53.348  34.072  54.489  0.00  0.00     0.101 A 
ATOM      6  C   UNL d   1      52.709  34.980  53.582  0.00  0.00     0.021 A 
ATOM      7  C   UNL d   1      53.482  34.700  55.014  0.00  0.00     0.021 A 
ATOM      8  N   UNL d   1      53.528  33.264  54.521  0.00  0.00    -0.224 NA
ATOM      9  C   UNL d   1      53.232  35.458  54.823  0.00  0.00     0.002 A 
ATOM     10  C   UNL d   1      52.844  35.599  54.105  0.00  0.00     0.002 A 
ENDBRANCH   1   2
BRANCH   1  11
ATOM     11  O   UNL d   1      53.615  31.535  53.767  0.00  0.00    -0.302 OA
BRANCH  11  12
ATOM     12  C   UNL d   1      53.360  30.765  53.611  0.00  0.00     0.102 A 
ATOM     13  C   UNL d   1      53.301  30.227  54.228  0.00  0.00     0.049 A 
ATOM     14  C   UNL d   1      53.045  29.456  54.071  0.00  0.00     0.096 A 
ATOM     15  C   UNL d   1      52.854  29.237  53.298  0.00  0.00     0.024 A 
ATOM     16  C   UNL d   1      52.917  29.787  52.681  0.00  0.00     0.004 A 
ATOM     17  C   UNL d   1      53.172  30.550  52.850  0.00  0.00     0.025 A 
BRANCH  14  18
ATOM     18  O   UNL d   1      52.983  28.910  54.684  0.00  0.00    -0.328 OA
ATOM     19  C   UNL d   1      53.645  28.465  54.906  0.00  0.00     0.181 C 
ENDBRANCH  14  18
ENDBRANCH  11  12
ENDBRANCH   1  11
TORSDOF 4
ENDMDL
MODEL 2
REMARK VINA RESULT:      -7.6      2.880      4.728
REMARK  4 active torsions:
REMARK  status: ('A' for Active; 'I' for Inactive)
REMARK    1  A    between atoms: C_7  and  C_2 
REMARK    2  A    between atoms: O_8  and  C_7 
REMARK    3  A    between atoms: C_9  and  O_8 
REMARK    4  A    between atoms: O_11  and  C_10 
ROOT
ATOM      1  C   UNL d   1      51.644  34.233  53.148  0.00  0.00     0.161 C 
ENDROOT
BRANCH   1   2
ATOM      2  C   UNL d   1      52.266  33.854  53.528  0.00  0.00     0.188 A 
ATOM      3  N   UNL d   1      52.747  34.396  53.951  0.00  0.00    -0.224 NA
ATOM      4  C   UNL d   1      53.356  33.961  54.313  0.00  0.00     0.101 A 
ATOM      5  C   UNL d   1      53.257  33.162  54.120  0.00  0.00     0.101 A 
ATOM      6  C   UNL d   1      53.979  34.203  54.791  0.00  0.00     0.021 A 
ATOM      7  C   UNL d   1      53.797  32.606  54.414  0.00  0.00     0.021 A 
ATOM      8  N   UNL d   1      52.587  33.095  53.637  0.00  0.00    -0.224 NA
ATOM      9  C   UNL d   1      54.421  32.847  54.891  0.00  0.00     0.002 A 
ATOM     10  C   UNL d   1      54.512  33.648  55.080  0.00  0.00     0.002 A 
ENDBRANCH   1   2
BRANCH   1  11
ATOM     11  O   UNL d   1      50.900  33.900  53.144  0.00  0.00    -0.302 OA
BRANCH  11  12
ATOM     12  C   UNL d   1      50.268  34.293  52.785  0.00  0.00     0.102 A 
ATOM     13  C   UNL d   1      49.824  34.827  53.222  0.00  0.00     0.049 A 
ATOM     14  C   UNL d   1      49.192  35.221  52.862  0.00  0.00     0.096 A 
ATOM     15  C   UNL d   1      49.015  35.072  52.069  0.00  0.00     0.024 A 
ATOM     16  C   UNL d   1      49.469  34.531  51.635  0.00  0.00     0.004 A 
ATOM     17  C   UNL d   1      50.094  34.147  52.004  0.00  0.00     0.025 A 
BRANCH  14  18
ATOM     18  O   UNL d   1      48.741  35.758  53.294  0.00  0.00    -0.328 OA
ATOM     19  C   UNL d   1      47.982  35.960  53.031  0.00  0.00     0.181 C 
ENDBRANCH  14  18
ENDBRANCH  11  12
ENDBRANCH   1  11
TORSDOF 4
ENDMDL
MODEL 3
REMARK VINA RESULT:      -7.3      2.525      3.699
REMARK  4 active torsions:
REMARK  status: ('A' for Active; 'I' for Inactive)
REMARK    1  A    between atoms: C_7  and  C_2 
REMARK    2  A    between atoms: O_8  and  C_7 
REMARK    3  A    between atoms: C_9  and  O_8 
REMARK    4  A    between atoms: O_11  and  C_10 
ROOT
ATOM      1  C   UNL d   1      51.926  33.772  52.934  0.00  0.00     0.161 C 
ENDROOT
BRANCH   1   2
ATOM      2  C   UNL d   1      51.176  34.085  52.811  0.00  0.00     0.188 A 
ATOM      3  N   UNL d   1      50.927  33.985  52.015  0.00  0.00    -0.224 NA
ATOM      4  C   UNL d   1      50.168  34.317  51.947  0.00  0.00     0.101 A 
ATOM      5  C   UNL d   1      49.947  34.618  52.686  0.00  0.00     0.101 A 
ATOM      6  C   UNL d   1      49.663  34.376  51.302  0.00  0.00     0.021 A 
ATOM      7  C   UNL d   1      49.207  34.982  52.768  0.00  0.00     0.021 A 
ATOM      8  N   UNL d   1      50.566  34.476  53.218  0.00  0.00    -0.224 NA
ATOM      9  C   UNL d   1      48.701  35.042  52.124  0.00  0.00     0.002 A 
ATOM     10  C   UNL d   1      48.930  34.738  51.388  0.00  0.00     0.002 A 
ENDBRANCH   1   2
BRANCH   1  11
ATOM     11  O   UNL d   1      52.094  33.364  53.620  0.00  0.00    -0.302 OA
BRANCH  11  12
ATOM     12  C   UNL d   1      52.861  33.098  53.771  0.00  0.00     0.102 A 
ATOM     13  C   UNL d   1      53.263  33.378  54.429  0.00  0.00     0.049 A 
ATOM     14  C   UNL d   1      54.031  33.111  54.580  0.00  0.00     0.096 A 
ATOM     15  C   UNL d   1      54.385  32.568  54.068  0.00  0.00     0.024 A 
ATOM     16  C   UNL d   1      53.971  32.290  53.405  0.00  0.00     0.004 A 
ATOM     17  C   UNL d   1      53.208  32.563  53.267  0.00  0.00     0.025 A 
BRANCH  14  18
ATOM     18  O   UNL d   1      54.442  33.388  55.238  0.00  0.00    -0.328 OA
ATOM     19  C   UNL d   1      55.174  33.761  55.137  0.00  0.00     0.181 C 
ENDBRANCH  14  18
ENDBRANCH  11  12
ENDBRANCH   1  11
TORSDOF 4
ENDMDL
MODEL 4
REMARK VINA RESULT:      -7.1      3.571      4.742
REMARK  4 active torsions:
REMARK  status: ('A' for Active; 'I' for Inactive)
REMARK    1  A    between atoms: C_7  and  C_2 
REMARK    2  A    between atoms: O_8  and  C_7 
REMARK    3  A    between atoms: C_9  and  O_8 
REMARK    4  A    between atoms: O_11  and  C_10 
ROOT
ATOM      1  C   UNL d   1      50.245  34.514  52.943  0.00  0.00     0.161 C 
ENDROOT
BRANCH   1   2
ATOM      2  C   UNL d   1      49.544  34.832  52.655  0.00  0.00     0.188 A 
ATOM      3  N   UNL d   1      49.191  35.354  53.209  0.00  0.00    -0.224 NA
ATOM      4  C   UNL d   1      48.490  35.645  52.869  0.00  0.00     0.101 A 
ATOM      5  C   UNL d   1      48.408  35.311  52.115  0.00  0.00     0.101 A 
ATOM      6  C   UNL d   1      47.928  36.169  53.159  0.00  0.00     0.021 A 
ATOM      7  C   UNL d   1      47.748  35.512  51.655  0.00  0.00     0.021 A 
ATOM      8  N   UNL d   1      49.055  34.811  51.983  0.00  0.00    -0.224 NA
ATOM      9  C   UNL d   1      47.186  36.036  51.945  0.00  0.00     0.002 A 
ATOM     10  C   UNL d   1      47.276  36.365  52.699  0.00  0.00     0.002 A 
ENDBRANCH   1   2
BRANCH   1  11
ATOM     11  O   UNL d   1      50.889  34.426  52.451  0.00  0.00    -0.302 OA
BRANCH  11  12
ATOM     12  C   UNL d   1      51.588  34.090  52.734  0.00  0.00     0.102 A 
ATOM     13  C   UNL d   1      51.779  33.318  52.527  0.00  0.00     0.049 A 
ATOM     14  C   UNL d   1      52.479  32.982  52.811  0.00  0.00     0.096 A 
ATOM     15  C   UNL d   1      52.977  33.424  53.299  0.00  0.00     0.024 A 
ATOM     16  C   UNL d   1      52.778  34.203  53.503  0.00  0.00     0.004 A 
ATOM     17  C   UNL d   1      52.079  34.525  53.214  0.00  0.00     0.025 A 
BRANCH  14  18
ATOM     18  O   UNL d   1      52.677  32.209  52.608  0.00  0.00    -0.328 OA
ATOM     19  C   UNL d   1      52.921  31.681  53.197  0.00  0.00     0.181 C 
ENDBRANCH  14  18
ENDBRANCH  11  12
ENDBRANCH   1  11
TORSDOF 4
ENDMDL
MODEL 5
REMARK VINA RESULT:      -7.1      1.486      4.708
REMARK  4 active torsions:
REMARK  status: ('A' for Active; 'I' for Inactive)
REMARK    1  A    between atoms: C_7  and  C_2 
REMARK    2  A    between atoms: O_8  and  C_7 
REMARK    3  A    between atoms: C_9  and  O_8 
REMARK    4  A    between atoms: O_11  and  C_10 
ROOT
ATOM      1  C   UNL d   1      53.090  32.316  53.158  0.00  0.00     0.161 C 
ENDROOT
BRANCH   1   2
ATOM      2  C   UNL d   1      53.029  31.499  53.217  0.00  0.00     0.188 A 
ATOM      3  N   UNL d   1      53.396  31.211  53.914  0.00  0.00    -0.224 NA
ATOM      4  C   UNL d   1      53.305  30.385  53.923  0.00  0.00     0.101 A 
ATOM      5  C   UNL d   1      52.887  30.161  53.243  0.00  0.00     0.101 A 
ATOM      6  C   UNL d   1      53.553  29.822  54.467  0.00  0.00     0.021 A 
ATOM      7  C   UNL d   1      52.722  29.358  53.118  0.00  0.00     0.021 A 
ATOM      8  N   UNL d   1      52.717  30.845  52.809  0.00  0.00    -0.224 NA
ATOM      9  C   UNL d   1      52.969  28.795  53.662  0.00  0.00     0.002 A 
ATOM     10  C   UNL d   1      53.386  29.027  54.339  0.00  0.00     0.002 A 
ENDBRANCH   1   2
BRANCH   1  11
ATOM     11  O   UNL d   1      52.607  32.729  52.647  0.00  0.00    -0.302 OA
BRANCH  11  12
ATOM     12  C   UNL d   1      52.341  33.486  52.844  0.00  0.00     0.102 A 
ATOM     13  C   UNL d   1      52.853  34.011  53.212  0.00  0.00     0.049 A 
ATOM     14  C   UNL d   1      52.586  34.769  53.409  0.00  0.00     0.096 A 
ATOM     15  C   UNL d   1      51.809  34.988  53.234  0.00  0.00     0.024 A 
ATOM     16  C   UNL d   1      51.298  34.451  52.861  0.00  0.00     0.004 A 
ATOM     17  C   UNL d   1      51.576  33.701  52.671  0.00  0.00     0.025 A 
BRANCH  14  18
ATOM     18  O   UNL d   1      53.094  35.302  53.779  0.00  0.00    -0.328 OA
ATOM     19  C   UNL d   1      52.914  35.579  54.537  0.00  0.00     0.181 C 
ENDBRANCH  14  18
ENDBRANCH  11  12
ENDBRANCH   1  11
TORSDOF 4
ENDMDL
MODEL 6
REMARK VINA RESULT:      -6.5      4.373      6.209
REMARK  4 active torsions:
REMARK  status: ('A' for Active; 'I' for Inactive)
REMARK    1  A    between atoms: C_7  and  C_2 
REMARK    2  A    between atoms: O_8  and  C_7 
REMARK    3  A    between atoms: C_9  and  O_8 
REMARK    4  A    between atoms: O_11  and  C_10 
ROOT
ATOM      1  C   UNL d   1      49.461  34.828  52.848  0.00  0.00     0.161 C 
ENDROOT
BRANCH   1   2
ATOM      2  C   UNL d   1      50.251  34.620  52.941  0.00  0.00     0.188 A 
ATOM      3  N   UNL d   1      50.350  33.788  52.975  0.00  0.00    -0.224 NA
ATOM      4  C   UNL d   1      51.162  33.635  53.069  0.00  0.00     0.101 A 
ATOM      5  C   UNL d   1      51.562  34.359  53.094  0.00  0.00     0.101 A 
ATOM      6  C   UNL d   1      51.572  32.926  53.134  0.00  0.00     0.021 A 
ATOM      7  C   UNL d   1      52.386  34.361  53.185  0.00  0.00     0.021 A 
ATOM      8  N   UNL d   1      51.003  34.966  53.015  0.00  0.00    -0.224 NA
ATOM      9  C   UNL d   1      52.797  33.653  53.250  0.00  0.00     0.002 A 
ATOM     10  C   UNL d   1      52.388  32.933  53.225  0.00  0.00     0.002 A 
ENDBRANCH   1   2
BRANCH   1  11
ATOM     11  O   UNL d   1      49.192  35.551  53.113  0.00  0.00    -0.302 OA
BRANCH  11  12
ATOM     12  C   UNL d   1      48.406  35.773  52.991  0.00  0.00     0.102 A 
ATOM     13  C   UNL d   1      47.943  35.989  53.634  0.00  0.00     0.049 A 
ATOM     14  C   UNL d   1      47.157  36.212  53.512  0.00  0.00     0.096 A 
ATOM     15  C   UNL d   1      46.845  36.215  52.748  0.00  0.00     0.024 A 
ATOM     16  C   UNL d   1      47.319  35.995  52.103  0.00  0.00     0.004 A 
ATOM     17  C   UNL d   1      48.100  35.776  52.238  0.00  0.00     0.025 A 
BRANCH  14  18
ATOM     18  O   UNL d   1      46.686  36.430  54.152  0.00  0.00    -0.328 OA
ATOM     19  C   UNL d   1      46.119  35.901  54.443  0.00  0.00     0.181 C 
ENDBRANCH  14  18
ENDBRANCH  11  12
ENDBRANCH   1  11
TORSDOF 4
ENDMDL
MODEL 7
REMARK VINA RESULT:      -6.3      1.459      4.754
REMARK  4 active torsions:
REMARK  status: ('A' for Active; 'I' for Inactive)
REMARK    1  A    between atoms: C_7  and  C_2 
REMARK    2  A    between atoms: O_8  and  C_7 
REMARK    3  A    between atoms: C_9  and  O_8 
REMARK    4  A    between atoms: O_11  and  C_10 
ROOT
ATOM      1  C   UNL d   1      53.941  32.166  53.929  0.00  0.00     0.161 C 
ENDROOT
BRANCH   1   2
ATOM      2  C   UNL d   1      53.561  31.482  53.680  0.00  0.00     0.188 A 
ATOM      3  N   UNL d   1      53.775  30.820  54.150  0.00  0.00    -0.224 NA
ATOM      4  C   UNL d   1      53.364  30.160  53.855  0.00  0.00     0.101 A 
ATOM      5  C   UNL d   1      52.902  30.405  53.213  0.00  0.00     0.101 A 
ATOM      6  C   UNL d   1      53.361  29.375  54.100  0.00  0.00     0.021 A 
ATOM      7  C   UNL d   1      52.435  29.846  52.817  0.00  0.00     0.021 A 
ATOM      8  N   UNL d   1      53.022  31.217  53.104  0.00  0.00    -0.224 NA
ATOM      9  C   UNL d   1      52.431  29.062  53.060  0.00  0.00     0.002 A 
ATOM     10  C   UNL d   1      52.896  28.826  53.704  0.00  0.00     0.002 A 
ENDBRANCH   1   2
BRANCH   1  11
ATOM     11  O   UNL d   1      53.729  32.521  54.632  0.00  0.00    -0.302 OA
BRANCH  11  12
ATOM     12  C   UNL d   1      54.015  33.272  54.823  0.00  0.00     0.102 A 
ATOM     13  C   UNL d   1      53.501  33.911  54.829  0.00  0.00     0.049 A 
ATOM     14  C   UNL d   1      53.788  34.663  55.020  0.00  0.00     0.096 A 
ATOM     15  C   UNL d   1      54.587  34.762  55.203  0.00  0.00     0.024 A 
ATOM     16  C   UNL d   1      55.101  34.111  55.195  0.00  0.00     0.004 A 
ATOM     17  C   UNL d   1      54.802  33.369  55.003  0.00  0.00     0.025 A 
BRANCH  14  18
ATOM     18  O   UNL d   1      53.278  35.310  55.028  0.00  0.00    -0.328 OA
ATOM     19  C   UNL d   1      52.949  35.580  54.318  0.00  0.00     0.181 C 
ENDBRANCH  14  18
ENDBRANCH  11  12
ENDBRANCH   1  11
TORSDOF 4
ENDMDL
