MODEL 1
REMARK VINA RESULT:      87.9      0.000      0.000
REMARK  12 active torsions:
REMARK  status: ('A' for Active; 'I' for Inactive)
REMARK    1  A    between atoms: C_7  and  C_1 
REMARK    2  A    between atoms: C_8  and  N_2 
REMARK    3  A    between atoms: C_6  and  C_5 
REMARK    4  A    between atoms: C_9  and  C_7 
REMARK    5  A    between atoms: C_24  and  C_8 
REMARK    6  A    between atoms: C_12  and  C_9 
REMARK    7  A    between atoms: C_11  and  C_12 
REMARK    8  A    between atoms: O_27  and  C_13 
REMARK    9  A    between atoms: N_14  and  C_24 
REMARK   10  A    between atoms: O_28  and  C_18 
REMARK   11  A    between atoms: C_33  and  O_28 
REMARK   12  A    between atoms: C_35  and  C_33 
ROOT
ATOM      1  C   UNL d   1     -49.967  27.170  35.268  0.00  0.00     0.099 A 
ATOM      2  N   UNL d   1     -50.690  26.237  34.642  0.00  0.00    -0.269 N 
ATOM      3  C   UNL d   1     -49.710  27.120  34.485  0.00  0.00     0.256 A 
ATOM      4  C   UNL d   1     -50.152  26.546  34.097  0.00  0.00     0.304 A 
ATOM      5  C   UNL d   1     -50.576  26.622  35.365  0.00  0.00     0.073 A 
ATOM      6  O   UNL d   1     -50.075  26.320  33.309  0.00  0.00    -0.263 OA
ATOM      7  O   UNL d   1     -49.108  27.570  34.150  0.00  0.00    -0.281 OA
ENDROOT
BRANCH   5   8
ATOM      8  C   UNL d   1     -50.998  26.480  36.056  0.00  0.00     0.018 A 
ATOM      9  C   UNL d   1     -50.605  26.398  36.766  0.00  0.00     0.028 A 
ATOM     10  C   UNL d   1     -51.026  26.256  37.457  0.00  0.00     0.117 A 
ATOM     11  C   UNL d   1     -51.857  26.197  37.431  0.00  0.00     0.122 A 
ATOM     12  C   UNL d   1     -52.249  26.281  36.711  0.00  0.00     0.027 A 
ATOM     13  C   UNL d   1     -51.820  26.424  36.017  0.00  0.00     0.004 A 
BRANCH  10  14
ATOM     14  O   UNL d   1     -50.632  26.173  38.172  0.00  0.00    -0.326 OA
ATOM     15  C   UNL d   1     -50.541  26.827  38.672  0.00  0.00     0.181 C 
ENDBRANCH  10  14
BRANCH  11  16
ATOM     16  O   UNL d   1     -52.279  26.055  38.122  0.00  0.00    -0.303 OA
BRANCH  16  17
ATOM     17  C   UNL d   1     -52.609  25.306  38.254  0.00  0.00     0.123 C 
BRANCH  17  18
ATOM     18  C   UNL d   1     -53.253  25.226  38.764  0.00  0.00     0.027 C 
ATOM     19  C   UNL d   1     -53.199  24.721  39.409  0.00  0.00     0.002 C 
ENDBRANCH  17  18
ENDBRANCH  16  17
ENDBRANCH  11  16
ENDBRANCH   5   8
BRANCH   2  20
ATOM     20  C   UNL d   1     -51.246  25.646  34.492  0.00  0.00     0.102 C 
BRANCH  20  21
ATOM     21  C   UNL d   1     -51.179  25.176  33.816  0.00  0.00     0.100 C 
BRANCH  21  22
ATOM     22  N   UNL d   1     -51.755  24.615  33.648  0.00  0.00    -0.298 N 
ATOM     23  C   UNL d   1     -52.537  24.843  33.599  0.00  0.00     0.107 A 
ATOM     24  C   UNL d   1     -53.118  24.280  33.430  0.00  0.00     0.142 A 
ATOM     25  O   UNL d   1     -52.906  23.491  33.311  0.00  0.00    -0.300 OA
ATOM     26  C   UNL d   1     -52.113  23.266  33.362  0.00  0.00     0.142 A 
ATOM     27  C   UNL d   1     -51.539  23.824  33.530  0.00  0.00     0.107 A 
ENDBRANCH  21  22
ENDBRANCH  20  21
ENDBRANCH   2  20
BRANCH   1  28
ATOM     28  C   UNL d   1     -49.674  27.672  35.844  0.00  0.00     0.200 C 
ATOM     29  O   UNL d   1     -50.033  27.706  36.589  0.00  0.00    -0.286 OA
BRANCH  28  30
ATOM     30  C   UNL d   1     -49.015  28.148  35.682  0.00  0.00     0.044 C 
BRANCH  30  31
ATOM     31  C   UNL d   1     -48.712  28.648  36.271  0.00  0.00     0.028 C 
BRANCH  31  32
ATOM     32  C   UNL d   1     -48.087  29.145  36.098  0.00  0.00     0.100 A 
ATOM     33  O   UNL d   1     -47.428  28.958  35.648  0.00  0.00    -0.305 OA
ATOM     34  C   UNL d   1     -46.935  29.623  35.615  0.00  0.00     0.123 A 
ATOM     35  C   UNL d   1     -47.291  30.223  36.047  0.00  0.00     0.029 A 
ATOM     36  C   UNL d   1     -48.006  29.931  36.349  0.00  0.00     0.027 A 
ENDBRANCH  31  32
ENDBRANCH  30  31
ENDBRANCH  28  30
ENDBRANCH   1  28
TORSDOF 12
ENDMDL
MODEL 2
REMARK VINA RESULT:      88.7      1.306      3.632
REMARK  12 active torsions:
REMARK  status: ('A' for Active; 'I' for Inactive)
REMARK    1  A    between atoms: C_7  and  C_1 
REMARK    2  A    between atoms: C_8  and  N_2 
REMARK    3  A    between atoms: C_6  and  C_5 
REMARK    4  A    between atoms: C_9  and  C_7 
REMARK    5  A    between atoms: C_24  and  C_8 
REMARK    6  A    between atoms: C_12  and  C_9 
REMARK    7  A    between atoms: C_11  and  C_12 
REMARK    8  A    between atoms: O_27  and  C_13 
REMARK    9  A    between atoms: N_14  and  C_24 
REMARK   10  A    between atoms: O_28  and  C_18 
REMARK   11  A    between atoms: C_33  and  O_28 
REMARK   12  A    between atoms: C_35  and  C_33 
ROOT
ATOM      1  C   UNL d   1     -49.603  27.632  36.105  0.00  0.00     0.099 A 
ATOM      2  N   UNL d   1     -50.627  27.068  36.751  0.00  0.00    -0.269 N 
ATOM      3  C   UNL d   1     -49.610  27.911  36.882  0.00  0.00     0.256 A 
ATOM      4  C   UNL d   1     -50.239  27.566  37.282  0.00  0.00     0.304 A 
ATOM      5  C   UNL d   1     -50.235  27.108  36.024  0.00  0.00     0.073 A 
ATOM      6  O   UNL d   1     -50.446  27.693  38.069  0.00  0.00    -0.263 OA
ATOM      7  O   UNL d   1     -49.074  28.448  37.202  0.00  0.00    -0.281 OA
ENDROOT
BRANCH   5   8
ATOM      8  C   UNL d   1     -50.442  26.696  35.343  0.00  0.00     0.018 A 
ATOM      9  C   UNL d   1     -50.864  27.068  34.752  0.00  0.00     0.028 A 
ATOM     10  C   UNL d   1     -51.071  26.656  34.071  0.00  0.00     0.117 A 
ATOM     11  C   UNL d   1     -50.848  25.858  33.987  0.00  0.00     0.122 A 
ATOM     12  C   UNL d   1     -50.422  25.487  34.587  0.00  0.00     0.027 A 
ATOM     13  C   UNL d   1     -50.216  25.906  35.271  0.00  0.00     0.004 A 
BRANCH  10  14
ATOM     14  O   UNL d   1     -51.495  27.029  33.476  0.00  0.00    -0.326 OA
ATOM     15  C   UNL d   1     -52.323  27.029  33.497  0.00  0.00     0.181 C 
ENDBRANCH  10  14
BRANCH  11  16
ATOM     16  O   UNL d   1     -51.055  25.446  33.306  0.00  0.00    -0.303 OA
BRANCH  16  17
ATOM     17  C   UNL d   1     -51.532  24.771  33.364  0.00  0.00     0.123 C 
BRANCH  17  18
ATOM     18  C   UNL d   1     -51.190  24.021  33.310  0.00  0.00     0.027 C 
ATOM     19  C   UNL d   1     -51.641  23.357  33.482  0.00  0.00     0.002 C 
ENDBRANCH  17  18
ENDBRANCH  16  17
ENDBRANCH  11  16
ENDBRANCH   5   8
BRANCH   2  20
ATOM     20  C   UNL d   1     -51.293  26.607  36.916  0.00  0.00     0.102 C 
BRANCH  20  21
ATOM     21  C   UNL d   1     -51.686  26.692  37.637  0.00  0.00     0.100 C 
BRANCH  21  22
ATOM     22  N   UNL d   1     -52.129  26.069  37.938  0.00  0.00    -0.298 N 
ATOM     23  C   UNL d   1     -51.772  25.518  38.422  0.00  0.00     0.107 A 
ATOM     24  C   UNL d   1     -52.217  24.890  38.726  0.00  0.00     0.142 A 
ATOM     25  O   UNL d   1     -53.018  24.823  38.538  0.00  0.00    -0.300 OA
ATOM     26  C   UNL d   1     -53.374  25.384  38.048  0.00  0.00     0.142 A 
ATOM     27  C   UNL d   1     -52.933  26.005  37.748  0.00  0.00     0.107 A 
ENDBRANCH  21  22
ENDBRANCH  20  21
ENDBRANCH   2  20
BRANCH   1  28
ATOM     28  C   UNL d   1     -49.068  27.836  35.520  0.00  0.00     0.200 C 
ATOM     29  O   UNL d   1     -48.803  27.267  34.981  0.00  0.00    -0.286 OA
BRANCH  28  30
ATOM     30  C   UNL d   1     -48.790  28.615  35.467  0.00  0.00     0.044 C 
BRANCH  30  31
ATOM     31  C   UNL d   1     -48.085  28.775  35.060  0.00  0.00     0.028 C 
BRANCH  31  32
ATOM     32  C   UNL d   1     -47.670  29.460  35.222  0.00  0.00     0.100 A 
ATOM     33  O   UNL d   1     -47.955  30.117  35.620  0.00  0.00    -0.305 OA
ATOM     34  C   UNL d   1     -47.350  30.683  35.659  0.00  0.00     0.123 A 
ATOM     35  C   UNL d   1     -46.690  30.373  35.284  0.00  0.00     0.029 A 
ATOM     36  C   UNL d   1     -46.883  29.614  35.011  0.00  0.00     0.027 A 
ENDBRANCH  31  32
ENDBRANCH  30  31
ENDBRANCH  28  30
ENDBRANCH   1  28
TORSDOF 12
ENDMDL
MODEL 3
REMARK VINA RESULT:      90.6      1.644      3.988
REMARK  12 active torsions:
REMARK  status: ('A' for Active; 'I' for Inactive)
REMARK    1  A    between atoms: C_7  and  C_1 
REMARK    2  A    between atoms: C_8  and  N_2 
REMARK    3  A    between atoms: C_6  and  C_5 
REMARK    4  A    between atoms: C_9  and  C_7 
REMARK    5  A    between atoms: C_24  and  C_8 
REMARK    6  A    between atoms: C_12  and  C_9 
REMARK    7  A    between atoms: C_11  and  C_12 
REMARK    8  A    between atoms: O_27  and  C_13 
REMARK    9  A    between atoms: N_14  and  C_24 
REMARK   10  A    between atoms: O_28  and  C_18 
REMARK   11  A    between atoms: C_33  and  O_28 
REMARK   12  A    between atoms: C_35  and  C_33 
ROOT
ATOM      1  C   UNL d   1     -48.706  28.600  36.094  0.00  0.00     0.099 A 
ATOM      2  N   UNL d   1     -49.679  27.935  36.722  0.00  0.00    -0.269 N 
ATOM      3  C   UNL d   1     -48.771  28.894  36.863  0.00  0.00     0.256 A 
ATOM      4  C   UNL d   1     -49.369  28.487  37.252  0.00  0.00     0.304 A 
ATOM      5  C   UNL d   1     -49.270  28.005  36.006  0.00  0.00     0.073 A 
ATOM      6  O   UNL d   1     -49.615  28.606  38.029  0.00  0.00    -0.263 OA
ATOM      7  O   UNL d   1     -48.311  29.496  37.185  0.00  0.00    -0.281 OA
ENDROOT
BRANCH   5   8
ATOM      8  C   UNL d   1     -49.406  27.558  35.330  0.00  0.00     0.018 A 
ATOM      9  C   UNL d   1     -49.901  27.838  34.746  0.00  0.00     0.028 A 
ATOM     10  C   UNL d   1     -50.037  27.390  34.070  0.00  0.00     0.117 A 
ATOM     11  C   UNL d   1     -49.666  26.649  33.983  0.00  0.00     0.122 A 
ATOM     12  C   UNL d   1     -49.166  26.371  34.576  0.00  0.00     0.027 A 
ATOM     13  C   UNL d   1     -49.032  26.825  35.256  0.00  0.00     0.004 A 
BRANCH  10  14
ATOM     14  O   UNL d   1     -50.535  27.671  33.482  0.00  0.00    -0.326 OA
ATOM     15  C   UNL d   1     -51.337  27.464  33.486  0.00  0.00     0.181 C 
ENDBRANCH  10  14
BRANCH  11  16
ATOM     16  O   UNL d   1     -49.801  26.202  33.307  0.00  0.00    -0.303 OA
BRANCH  16  17
ATOM     17  C   UNL d   1     -49.843  25.376  33.363  0.00  0.00     0.123 C 
BRANCH  17  18
ATOM     18  C   UNL d   1     -50.567  25.011  33.515  0.00  0.00     0.027 C 
ATOM     19  C   UNL d   1     -50.675  24.224  33.309  0.00  0.00     0.002 C 
ENDBRANCH  17  18
ENDBRANCH  16  17
ENDBRANCH  11  16
ENDBRANCH   5   8
BRANCH   2  20
ATOM     20  C   UNL d   1     -50.293  27.405  36.878  0.00  0.00     0.102 C 
BRANCH  20  21
ATOM     21  C   UNL d   1     -50.669  27.412  37.613  0.00  0.00     0.100 C 
BRANCH  21  22
ATOM     22  N   UNL d   1     -51.171  26.797  37.822  0.00  0.00    -0.298 N 
ATOM     23  C   UNL d   1     -51.928  26.774  37.517  0.00  0.00     0.107 A 
ATOM     24  C   UNL d   1     -52.436  26.155  37.726  0.00  0.00     0.142 A 
ATOM     25  O   UNL d   1     -52.176  25.565  38.241  0.00  0.00    -0.300 OA
ATOM     26  C   UNL d   1     -51.409  25.593  38.547  0.00  0.00     0.142 A 
ATOM     27  C   UNL d   1     -50.908  26.206  38.339  0.00  0.00     0.107 A 
ENDBRANCH  21  22
ENDBRANCH  20  21
ENDBRANCH   2  20
BRANCH   1  28
ATOM     28  C   UNL d   1     -48.178  28.852  35.520  0.00  0.00     0.200 C 
ATOM     29  O   UNL d   1     -47.627  28.325  35.202  0.00  0.00    -0.286 OA
BRANCH  28  30
ATOM     30  C   UNL d   1     -48.197  29.638  35.258  0.00  0.00     0.044 C 
BRANCH  30  31
ATOM     31  C   UNL d   1     -47.490  30.024  35.060  0.00  0.00     0.028 C 
BRANCH  31  32
ATOM     32  C   UNL d   1     -47.504  30.812  34.847  0.00  0.00     0.100 A 
ATOM     33  O   UNL d   1     -46.969  31.388  35.081  0.00  0.00    -0.305 OA
ATOM     34  C   UNL d   1     -47.191  32.109  34.737  0.00  0.00     0.123 A 
ATOM     35  C   UNL d   1     -47.866  31.977  34.289  0.00  0.00     0.029 A 
ATOM     36  C   UNL d   1     -48.064  31.174  34.354  0.00  0.00     0.027 A 
ENDBRANCH  31  32
ENDBRANCH  30  31
ENDBRANCH  28  30
ENDBRANCH   1  28
TORSDOF 12
ENDMDL
