MODEL 1
REMARK VINA RESULT:      -3.8      0.000      0.000
REMARK  5 active torsions:
REMARK  status: ('A' for Active; 'I' for Inactive)
REMARK    1  A    between atoms: C_10  and  C_3 
REMARK    2  A    between atoms: S_9  and  C_4 
REMARK       I    between atoms: N_6  and  C_7 
REMARK    3  A    between atoms: C_8  and  N_6 
REMARK    4  A    between atoms: C_7  and  C_14 
REMARK    5  A    between atoms: C_14  and  S_9 
ROOT
ATOM      1  S   UNL d   1      33.179  19.913 -21.890  0.00  0.00    -0.036 SA
ENDROOT
BRANCH   1   2
ATOM      2  C   UNL d   1      33.115  19.383 -22.545  0.00  0.00     0.236 A 
ATOM      3  O   UNL d   1      32.891  18.595 -22.430  0.00  0.00    -0.263 OA
ATOM      4  C   UNL d   1      32.882  18.241 -23.159  0.00  0.00     0.205 A 
ATOM      5  N   UNL d   1      33.091  18.780 -23.710  0.00  0.00    -0.120 NA
ATOM      6  N   UNL d   1      33.241  19.498 -23.354  0.00  0.00    -0.114 NA
BRANCH   4   7
ATOM      7  C   UNL d   1      32.695  17.469 -23.316  0.00  0.00     0.046 A 
ATOM      8  C   UNL d   1      33.239  16.864 -23.199  0.00  0.00     0.024 A 
ATOM      9  C   UNL d   1      33.004  16.078 -23.375  0.00  0.00     0.099 A 
ATOM     10  N   UNL d   1      32.256  15.906 -23.656  0.00  0.00    -0.242 NA
ATOM     11  C   UNL d   1      31.704  16.523 -23.776  0.00  0.00     0.099 A 
ATOM     12  C   UNL d   1      31.914  17.303 -23.609  0.00  0.00     0.024 A 
ENDBRANCH   4   7
ENDBRANCH   1   2
BRANCH   1  13
ATOM     13  C   UNL d   1      32.840  20.645 -21.937  0.00  0.00     0.101 C 
BRANCH  13  14
ATOM     14  C   UNL d   1      32.889  21.145 -21.288  0.00  0.00     0.286 C 
ATOM     15  N   UNL d   1      32.631  21.936 -21.355  0.00  0.00    -0.207 NA
ATOM     16  O   UNL d   1      33.189  20.880 -20.564  0.00  0.00    -0.265 OA
BRANCH  15  17
ATOM     17  C   UNL d   1      32.676  22.452 -20.699  0.00  0.00     0.095 A 
ATOM     18  C   UNL d   1      32.271  23.157 -20.708  0.00  0.00     0.075 A 
ATOM     19 CL   UNL d   1      31.801  23.381 -21.369  0.00  0.00    -0.081 Cl
ATOM     20  C   UNL d   1      32.322  23.667 -20.047  0.00  0.00     0.013 A 
ATOM     21  C   UNL d   1      32.766  23.470 -19.406  0.00  0.00     0.001 A 
ATOM     22  C   UNL d   1      33.182  22.760 -19.382  0.00  0.00     0.002 A 
ATOM     23  C   UNL d   1      33.136  22.238 -20.045  0.00  0.00     0.020 A 
ENDBRANCH  15  17
ENDBRANCH  13  14
ENDBRANCH   1  13
TORSDOF 5
ENDMDL
MODEL 2
REMARK VINA RESULT:      -2.9      2.097      5.870
REMARK  5 active torsions:
REMARK  status: ('A' for Active; 'I' for Inactive)
REMARK    1  A    between atoms: C_10  and  C_3 
REMARK    2  A    between atoms: S_9  and  C_4 
REMARK       I    between atoms: N_6  and  C_7 
REMARK    3  A    between atoms: C_8  and  N_6 
REMARK    4  A    between atoms: C_7  and  C_14 
REMARK    5  A    between atoms: C_14  and  S_9 
ROOT
ATOM      1  S   UNL d   1      33.081  19.038 -23.028  0.00  0.00    -0.036 SA
ENDROOT
BRANCH   1   2
ATOM      2  C   UNL d   1      33.052  19.568 -22.370  0.00  0.00     0.236 A 
ATOM      3  O   UNL d   1      32.801  20.351 -22.470  0.00  0.00    -0.263 OA
ATOM      4  C   UNL d   1      32.838  20.706 -21.743  0.00  0.00     0.205 A 
ATOM      5  N   UNL d   1      33.100  20.175 -21.208  0.00  0.00    -0.120 NA
ATOM      6  N   UNL d   1      33.240  19.459 -21.572  0.00  0.00    -0.114 NA
BRANCH   4   7
ATOM      7  C   UNL d   1      32.644  21.475 -21.573  0.00  0.00     0.046 A 
ATOM      8  C   UNL d   1      32.838  22.087 -22.084  0.00  0.00     0.024 A 
ATOM      9  C   UNL d   1      32.619  22.869 -21.870  0.00  0.00     0.099 A 
ATOM     10  N   UNL d   1      32.222  23.028 -21.174  0.00  0.00    -0.242 NA
ATOM     11  C   UNL d   1      32.025  22.402 -20.654  0.00  0.00     0.099 A 
ATOM     12  C   UNL d   1      32.231  21.627 -20.845  0.00  0.00     0.024 A 
ENDBRANCH   4   7
ENDBRANCH   1   2
BRANCH   1  13
ATOM     13  C   UNL d   1      32.896  18.259 -22.918  0.00  0.00     0.101 C 
BRANCH  13  14
ATOM     14  C   UNL d   1      32.495  17.860 -23.512  0.00  0.00     0.286 C 
ATOM     15  N   UNL d   1      31.996  17.220 -23.316  0.00  0.00    -0.207 NA
ATOM     16  O   UNL d   1      32.575  18.080 -24.306  0.00  0.00    -0.265 OA
BRANCH  15  17
ATOM     17  C   UNL d   1      31.583  16.808 -23.916  0.00  0.00     0.095 A 
ATOM     18  C   UNL d   1      31.657  16.001 -23.978  0.00  0.00     0.075 A 
ATOM     19 CL   UNL d   1      32.144  15.566 -23.448  0.00  0.00    -0.081 Cl
ATOM     20  C   UNL d   1      31.241  15.597 -24.580  0.00  0.00     0.013 A 
ATOM     21  C   UNL d   1      30.770  15.996 -25.097  0.00  0.00     0.001 A 
ATOM     22  C   UNL d   1      30.686  16.813 -25.047  0.00  0.00     0.002 A 
ATOM     23  C   UNL d   1      31.103  17.229 -24.441  0.00  0.00     0.020 A 
ENDBRANCH  15  17
ENDBRANCH  13  14
ENDBRANCH   1  13
TORSDOF 5
ENDMDL
