MODEL 1
REMARK VINA RESULT:      -3.4      0.000      0.000
REMARK  5 active torsions:
REMARK  status: ('A' for Active; 'I' for Inactive)
REMARK    1  A    between atoms: C_3  and  S_1 
REMARK    2  A    between atoms: N_6  and  S_1 
REMARK    3  A    between atoms: S_2  and  N_4 
REMARK    4  A    between atoms: C_10  and  S_2 
REMARK    5  A    between atoms: N_4  and  C_5 
ROOT
ATOM      1  C   UNL d   1      58.139  -0.010  31.125  0.00  0.00     0.105 A 
ATOM      2  C   UNL d   1      58.812  -0.169  29.879  0.00  0.00     0.076 A 
ATOM      3  C   UNL d   1      58.152  -0.296  30.342  0.00  0.00     0.031 A 
ATOM      4  C   UNL d   1      58.793   0.396  31.417  0.00  0.00     0.012 A 
ATOM      5  C   UNL d   1      59.467   0.238  30.173  0.00  0.00     0.017 A 
ATOM      6  C   UNL d   1      59.463   0.523  30.942  0.00  0.00     0.002 A 
ATOM      7  C   UNL d   1      60.139   0.366  29.697  0.00  0.00     0.002 C 
ATOM      8  C   UNL d   1      58.780   0.681  32.199  0.00  0.00     0.001 C 
ENDROOT
BRANCH   2   9
ATOM      9  N   UNL d   1      58.799  -0.463  29.105  0.00  0.00    -0.229 N 
ATOM     10  C   UNL d   1      58.703   0.052  28.488  0.00  0.00     0.111 C 
BRANCH   9  11
ATOM     11  S   UNL d   1      58.883  -1.262  28.977  0.00  0.00     0.271 S 
ATOM     12  O   UNL d   1      58.075  -1.326  28.846  0.00  0.00    -0.200 OA
ATOM     13  O   UNL d   1      59.703  -1.215  29.106  0.00  0.00    -0.200 OA
BRANCH  11  14
ATOM     14  C   UNL d   1      58.962  -2.086  28.844  0.00  0.00     0.104 A 
ATOM     15  C   UNL d   1      58.292  -2.550  28.717  0.00  0.00     0.013 A 
ATOM     16  C   UNL d   1      58.374  -3.350  28.588  0.00  0.00     0.001 A 
ATOM     17  C   UNL d   1      59.134  -3.684  28.587  0.00  0.00     0.000 A 
ATOM     18  C   UNL d   1      59.787  -3.231  28.711  0.00  0.00     0.001 A 
ATOM     19  C   UNL d   1      59.230  -4.506  28.455  0.00  0.00     0.000 C 
ATOM     20  C   UNL d   1      59.715  -2.424  28.842  0.00  0.00     0.013 A 
ENDBRANCH  11  14
ENDBRANCH   9  11
ENDBRANCH   2   9
BRANCH   1  21
ATOM     21  S   UNL d   1      57.478  -0.129  31.610  0.00  0.00     0.271 S 
ATOM     22  O   UNL d   1      57.073   0.499  31.230  0.00  0.00    -0.200 OA
ATOM     23  O   UNL d   1      57.880  -0.760  31.994  0.00  0.00    -0.200 OA
BRANCH  21  24
ATOM     24  N   UNL d   1      56.819  -0.252  32.097  0.00  0.00    -0.229 N 
ATOM     25  C   UNL d   1      56.353   0.381  32.331  0.00  0.00     0.092 A 
ATOM     26  C   UNL d   1      55.688   0.272  32.820  0.00  0.00     0.020 A 
ATOM     27  C   UNL d   1      55.499  -0.484  33.071  0.00  0.00     0.003 A 
ATOM     28  C   UNL d   1      55.970  -1.122  32.834  0.00  0.00     0.020 A 
ATOM     29  C   UNL d   1      54.854  -0.608  33.548  0.00  0.00     0.000 C 
ATOM     30  C   UNL d   1      56.610  -1.002  32.361  0.00  0.00     0.092 A 
ENDBRANCH  21  24
ENDBRANCH   1  21
TORSDOF 5
ENDMDL
