MODEL 1
REMARK VINA RESULT:      -6.7      0.000      0.000
REMARK  3 active torsions:
REMARK  status: ('A' for Active; 'I' for Inactive)
REMARK    1  A    between atoms: C_6  and  C_1 
REMARK       I    between atoms: N_10  and  C_6 
REMARK    2  A    between atoms: C_23  and  N_10 
REMARK    3  A    between atoms: C_22  and  C_23 
ROOT
ATOM      1  C   UNL d   1      58.249   0.250  30.095  0.00  0.00     0.266 C 
ATOM      2  N   UNL d   1      58.084   0.015  30.863  0.00  0.00    -0.210 NA
ATOM      3  O   UNL d   1      57.560   0.511  29.744  0.00  0.00    -0.269 OA
ENDROOT
BRANCH   1   4
ATOM      4  C   UNL d   1      59.025   0.177  29.858  0.00  0.00     0.150 A 
ATOM      5  C   UNL d   1      60.445   0.232  29.618  0.00  0.00     0.028 A 
ATOM      6  C   UNL d   1      59.760   0.040  29.564  0.00  0.00     0.078 A 
ATOM      7  C   UNL d   1      61.130   0.621  29.875  0.00  0.00     0.002 C 
ATOM      8  C   UNL d   1      60.848  -0.227  29.062  0.00  0.00     0.002 C 
ATOM      9  C   UNL d   1      60.170  -0.416  29.009  0.00  0.00     0.012 C 
ATOM     10  C   UNL d   1      59.413   0.487  30.096  0.00  0.00    -0.023 A 
ATOM     11  C   UNL d   1      59.550  -0.529  29.022  0.00  0.00     0.211 A 
ATOM     12  C   UNL d   1      58.783   0.636  30.381  0.00  0.00    -0.015 A 
ATOM     13  C   UNL d   1      58.832  -0.371  29.335  0.00  0.00     0.219 A 
ATOM     14  O   UNL d   1      59.954  -0.991  28.463  0.00  0.00    -0.288 OA
ATOM     15  O   UNL d   1      58.612  -0.940  28.795  0.00  0.00    -0.287 OA
ENDBRANCH   1   4
BRANCH   2  16
ATOM     16  C   UNL d   1      57.312   0.068  31.155  0.00  0.00     0.102 C 
BRANCH  16  17
ATOM     17  C   UNL d   1      56.805  -0.144  31.766  0.00  0.00     0.021 A 
ATOM     18  C   UNL d   1      56.435   0.446  32.216  0.00  0.00     0.028 A 
ATOM     19  C   UNL d   1      55.920   0.235  32.838  0.00  0.00     0.119 A 
ATOM     20  O   UNL d   1      55.483   0.682  33.367  0.00  0.00    -0.300 OA
ATOM     21  C   UNL d   1      55.780  -0.568  33.001  0.00  0.00     0.119 A 
ATOM     22  C   UNL d   1      55.072   0.171  33.861  0.00  0.00     0.304 A 
ATOM     23  O   UNL d   1      55.255  -0.604  33.636  0.00  0.00    -0.300 OA
ATOM     24  C   UNL d   1      56.154  -1.150  32.547  0.00  0.00     0.026 A 
ATOM     25  C   UNL d   1      56.664  -0.941  31.932  0.00  0.00     0.004 A 
ENDBRANCH  16  17
ENDBRANCH   2  16
TORSDOF 3
ENDMDL
MODEL 2
REMARK VINA RESULT:      -6.2      0.803      1.191
REMARK  3 active torsions:
REMARK  status: ('A' for Active; 'I' for Inactive)
REMARK    1  A    between atoms: C_6  and  C_1 
REMARK       I    between atoms: N_10  and  C_6 
REMARK    2  A    between atoms: C_23  and  N_10 
REMARK    3  A    between atoms: C_22  and  C_23 
ROOT
ATOM      1  C   UNL d   1      58.097  -0.347  30.048  0.00  0.00     0.266 C 
ATOM      2  N   UNL d   1      57.847  -0.683  30.752  0.00  0.00    -0.210 NA
ATOM      3  O   UNL d   1      57.602   0.274  29.859  0.00  0.00    -0.269 OA
ENDROOT
BRANCH   1   4
ATOM      4  C   UNL d   1      58.753  -0.686  29.703  0.00  0.00     0.150 A 
ATOM      5  C   UNL d   1      59.755  -1.489  29.049  0.00  0.00     0.028 A 
ATOM      6  C   UNL d   1      59.446  -0.942  29.386  0.00  0.00     0.078 A 
ATOM      7  C   UNL d   1      59.858  -2.227  28.685  0.00  0.00     0.002 C 
ATOM      8  C   UNL d   1      60.539  -1.258  28.925  0.00  0.00     0.002 C 
ATOM      9  C   UNL d   1      60.231  -0.717  29.259  0.00  0.00     0.012 C 
ATOM     10  C   UNL d   1      58.717  -1.191  29.485  0.00  0.00    -0.023 A 
ATOM     11  C   UNL d   1      59.888  -0.281  29.556  0.00  0.00     0.211 A 
ATOM     12  C   UNL d   1      58.090  -1.002  29.753  0.00  0.00    -0.015 A 
ATOM     13  C   UNL d   1      59.186  -0.055  29.863  0.00  0.00     0.219 A 
ATOM     14  O   UNL d   1      60.675  -0.048  29.433  0.00  0.00    -0.288 OA
ATOM     15  O   UNL d   1      59.621   0.612  30.038  0.00  0.00    -0.287 OA
ENDBRANCH   1   4
BRANCH   2  16
ATOM     16  C   UNL d   1      57.186  -0.378  31.144  0.00  0.00     0.102 C 
BRANCH  16  17
ATOM     17  C   UNL d   1      56.691  -0.456  31.795  0.00  0.00     0.021 A 
ATOM     18  C   UNL d   1      56.307   0.212  32.102  0.00  0.00     0.028 A 
ATOM     19  C   UNL d   1      55.803   0.136  32.763  0.00  0.00     0.119 A 
ATOM     20  O   UNL d   1      55.358   0.682  33.182  0.00  0.00    -0.300 OA
ATOM     21  C   UNL d   1      55.690  -0.611  33.111  0.00  0.00     0.119 A 
ATOM     22  C   UNL d   1      54.967   0.288  33.787  0.00  0.00     0.304 A 
ATOM     23  O   UNL d   1      55.171  -0.513  33.744  0.00  0.00    -0.300 OA
ATOM     24  C   UNL d   1      56.078  -1.271  32.797  0.00  0.00     0.026 A 
ATOM     25  C   UNL d   1      56.576  -1.196  32.143  0.00  0.00     0.004 A 
ENDBRANCH  16  17
ENDBRANCH   2  16
TORSDOF 3
ENDMDL
MODEL 3
REMARK VINA RESULT:      -6.1      1.243      5.218
REMARK  3 active torsions:
REMARK  status: ('A' for Active; 'I' for Inactive)
REMARK    1  A    between atoms: C_6  and  C_1 
REMARK       I    between atoms: N_10  and  C_6 
REMARK    2  A    between atoms: C_23  and  N_10 
REMARK    3  A    between atoms: C_22  and  C_23 
ROOT
ATOM      1  C   UNL d   1      56.538  -0.623  32.496  0.00  0.00     0.266 C 
ATOM      2  N   UNL d   1      56.740  -0.167  31.845  0.00  0.00    -0.210 NA
ATOM      3  O   UNL d   1      56.891  -1.356  32.426  0.00  0.00    -0.269 OA
ENDROOT
BRANCH   1   4
ATOM      4  C   UNL d   1      56.053  -0.267  33.045  0.00  0.00     0.150 A 
ATOM      5  C   UNL d   1      55.003   0.293  33.857  0.00  0.00     0.028 A 
ATOM      6  C   UNL d   1      55.654   0.103  33.636  0.00  0.00     0.078 A 
ATOM      7  C   UNL d   1      54.180   0.388  33.875  0.00  0.00     0.002 C 
ATOM      8  C   UNL d   1      55.119   0.681  34.577  0.00  0.00     0.002 C 
ATOM      9  C   UNL d   1      55.762   0.492  34.357  0.00  0.00     0.012 C 
ATOM     10  C   UNL d   1      55.509  -0.257  32.963  0.00  0.00    -0.023 A 
ATOM     11  C   UNL d   1      56.299   0.291  34.095  0.00  0.00     0.211 A 
ATOM     12  C   UNL d   1      55.824  -0.589  32.424  0.00  0.00    -0.015 A 
ATOM     13  C   UNL d   1      56.668  -0.082  33.493  0.00  0.00     0.219 A 
ATOM     14  O   UNL d   1      56.415   0.681  34.818  0.00  0.00    -0.288 OA
ATOM     15  O   UNL d   1      57.319   0.103  33.946  0.00  0.00    -0.287 OA
ENDBRANCH   1   4
BRANCH   2  16
ATOM     16  C   UNL d   1      57.230  -0.479  31.257  0.00  0.00     0.102 C 
BRANCH  16  17
ATOM     17  C   UNL d   1      57.690  -0.305  30.598  0.00  0.00     0.021 A 
ATOM     18  C   UNL d   1      58.093  -0.915  30.207  0.00  0.00     0.028 A 
ATOM     19  C   UNL d   1      58.561  -0.742  29.537  0.00  0.00     0.119 A 
ATOM     20  O   UNL d   1      59.014  -1.215  29.046  0.00  0.00    -0.300 OA
ATOM     21  C   UNL d   1      58.620   0.042  29.268  0.00  0.00     0.119 A 
ATOM     22  C   UNL d   1      59.357  -0.739  28.471  0.00  0.00     0.304 A 
ATOM     23  O   UNL d   1      59.114   0.041  28.607  0.00  0.00    -0.300 OA
ATOM     24  C   UNL d   1      58.214   0.643  29.666  0.00  0.00     0.026 A 
ATOM     25  C   UNL d   1      57.751   0.473  30.328  0.00  0.00     0.004 A 
ENDBRANCH  16  17
ENDBRANCH   2  16
TORSDOF 3
ENDMDL
MODEL 4
REMARK VINA RESULT:      -5.8      1.382      4.885
REMARK  3 active torsions:
REMARK  status: ('A' for Active; 'I' for Inactive)
REMARK    1  A    between atoms: C_6  and  C_1 
REMARK       I    between atoms: N_10  and  C_6 
REMARK    2  A    between atoms: C_23  and  N_10 
REMARK    3  A    between atoms: C_22  and  C_23 
ROOT
ATOM      1  C   UNL d   1      57.264   0.067  31.566  0.00  0.00     0.266 C 
ATOM      2  N   UNL d   1      57.439  -0.638  31.186  0.00  0.00    -0.210 NA
ATOM      3  O   UNL d   1      57.614   0.682  31.159  0.00  0.00    -0.269 OA
ENDROOT
BRANCH   1   4
ATOM      4  C   UNL d   1      56.801   0.007  32.234  0.00  0.00     0.150 A 
ATOM      5  C   UNL d   1      55.807  -0.205  33.256  0.00  0.00     0.028 A 
ATOM      6  C   UNL d   1      56.417  -0.011  32.939  0.00  0.00     0.078 A 
ATOM      7  C   UNL d   1      55.043  -0.507  33.363  0.00  0.00     0.002 C 
ATOM      8  C   UNL d   1      55.898  -0.004  34.052  0.00  0.00     0.002 C 
ATOM      9  C   UNL d   1      56.500   0.187  33.737  0.00  0.00     0.012 C 
ATOM     10  C   UNL d   1      56.297  -0.213  32.199  0.00  0.00    -0.023 A 
ATOM     11  C   UNL d   1      57.005   0.329  33.387  0.00  0.00     0.211 A 
ATOM     12  C   UNL d   1      56.603  -0.214  31.561  0.00  0.00    -0.015 A 
ATOM     13  C   UNL d   1      57.361   0.334  32.672  0.00  0.00     0.219 A 
ATOM     14  O   UNL d   1      57.096   0.531  34.186  0.00  0.00    -0.288 OA
ATOM     15  O   UNL d   1      57.955   0.676  33.112  0.00  0.00    -0.287 OA
ENDBRANCH   1   4
BRANCH   2  16
ATOM     16  C   UNL d   1      57.905  -0.635  30.503  0.00  0.00     0.102 C 
BRANCH  16  17
ATOM     17  C   UNL d   1      58.339  -1.097  29.980  0.00  0.00     0.021 A 
ATOM     18  C   UNL d   1      58.161  -1.903  29.898  0.00  0.00     0.028 A 
ATOM     19  C   UNL d   1      58.599  -2.375  29.368  0.00  0.00     0.119 A 
ATOM     20  O   UNL d   1      58.554  -3.169  29.171  0.00  0.00    -0.300 OA
ATOM     21  C   UNL d   1      59.213  -2.033  28.923  0.00  0.00     0.119 A 
ATOM     22  C   UNL d   1      59.131  -3.331  28.610  0.00  0.00     0.304 A 
ATOM     23  O   UNL d   1      59.541  -2.628  28.455  0.00  0.00    -0.300 OA
ATOM     24  C   UNL d   1      59.383  -1.229  29.012  0.00  0.00     0.026 A 
ATOM     25  C   UNL d   1      58.950  -0.761  29.537  0.00  0.00     0.004 A 
ENDBRANCH  16  17
ENDBRANCH   2  16
TORSDOF 3
ENDMDL
MODEL 5
REMARK VINA RESULT:      -4.1      1.221      1.809
REMARK  3 active torsions:
REMARK  status: ('A' for Active; 'I' for Inactive)
REMARK    1  A    between atoms: C_6  and  C_1 
REMARK       I    between atoms: N_10  and  C_6 
REMARK    2  A    between atoms: C_23  and  N_10 
REMARK    3  A    between atoms: C_22  and  C_23 
ROOT
ATOM      1  C   UNL d   1      57.269   0.270  31.061  0.00  0.00     0.266 C 
ATOM      2  N   UNL d   1      57.458   0.362  31.853  0.00  0.00    -0.210 NA
ATOM      3  O   UNL d   1      56.506   0.533  30.938  0.00  0.00    -0.269 OA
ENDROOT
BRANCH   1   4
ATOM      4  C   UNL d   1      57.851  -0.048  30.589  0.00  0.00     0.150 A 
ATOM      5  C   UNL d   1      58.968  -0.366  29.735  0.00  0.00     0.028 A 
ATOM      6  C   UNL d   1      58.385  -0.446  30.138  0.00  0.00     0.078 A 
ATOM      7  C   UNL d   1      59.605  -0.009  29.342  0.00  0.00     0.002 C 
ATOM      8  C   UNL d   1      59.157  -1.124  29.467  0.00  0.00     0.002 C 
ATOM      9  C   UNL d   1      58.580  -1.201  29.866  0.00  0.00     0.012 C 
ATOM     10  C   UNL d   1      58.236   0.281  30.371  0.00  0.00    -0.023 A 
ATOM     11  C   UNL d   1      58.068  -1.188  30.234  0.00  0.00     0.211 A 
ATOM     12  C   UNL d   1      57.788   0.665  30.759  0.00  0.00    -0.015 A 
ATOM     13  C   UNL d   1      57.554  -0.767  30.675  0.00  0.00     0.219 A 
ATOM     14  O   UNL d   1      58.258  -1.950  29.965  0.00  0.00    -0.288 OA
ATOM     15  O   UNL d   1      57.230  -1.507  30.777  0.00  0.00    -0.287 OA
ENDBRANCH   1   4
BRANCH   2  16
ATOM     16  C   UNL d   1      56.904   0.680  32.377  0.00  0.00     0.102 C 
BRANCH  16  17
ATOM     17  C   UNL d   1      56.629   0.680  33.152  0.00  0.00     0.021 A 
ATOM     18  C   UNL d   1      55.812   0.681  33.298  0.00  0.00     0.028 A 
ATOM     19  C   UNL d   1      55.530   0.681  34.083  0.00  0.00     0.119 A 
ATOM     20  O   UNL d   1      54.773   0.682  34.396  0.00  0.00    -0.300 OA
ATOM     21  C   UNL d   1      56.070   0.681  34.715  0.00  0.00     0.119 A 
ATOM     22  C   UNL d   1      54.830   0.682  35.215  0.00  0.00     0.304 A 
ATOM     23  O   UNL d   1      55.633   0.681  35.415  0.00  0.00    -0.300 OA
ATOM     24  C   UNL d   1      56.882   0.680  34.559  0.00  0.00     0.026 A 
ATOM     25  C   UNL d   1      57.162   0.680  33.782  0.00  0.00     0.004 A 
ENDBRANCH  16  17
ENDBRANCH   2  16
TORSDOF 3
ENDMDL
