MODEL 1
REMARK VINA RESULT:      -5.3      0.000      0.000
REMARK  4 active torsions:
REMARK  status: ('A' for Active; 'I' for Inactive)
REMARK    1  A    between atoms: C_6  and  C_1 
REMARK    2  A    between atoms: C_7  and  C_4 
REMARK       I    between atoms: N_9  and  C_6 
REMARK    3  A    between atoms: C_23  and  N_9 
REMARK    4  A    between atoms: C_11  and  C_23 
ROOT
ATOM      1  C   UNL d   1      57.058  -0.790  31.379  0.00  0.00     0.168 A 
ATOM      2  N   UNL d   1      56.721  -1.497  31.604  0.00  0.00    -0.121 NA
ATOM      3  C   UNL d   1      56.854  -0.220  31.950  0.00  0.00     0.053 A 
ATOM      4  C   UNL d   1      56.394  -0.591  32.516  0.00  0.00     0.127 A 
ATOM      5  O   UNL d   1      56.314  -1.380  32.298  0.00  0.00    -0.211 OA
ENDROOT
BRANCH   1   6
ATOM      6  C   UNL d   1      57.967  -0.473  30.080  0.00  0.00     0.299 C 
ATOM      7  N   UNL d   1      58.562  -1.045  29.846  0.00  0.00    -0.203 NA
ATOM      8  O   UNL d   1      57.885   0.209  29.633  0.00  0.00    -0.263 OA
BRANCH   7   9
ATOM      9  C   UNL d   1      59.057  -0.895  29.156  0.00  0.00     0.127 C 
BRANCH   9  10
ATOM     10  C   UNL d   1      59.648  -1.471  28.910  0.00  0.00     0.119 A 
ATOM     11  O   UNL d   1      60.483  -1.326  28.798  0.00  0.00    -0.304 OA
ATOM     12  C   UNL d   1      60.847  -2.055  28.554  0.00  0.00     0.123 A 
ATOM     13  C   UNL d   1      60.227  -2.668  28.513  0.00  0.00     0.029 A 
ATOM     14  C   UNL d   1      59.480  -2.296  28.737  0.00  0.00     0.028 A 
ENDBRANCH   9  10
ENDBRANCH   7   9
ENDBRANCH   1   6
BRANCH   4  15
ATOM     15  C   UNL d   1      56.063  -0.272  33.178  0.00  0.00     0.027 A 
ATOM     16  C   UNL d   1      55.254  -0.142  33.213  0.00  0.00     0.028 A 
ATOM     17  C   UNL d   1      54.929   0.177  33.880  0.00  0.00     0.119 A 
ATOM     18  O   UNL d   1      54.158   0.365  34.069  0.00  0.00    -0.300 OA
ATOM     19  C   UNL d   1      55.386   0.376  34.523  0.00  0.00     0.119 A 
ATOM     20  C   UNL d   1      54.144   0.674  34.819  0.00  0.00     0.304 A 
ATOM     21  O   UNL d   1      54.905   0.682  35.103  0.00  0.00    -0.300 OA
ATOM     22  C   UNL d   1      56.201   0.248  34.496  0.00  0.00     0.026 A 
ATOM     23  C   UNL d   1      56.527  -0.069  33.834  0.00  0.00     0.004 A 
ENDBRANCH   4  15
TORSDOF 4
ENDMDL
MODEL 2
REMARK VINA RESULT:      -3.8      1.425      6.341
REMARK  4 active torsions:
REMARK  status: ('A' for Active; 'I' for Inactive)
REMARK    1  A    between atoms: C_6  and  C_1 
REMARK    2  A    between atoms: C_7  and  C_4 
REMARK       I    between atoms: N_9  and  C_6 
REMARK    3  A    between atoms: C_23  and  N_9 
REMARK    4  A    between atoms: C_11  and  C_23 
ROOT
ATOM      1  C   UNL d   1      58.636  -0.720  29.740  0.00  0.00     0.168 A 
ATOM      2  N   UNL d   1      59.288  -0.466  29.323  0.00  0.00    -0.121 NA
ATOM      3  C   UNL d   1      58.609  -1.549  29.686  0.00  0.00     0.053 A 
ATOM      4  C   UNL d   1      59.247  -1.789  29.234  0.00  0.00     0.127 A 
ATOM      5  O   UNL d   1      59.665  -1.115  29.012  0.00  0.00    -0.211 OA
ENDROOT
BRANCH   1   6
ATOM      6  C   UNL d   1      57.549   0.162  30.550  0.00  0.00     0.299 C 
ATOM      7  N   UNL d   1      57.511   0.084  31.404  0.00  0.00    -0.203 NA
ATOM      8  O   UNL d   1      57.032   0.681  30.183  0.00  0.00    -0.263 OA
BRANCH   7   9
ATOM      9  C   UNL d   1      56.939   0.545  31.854  0.00  0.00     0.127 C 
BRANCH   9  10
ATOM     10  C   UNL d   1      56.621   0.242  32.595  0.00  0.00     0.119 A 
ATOM     11  O   UNL d   1      56.928   0.389  33.379  0.00  0.00    -0.304 OA
ATOM     12  C   UNL d   1      56.436  -0.022  33.937  0.00  0.00     0.123 A 
ATOM     13  C   UNL d   1      55.808  -0.435  33.494  0.00  0.00     0.029 A 
ATOM     14  C   UNL d   1      55.930  -0.266  32.655  0.00  0.00     0.028 A 
ENDBRANCH   9  10
ENDBRANCH   7   9
ENDBRANCH   1   6
BRANCH   4  15
ATOM     15  C   UNL d   1      59.460  -2.537  29.025  0.00  0.00     0.027 A 
ATOM     16  C   UNL d   1      60.223  -2.803  29.163  0.00  0.00     0.028 A 
ATOM     17  C   UNL d   1      60.429  -3.555  28.951  0.00  0.00     0.119 A 
ATOM     18  O   UNL d   1      61.133  -3.962  29.018  0.00  0.00    -0.300 OA
ATOM     19  C   UNL d   1      59.896  -4.060  28.602  0.00  0.00     0.119 A 
ATOM     20  C   UNL d   1      61.031  -4.706  28.714  0.00  0.00     0.304 A 
ATOM     21  O   UNL d   1      60.264  -4.770  28.455  0.00  0.00    -0.300 OA
ATOM     22  C   UNL d   1      59.126  -3.801  28.461  0.00  0.00     0.026 A 
ATOM     23  C   UNL d   1      58.917  -3.053  28.670  0.00  0.00     0.004 A 
ENDBRANCH   4  15
TORSDOF 4
ENDMDL
MODEL 3
REMARK VINA RESULT:      -2.8      1.175      6.231
REMARK  4 active torsions:
REMARK  status: ('A' for Active; 'I' for Inactive)
REMARK    1  A    between atoms: C_6  and  C_1 
REMARK    2  A    between atoms: C_7  and  C_4 
REMARK       I    between atoms: N_9  and  C_6 
REMARK    3  A    between atoms: C_23  and  N_9 
REMARK    4  A    between atoms: C_11  and  C_23 
ROOT
ATOM      1  C   UNL d   1      57.310   0.108  31.569  0.00  0.00     0.168 A 
ATOM      2  N   UNL d   1      56.998   0.486  30.919  0.00  0.00    -0.121 NA
ATOM      3  C   UNL d   1      57.887  -0.425  31.299  0.00  0.00     0.053 A 
ATOM      4  C   UNL d   1      57.919  -0.363  30.484  0.00  0.00     0.127 A 
ATOM      5  O   UNL d   1      57.367   0.202  30.253  0.00  0.00    -0.211 OA
ENDROOT
BRANCH   1   6
ATOM      6  C   UNL d   1      56.928   0.302  33.129  0.00  0.00     0.299 C 
ATOM      7  N   UNL d   1      56.116   0.492  33.332  0.00  0.00    -0.203 NA
ATOM      8  O   UNL d   1      57.474   0.228  33.734  0.00  0.00    -0.263 OA
BRANCH   7   9
ATOM      9  C   UNL d   1      55.892   0.599  34.157  0.00  0.00     0.127 C 
BRANCH   9  10
ATOM     10  C   UNL d   1      55.062   0.630  34.384  0.00  0.00     0.119 A 
ATOM     11  O   UNL d   1      54.752   0.656  35.180  0.00  0.00    -0.304 OA
ATOM     12  C   UNL d   1      53.903   0.682  35.132  0.00  0.00     0.123 A 
ATOM     13  C   UNL d   1      53.677   0.671  34.290  0.00  0.00     0.029 A 
ATOM     14  C   UNL d   1      54.406   0.639  33.827  0.00  0.00     0.028 A 
ENDBRANCH   9  10
ENDBRANCH   7   9
ENDBRANCH   1   6
BRANCH   4  15
ATOM     15  C   UNL d   1      58.391  -0.765  29.970  0.00  0.00     0.027 A 
ATOM     16  C   UNL d   1      58.448  -1.582  30.014  0.00  0.00     0.028 A 
ATOM     17  C   UNL d   1      58.924  -1.979  29.495  0.00  0.00     0.119 A 
ATOM     18  O   UNL d   1      59.085  -2.774  29.410  0.00  0.00    -0.300 OA
ATOM     19  C   UNL d   1      59.351  -1.587  28.925  0.00  0.00     0.119 A 
ATOM     20  C   UNL d   1      59.606  -2.867  28.795  0.00  0.00     0.304 A 
ATOM     21  O   UNL d   1      59.773  -2.132  28.492  0.00  0.00    -0.300 OA
ATOM     22  C   UNL d   1      59.300  -0.766  28.874  0.00  0.00     0.026 A 
ATOM     23  C   UNL d   1      58.828  -0.368  29.388  0.00  0.00     0.004 A 
ENDBRANCH   4  15
TORSDOF 4
ENDMDL
