MODEL 1
REMARK VINA RESULT:      39.4      0.000      0.000
REMARK  5 active torsions:
REMARK  status: ('A' for Active; 'I' for Inactive)
REMARK    1  A    between atoms: C_6  and  C_1 
REMARK    2  A    between atoms: C_8  and  N_3 
REMARK    3  A    between atoms: C_7  and  C_6 
REMARK    4  A    between atoms: C_9  and  C_7 
REMARK    5  A    between atoms: C_14  and  C_8 
ROOT
ATOM      1  C   UNL d   1     -56.827 -98.878 -44.275  0.00  0.00     0.148 A 
ATOM      2  N   UNL d   1     -57.156 -98.859 -45.128  0.00  0.00    -0.227 NA
ATOM      3  N   UNL d   1     -57.551 -98.855 -43.720  0.00  0.00    -0.289 N 
ATOM      4  C   UNL d   1     -58.323 -98.821 -44.220  0.00  0.00     0.083 A 
ATOM      5  C   UNL d   1     -58.074 -98.824 -45.106  0.00  0.00     0.099 A 
ATOM      6  C   UNL d   1     -59.212 -98.789 -43.990  0.00  0.00     0.019 A 
ATOM      7  C   UNL d   1     -58.719 -98.794 -45.744  0.00  0.00     0.021 A 
ATOM      8  C   UNL d   1     -59.838 -98.760 -44.646  0.00  0.00     0.002 A 
ATOM      9  C   UNL d   1     -59.589 -98.762 -45.533  0.00  0.00     0.002 A 
ENDROOT
BRANCH   1  10
ATOM     10  C   UNL d   1     -56.268 -98.904 -43.730  0.00  0.00     0.037 C 
BRANCH  10  11
ATOM     11  C   UNL d   1     -55.499 -99.126 -43.875  0.00  0.00     0.003 C 
BRANCH  11  12
ATOM     12  C   UNL d   1     -55.238 -99.895 -43.826  0.00  0.00     0.000 A 
ATOM     13  C   UNL d   1     -55.004-100.220 -43.118  0.00  0.00     0.000 A 
ATOM     14  C   UNL d   1     -54.743-100.988 -43.070  0.00  0.00     0.000 A 
ATOM     15  C   UNL d   1     -54.716-101.449 -43.754  0.00  0.00     0.000 A 
ATOM     16  C   UNL d   1     -54.950-101.131 -44.471  0.00  0.00     0.000 A 
ATOM     17  C   UNL d   1     -55.211-100.356 -44.510  0.00  0.00     0.000 A 
ENDBRANCH  11  12
ENDBRANCH  10  11
ENDBRANCH   1  10
BRANCH   3  18
ATOM     18  C   UNL d   1     -58.137 -98.837 -43.174  0.00  0.00     0.082 C 
BRANCH  18  19
ATOM     19  C   UNL d   1     -58.382 -99.551 -42.832  0.00  0.00     0.019 C 
ATOM     20  C   UNL d   1     -58.874 -99.536 -42.174  0.00  0.00     0.002 C 
ENDBRANCH  18  19
ENDBRANCH   3  18
TORSDOF 5
ENDMDL
