MODEL 1
REMARK VINA RESULT:       4.4      0.000      0.000
REMARK  2 active torsions:
REMARK  status: ('A' for Active; 'I' for Inactive)
REMARK    1  A    between atoms: C_8  and  C_2 
REMARK    2  A    between atoms: C_9  and  C_4 
ROOT
ATOM      1  N   UNL d   1     -41.398-121.562 -53.079  0.00  0.00    -0.246 NA
ATOM      2  C   UNL d   1     -41.638-122.462 -51.717  0.00  0.00     0.003 A 
ATOM      3  C   UNL d   1     -41.466-121.658 -51.655  0.00  0.00     0.018 A 
ATOM      4  C   UNL d   1     -41.569-122.367 -53.142  0.00  0.00     0.081 A 
ATOM      5  C   UNL d   1     -41.690-122.817 -52.459  0.00  0.00     0.019 A 
ATOM      6  C   UNL d   1     -41.346-121.208 -52.337  0.00  0.00     0.081 A 
ATOM      7  C   UNL d   1     -41.414-121.303 -50.913  0.00  0.00     0.002 A 
ATOM      8  C   UNL d   1     -41.174-120.404 -52.275  0.00  0.00     0.019 A 
ATOM      9  C   UNL d   1     -41.243-120.498 -50.850  0.00  0.00     0.000 A 
ATOM     10  C   UNL d   1     -41.123-120.048 -51.532  0.00  0.00     0.002 A 
ATOM     11  C   UNL d   1     -41.200-120.189 -50.139  0.00  0.00     0.000 C 
ENDROOT
BRANCH   2  12
ATOM     12  C   UNL d   1     -41.757-122.908 -51.040  0.00  0.00     0.000 A 
ATOM     13  C   UNL d   1     -41.124-123.310 -50.694  0.00  0.00     0.000 A 
ATOM     14  C   UNL d   1     -41.244-123.760 -50.012  0.00  0.00     0.000 A 
ATOM     15  C   UNL d   1     -41.997-123.808 -49.677  0.00  0.00     0.000 A 
ATOM     16  C   UNL d   1     -42.628-123.406 -50.022  0.00  0.00     0.000 A 
ATOM     17  C   UNL d   1     -42.508-122.956 -50.704  0.00  0.00     0.000 A 
ENDBRANCH   2  12
BRANCH   4  18
ATOM     18  C   UNL d   1     -41.621-122.722 -53.884  0.00  0.00     0.021 A 
ATOM     19  C   UNL d   1     -42.157-122.436 -54.442  0.00  0.00     0.022 A 
ATOM     20  C   UNL d   1     -42.209-122.791 -55.185  0.00  0.00     0.099 A 
ATOM     21  N   UNL d   1     -41.725-123.432 -55.369  0.00  0.00    -0.242 NA
ATOM     22  C   UNL d   1     -41.221-123.677 -54.800  0.00  0.00     0.099 A 
ATOM     23  C   UNL d   1     -41.137-123.364 -54.069  0.00  0.00     0.022 A 
ENDBRANCH   4  18
TORSDOF 2
ENDMDL
MODEL 2
REMARK VINA RESULT:       6.6      1.401      3.991
REMARK  2 active torsions:
REMARK  status: ('A' for Active; 'I' for Inactive)
REMARK    1  A    between atoms: C_8  and  C_2 
REMARK    2  A    between atoms: C_9  and  C_4 
ROOT
ATOM      1  N   UNL d   1     -41.671-123.541 -51.228  0.00  0.00    -0.246 NA
ATOM      2  C   UNL d   1     -41.451-121.933 -51.525  0.00  0.00     0.003 A 
ATOM      3  C   UNL d   1     -41.438-122.473 -52.148  0.00  0.00     0.018 A 
ATOM      4  C   UNL d   1     -41.684-123.001 -50.604  0.00  0.00     0.081 A 
ATOM      5  C   UNL d   1     -41.574-122.196 -50.753  0.00  0.00     0.019 A 
ATOM      6  C   UNL d   1     -41.548-123.278 -51.999  0.00  0.00     0.081 A 
ATOM      7  C   UNL d   1     -41.315-122.209 -52.920  0.00  0.00     0.002 A 
ATOM      8  C   UNL d   1     -41.535-123.817 -52.622  0.00  0.00     0.019 A 
ATOM      9  C   UNL d   1     -41.302-122.749 -53.543  0.00  0.00     0.000 A 
ATOM     10  C   UNL d   1     -41.412-123.554 -53.395  0.00  0.00     0.002 A 
ATOM     11  C   UNL d   1     -41.184-122.475 -54.260  0.00  0.00     0.000 C 
ENDROOT
BRANCH   2  12
ATOM     12  C   UNL d   1     -41.342-121.134 -51.673  0.00  0.00     0.000 A 
ATOM     13  C   UNL d   1     -41.303-120.860 -52.451  0.00  0.00     0.000 A 
ATOM     14  C   UNL d   1     -41.193-120.055 -52.599  0.00  0.00     0.000 A 
ATOM     15  C   UNL d   1     -41.123-119.526 -51.970  0.00  0.00     0.000 A 
ATOM     16  C   UNL d   1     -41.162-119.800 -51.194  0.00  0.00     0.000 A 
ATOM     17  C   UNL d   1     -41.272-120.605 -51.045  0.00  0.00     0.000 A 
ENDBRANCH   2  12
BRANCH   4  18
ATOM     18  C   UNL d   1     -41.807-123.264 -49.832  0.00  0.00     0.021 A 
ATOM     19  C   UNL d   1     -42.571-123.287 -49.520  0.00  0.00     0.022 A 
ATOM     20  C   UNL d   1     -42.694-123.551 -48.749  0.00  0.00     0.099 A 
ATOM     21  N   UNL d   1     -42.053-123.791 -48.288  0.00  0.00    -0.242 NA
ATOM     22  C   UNL d   1     -41.332-123.753 -48.630  0.00  0.00     0.099 A 
ATOM     23  C   UNL d   1     -41.166-123.505 -49.372  0.00  0.00     0.022 A 
ENDBRANCH   4  18
TORSDOF 2
ENDMDL
MODEL 3
REMARK VINA RESULT:       6.8      1.341      3.539
REMARK  2 active torsions:
REMARK  status: ('A' for Active; 'I' for Inactive)
REMARK    1  A    between atoms: C_8  and  C_2 
REMARK    2  A    between atoms: C_9  and  C_4 
ROOT
ATOM      1  N   UNL d   1     -41.724-121.638 -50.553  0.00  0.00    -0.246 NA
ATOM      2  C   UNL d   1     -41.671-122.383 -52.024  0.00  0.00     0.003 A 
ATOM      3  C   UNL d   1     -41.545-121.570 -51.969  0.00  0.00     0.018 A 
ATOM      4  C   UNL d   1     -41.851-122.452 -50.608  0.00  0.00     0.081 A 
ATOM      5  C   UNL d   1     -41.824-122.825 -51.344  0.00  0.00     0.019 A 
ATOM      6  C   UNL d   1     -41.571-121.197 -51.232  0.00  0.00     0.081 A 
ATOM      7  C   UNL d   1     -41.392-121.129 -52.648  0.00  0.00     0.002 A 
ATOM      8  C   UNL d   1     -41.445-120.385 -51.177  0.00  0.00     0.019 A 
ATOM      9  C   UNL d   1     -41.265-120.316 -52.593  0.00  0.00     0.000 A 
ATOM     10  C   UNL d   1     -41.291-119.943 -51.857  0.00  0.00     0.002 A 
ATOM     11  C   UNL d   1     -41.123-119.924 -53.248  0.00  0.00     0.000 C 
ENDROOT
BRANCH   2  12
ATOM     12  C   UNL d   1     -41.645-122.753 -52.756  0.00  0.00     0.000 A 
ATOM     13  C   UNL d   1     -41.179-123.425 -52.861  0.00  0.00     0.000 A 
ATOM     14  C   UNL d   1     -41.152-123.798 -53.597  0.00  0.00     0.000 A 
ATOM     15  C   UNL d   1     -41.592-123.497 -54.227  0.00  0.00     0.000 A 
ATOM     16  C   UNL d   1     -42.058-122.825 -54.122  0.00  0.00     0.000 A 
ATOM     17  C   UNL d   1     -42.084-122.452 -53.385  0.00  0.00     0.000 A 
ENDBRANCH   2  12
BRANCH   4  18
ATOM     18  C   UNL d   1     -42.004-122.893 -49.928  0.00  0.00     0.021 A 
ATOM     19  C   UNL d   1     -41.381-123.231 -49.506  0.00  0.00     0.022 A 
ATOM     20  C   UNL d   1     -41.534-123.672 -48.826  0.00  0.00     0.099 A 
ATOM     21  N   UNL d   1     -42.310-123.776 -48.568  0.00  0.00    -0.242 NA
ATOM     22  C   UNL d   1     -42.882-123.432 -49.007  0.00  0.00     0.099 A 
ATOM     23  C   UNL d   1     -42.781-122.997 -49.670  0.00  0.00     0.022 A 
ENDBRANCH   4  18
TORSDOF 2
ENDMDL
