MODEL 1
REMARK VINA RESULT:      -4.8      0.000      0.000
REMARK  4 active torsions:
REMARK  status: ('A' for Active; 'I' for Inactive)
REMARK    1  A    between atoms: C_7  and  N_2 
REMARK    2  A    between atoms: C_15  and  C_7 
REMARK    3  A    between atoms: C_8  and  O_14 
REMARK    4  A    between atoms: O_14  and  C_15 
ROOT
ATOM      1  C   UNL d   1      58.469  -0.046  28.870  0.00  0.00     0.296 A 
ATOM      2  N   UNL d   1      58.768   0.262  29.571  0.00  0.00    -0.266 N 
ATOM      3  S   UNL d   1      59.102  -0.418  28.466  0.00  0.00    -0.025 SA
ATOM      4  C   UNL d   1      59.578   0.085  29.607  0.00  0.00     0.074 A 
ATOM      5  C   UNL d   1      59.782  -0.332  28.930  0.00  0.00     0.050 A 
ATOM      6  O   UNL d   1      57.693  -0.000  28.607  0.00  0.00    -0.259 OA
ATOM      7  C   UNL d   1      60.149   0.258  30.180  0.00  0.00     0.018 A 
ATOM      8  C   UNL d   1      60.563  -0.585  28.810  0.00  0.00     0.008 A 
ATOM      9  C   UNL d   1      60.928   0.006  30.064  0.00  0.00     0.002 A 
ATOM     10  C   UNL d   1      61.133  -0.411  29.387  0.00  0.00     0.001 A 
ENDROOT
BRANCH   2  11
ATOM     11  C   UNL d   1      58.338   0.675  30.141  0.00  0.00     0.110 C 
BRANCH  11  12
ATOM     12  C   UNL d   1      57.834   0.274  30.653  0.00  0.00     0.142 C 
BRANCH  12  13
ATOM     13  O   UNL d   1      57.531   0.644  31.329  0.00  0.00    -0.304 OA
BRANCH  13  14
ATOM     14  C   UNL d   1      56.991   0.250  31.813  0.00  0.00     0.100 A 
ATOM     15  C   UNL d   1      56.455   0.682  32.268  0.00  0.00     0.025 A 
ATOM     16  C   UNL d   1      55.919   0.289  32.748  0.00  0.00     0.002 A 
ATOM     17  C   UNL d   1      55.919  -0.535  32.774  0.00  0.00     0.000 A 
ATOM     18  C   UNL d   1      56.459  -0.965  32.317  0.00  0.00     0.002 A 
ATOM     19  C   UNL d   1      55.376  -0.930  33.261  0.00  0.00     0.000 C 
ATOM     20  C   UNL d   1      56.993  -0.564  31.838  0.00  0.00     0.025 A 
ENDBRANCH  13  14
ENDBRANCH  12  13
ENDBRANCH  11  12
ENDBRANCH   2  11
TORSDOF 4
ENDMDL
MODEL 2
REMARK VINA RESULT:      -4.6      1.561      4.677
REMARK  4 active torsions:
REMARK  status: ('A' for Active; 'I' for Inactive)
REMARK    1  A    between atoms: C_7  and  N_2 
REMARK    2  A    between atoms: C_15  and  C_7 
REMARK    3  A    between atoms: C_8  and  O_14 
REMARK    4  A    between atoms: O_14  and  C_15 
ROOT
ATOM      1  C   UNL d   1      56.645  -1.113  31.865  0.00  0.00     0.296 A 
ATOM      2  N   UNL d   1      56.590  -0.294  31.896  0.00  0.00    -0.266 N 
ATOM      3  S   UNL d   1      56.248  -1.420  32.536  0.00  0.00    -0.025 SA
ATOM      4  C   UNL d   1      56.164  -0.089  32.578  0.00  0.00     0.074 A 
ATOM      5  C   UNL d   1      55.954  -0.779  32.969  0.00  0.00     0.050 A 
ATOM      6  O   UNL d   1      57.020  -1.556  31.284  0.00  0.00    -0.259 OA
ATOM      7  C   UNL d   1      55.944   0.648  32.883  0.00  0.00     0.018 A 
ATOM      8  C   UNL d   1      55.520  -0.749  33.675  0.00  0.00     0.008 A 
ATOM      9  C   UNL d   1      55.511   0.682  33.587  0.00  0.00     0.002 A 
ATOM     10  C   UNL d   1      55.302  -0.008  33.979  0.00  0.00     0.001 A 
ENDROOT
BRANCH   2  11
ATOM     11  C   UNL d   1      56.904   0.235  31.346  0.00  0.00     0.110 C 
BRANCH  11  12
ATOM     12  C   UNL d   1      57.680   0.152  31.086  0.00  0.00     0.142 C 
BRANCH  12  13
ATOM     13  O   UNL d   1      58.006   0.682  30.540  0.00  0.00    -0.304 OA
BRANCH  13  14
ATOM     14  C   UNL d   1      58.764   0.557  30.239  0.00  0.00     0.100 A 
ATOM     15  C   UNL d   1      59.423   0.680  30.721  0.00  0.00     0.025 A 
ATOM     16  C   UNL d   1      60.176   0.556  30.422  0.00  0.00     0.002 A 
ATOM     17  C   UNL d   1      60.271   0.309  29.640  0.00  0.00     0.000 A 
ATOM     18  C   UNL d   1      59.607   0.187  29.160  0.00  0.00     0.002 A 
ATOM     19  C   UNL d   1      61.034   0.184  29.340  0.00  0.00     0.000 C 
ATOM     20  C   UNL d   1      58.856   0.314  29.468  0.00  0.00     0.025 A 
ENDBRANCH  13  14
ENDBRANCH  12  13
ENDBRANCH  11  12
ENDBRANCH   2  11
TORSDOF 4
ENDMDL
MODEL 3
REMARK VINA RESULT:      -4.0      1.913      4.757
REMARK  4 active torsions:
REMARK  status: ('A' for Active; 'I' for Inactive)
REMARK    1  A    between atoms: C_7  and  N_2 
REMARK    2  A    between atoms: C_15  and  C_7 
REMARK    3  A    between atoms: C_8  and  O_14 
REMARK    4  A    between atoms: O_14  and  C_15 
ROOT
ATOM      1  C   UNL d   1      57.718   0.673  33.055  0.00  0.00     0.296 A 
ATOM      2  N   UNL d   1      57.083   0.656  32.534  0.00  0.00    -0.266 N 
ATOM      3  S   UNL d   1      57.409   0.680  33.834  0.00  0.00    -0.025 SA
ATOM      4  C   UNL d   1      56.383   0.652  32.980  0.00  0.00     0.074 A 
ATOM      5  C   UNL d   1      56.583   0.667  33.776  0.00  0.00     0.050 A 
ATOM      6  O   UNL d   1      58.515   0.682  32.855  0.00  0.00    -0.259 OA
ATOM      7  C   UNL d   1      55.589   0.636  32.749  0.00  0.00     0.018 A 
ATOM      8  C   UNL d   1      55.993   0.667  34.359  0.00  0.00     0.008 A 
ATOM      9  C   UNL d   1      54.998   0.636  33.328  0.00  0.00     0.002 A 
ATOM     10  C   UNL d   1      55.198   0.651  34.124  0.00  0.00     0.001 A 
ENDROOT
BRANCH   2  11
ATOM     11  C   UNL d   1      57.131   0.644  31.711  0.00  0.00     0.110 C 
BRANCH  11  12
ATOM     12  C   UNL d   1      57.546   0.046  31.327  0.00  0.00     0.142 C 
BRANCH  12  13
ATOM     13  O   UNL d   1      57.408  -0.124  30.529  0.00  0.00    -0.304 OA
BRANCH  13  14
ATOM     14  C   UNL d   1      58.003  -0.460  30.066  0.00  0.00     0.100 A 
ATOM     15  C   UNL d   1      58.512   0.025  29.634  0.00  0.00     0.025 A 
ATOM     16  C   UNL d   1      59.102  -0.310  29.174  0.00  0.00     0.002 A 
ATOM     17  C   UNL d   1      59.184  -1.131  29.146  0.00  0.00     0.000 A 
ATOM     18  C   UNL d   1      58.671  -1.614  29.581  0.00  0.00     0.002 A 
ATOM     19  C   UNL d   1      59.783  -1.467  28.680  0.00  0.00     0.000 C 
ATOM     20  C   UNL d   1      58.082  -1.270  30.040  0.00  0.00     0.025 A 
ENDBRANCH  13  14
ENDBRANCH  12  13
ENDBRANCH  11  12
ENDBRANCH   2  11
TORSDOF 4
ENDMDL
MODEL 4
REMARK VINA RESULT:      -3.2      9.134      9.675
REMARK  4 active torsions:
REMARK  status: ('A' for Active; 'I' for Inactive)
REMARK    1  A    between atoms: C_7  and  N_2 
REMARK    2  A    between atoms: C_15  and  C_7 
REMARK    3  A    between atoms: C_8  and  O_14 
REMARK    4  A    between atoms: O_14  and  C_15 
ROOT
ATOM      1  C   UNL d   1      58.401  -9.792  32.247  0.00  0.00     0.296 A 
ATOM      2  N   UNL d   1      59.104  -9.801  32.673  0.00  0.00    -0.266 N 
ATOM      3  S   UNL d   1      58.597  -9.788  31.433  0.00  0.00    -0.025 SA
ATOM      4  C   UNL d   1      59.734  -9.803  32.133  0.00  0.00     0.074 A 
ATOM      5  C   UNL d   1      59.423  -9.796  31.373  0.00  0.00     0.050 A 
ATOM      6  O   UNL d   1      57.641  -9.786  32.558  0.00  0.00    -0.259 OA
ATOM      7  C   UNL d   1      60.553  -9.812  32.249  0.00  0.00     0.018 A 
ATOM      8  C   UNL d   1      59.924  -9.796  30.712  0.00  0.00     0.008 A 
ATOM      9  C   UNL d   1      61.055  -9.812  31.592  0.00  0.00     0.002 A 
ATOM     10  C   UNL d   1      60.745  -9.804  30.832  0.00  0.00     0.001 A 
ENDROOT
BRANCH   2  11
ATOM     11  C   UNL d   1      59.173  -9.807  33.495  0.00  0.00     0.110 C 
BRANCH  11  12
ATOM     12  C   UNL d   1      59.170  -9.101  33.917  0.00  0.00     0.142 C 
BRANCH  12  13
ATOM     13  O   UNL d   1      59.320  -9.090  34.732  0.00  0.00    -0.304 OA
BRANCH  13  14
ATOM     14  C   UNL d   1      59.502  -8.382  35.113  0.00  0.00     0.100 A 
ATOM     15  C   UNL d   1      58.978  -7.745  35.069  0.00  0.00     0.025 A 
ATOM     16  C   UNL d   1      59.160  -7.041  35.449  0.00  0.00     0.002 A 
ATOM     17  C   UNL d   1      59.865  -6.973  35.871  0.00  0.00     0.000 A 
ATOM     18  C   UNL d   1      60.388  -7.614  35.912  0.00  0.00     0.002 A 
ATOM     19  C   UNL d   1      60.046  -6.260  36.254  0.00  0.00     0.000 C 
ATOM     20  C   UNL d   1      60.198  -8.316  35.529  0.00  0.00     0.025 A 
ENDBRANCH  13  14
ENDBRANCH  12  13
ENDBRANCH  11  12
ENDBRANCH   2  11
TORSDOF 4
ENDMDL
