MODEL 1
REMARK VINA RESULT:      91.6      0.000      0.000
REMARK  3 active torsions:
REMARK  status: ('A' for Active; 'I' for Inactive)
REMARK    1  A    between atoms: C_8  and  N_2 
REMARK    2  A    between atoms: C_14  and  C_8 
REMARK    3  A    between atoms: N_13  and  C_14 
ROOT
ATOM      1  C   UNL d   1      58.799  49.673  50.942  0.00  0.00     0.166 A 
ATOM      2  N   UNL d   1      59.516  49.676  51.397  0.00  0.00    -0.288 N 
ATOM      3  C   UNL d   1      58.958  49.675  50.106  0.00  0.00     0.117 A 
ATOM      4  C   UNL d   1      59.782  49.681  50.053  0.00  0.00     0.037 A 
ATOM      5  C   UNL d   1      60.120  49.681  50.860  0.00  0.00     0.067 A 
ATOM      6  N   UNL d   1      58.033  49.667  51.177  0.00  0.00    -0.225 NA
ATOM      7  N   UNL d   1      58.352  49.673  49.517  0.00  0.00    -0.241 NA
ATOM      8  C   UNL d   1      57.421  49.665  50.575  0.00  0.00     0.101 A 
ATOM      9  C   UNL d   1      57.578  49.667  49.745  0.00  0.00     0.099 A 
ATOM     10  C   UNL d   1      60.945  49.686  50.971  0.00  0.00     0.018 A 
ATOM     11  C   UNL d   1      60.256  49.685  49.380  0.00  0.00     0.003 A 
ATOM     12  C   UNL d   1      61.077  49.690  49.503  0.00  0.00     0.000 A 
ATOM     13  C   UNL d   1      61.420  49.690  50.297  0.00  0.00     0.002 A 
ATOM     14  C   UNL d   1      56.642  49.659  50.805  0.00  0.00     0.021 A 
ATOM     15  C   UNL d   1      56.968  49.665  49.158  0.00  0.00     0.021 A 
ATOM     16  C   UNL d   1      61.575  49.694  48.846  0.00  0.00     0.000 C 
ATOM     17  C   UNL d   1      56.036  49.657  50.215  0.00  0.00     0.002 A 
ATOM     18  C   UNL d   1      56.202  49.660  49.382  0.00  0.00     0.002 A 
ENDROOT
BRANCH   2  19
ATOM     19  C   UNL d   1      59.628  49.675  52.196  0.00  0.00     0.101 C 
BRANCH  19  20
ATOM     20  C   UNL d   1      59.794  48.980  52.573  0.00  0.00     0.100 C 
BRANCH  20  21
ATOM     21  N   UNL d   1      60.585  48.986  52.670  0.00  0.00    -0.298 N 
ATOM     22  C   UNL d   1      60.996  48.311  52.634  0.00  0.00     0.107 A 
ATOM     23  C   UNL d   1      61.788  48.313  52.731  0.00  0.00     0.142 A 
ATOM     24  O   UNL d   1      62.170  49.012  52.866  0.00  0.00    -0.300 OA
ATOM     25  C   UNL d   1      61.757  49.692  52.902  0.00  0.00     0.142 A 
ATOM     26  C   UNL d   1      60.968  49.681  52.805  0.00  0.00     0.107 A 
ENDBRANCH  20  21
ENDBRANCH  19  20
ENDBRANCH   2  19
TORSDOF 3
ENDMDL
