MODEL 1
REMARK VINA RESULT:      -4.3      0.000      0.000
REMARK  4 active torsions:
REMARK  status: ('A' for Active; 'I' for Inactive)
REMARK    1  A    between atoms: C_10  and  C_3 
REMARK       I    between atoms: N_11  and  C_10 
REMARK    2  A    between atoms: C_15  and  N_11 
REMARK    3  A    between atoms: C_17  and  C_15 
REMARK    4  A    between atoms: O_25  and  C_18 
ROOT
ATOM      1  C   UNL d   1     -41.634-122.347 -53.000  0.00  0.00     0.071 A 
ATOM      2  C   UNL d   1     -41.562-123.082 -53.416  0.00  0.00     0.142 A 
ATOM      3  C   UNL d   1     -41.480-122.485 -52.202  0.00  0.00     0.086 A 
ATOM      4  C   UNL d   1     -41.828-121.665 -53.408  0.00  0.00     0.198 A 
ATOM      5  O   UNL d   1     -41.364-123.671 -52.873  0.00  0.00    -0.304 OA
ATOM      6  C   UNL d   1     -41.316-123.292 -52.131  0.00  0.00     0.105 A 
ATOM      7  C   UNL d   1     -41.688-123.099 -54.220  0.00  0.00     0.218 A 
ATOM      8  C   UNL d   1     -41.955-121.686 -54.223  0.00  0.00     0.042 A 
ATOM      9  C   UNL d   1     -41.883-122.420 -54.639  0.00  0.00     0.044 A 
ATOM     10  O   UNL d   1     -41.899-120.948 -53.002  0.00  0.00    -0.286 OA
ATOM     11  O   UNL d   1     -41.617-123.816 -54.626  0.00  0.00    -0.284 OA
ATOM     12  C   UNL d   1     -41.130-123.676 -51.422  0.00  0.00     0.027 C 
ATOM     13  C   UNL d   1     -42.147-121.008 -54.623  0.00  0.00     0.003 A 
ATOM     14  C   UNL d   1     -42.007-122.442 -55.435  0.00  0.00     0.003 A 
ATOM     15  C   UNL d   1     -42.278-121.022 -55.452  0.00  0.00     0.000 A 
ATOM     16  C   UNL d   1     -42.206-121.756 -55.868  0.00  0.00     0.000 A 
ENDROOT
BRANCH   3  17
ATOM     17  C   UNL d   1     -41.484-121.936 -51.577  0.00  0.00     0.281 C 
ATOM     18  N   UNL d   1     -41.838-122.135 -50.871  0.00  0.00    -0.206 NA
ATOM     19  O   UNL d   1     -41.130-121.209 -51.690  0.00  0.00    -0.265 OA
BRANCH  18  20
ATOM     20  C   UNL d   1     -42.180-122.851 -50.777  0.00  0.00     0.102 C 
BRANCH  20  21
ATOM     21  C   UNL d   1     -42.480-123.055 -50.037  0.00  0.00     0.019 A 
ATOM     22  C   UNL d   1     -43.182-123.479 -49.977  0.00  0.00     0.004 A 
ATOM     23  C   UNL d   1     -43.492-123.689 -49.254  0.00  0.00     0.024 A 
ATOM     24  C   UNL d   1     -43.113-123.482 -48.570  0.00  0.00     0.094 A 
ATOM     25  C   UNL d   1     -42.397-123.050 -48.618  0.00  0.00     0.024 A 
ATOM     26  C   UNL d   1     -42.103-122.850 -49.350  0.00  0.00     0.004 A 
BRANCH  24  27
ATOM     27  O   UNL d   1     -43.453-123.710 -47.842  0.00  0.00    -0.328 OA
ATOM     28  C   UNL d   1     -43.028-123.616 -47.165  0.00  0.00     0.181 C 
ENDBRANCH  24  27
ENDBRANCH  20  21
ENDBRANCH  18  20
ENDBRANCH   3  17
TORSDOF 4
ENDMDL
