MODEL 1
REMARK VINA RESULT:      98.3      0.000      0.000
REMARK  5 active torsions:
REMARK  status: ('A' for Active; 'I' for Inactive)
REMARK    1  A    between atoms: C_14  and  C_4 
REMARK    2  A    between atoms: S_11  and  C_5 
REMARK    3  A    between atoms: C_10  and  C_12 
REMARK    4  A    between atoms: C_15  and  S_11 
REMARK    5  A    between atoms: C_12  and  C_15 
ROOT
ATOM      1  N   UNL d   1      61.425  46.788  50.518  0.00  0.00    -0.206 N 
ATOM      2  C   UNL d   1      61.338  45.991  50.304  0.00  0.00     0.166 A 
ATOM      3  N   UNL d   1      62.491  46.914  49.600  0.00  0.00    -0.163 NA
ATOM      4  C   UNL d   1      61.822  45.658  49.743  0.00  0.00     0.055 A 
ATOM      5  C   UNL d   1      60.932  47.099  51.080  0.00  0.00     0.116 A 
ATOM      6  C   UNL d   1      62.405  46.131  49.389  0.00  0.00     0.104 A 
ATOM      7  N   UNL d   1      60.760  45.528  50.657  0.00  0.00    -0.227 NA
ATOM      8  C   UNL d   1      60.349  46.652  51.443  0.00  0.00     0.045 A 
ATOM      9  C   UNL d   1      60.262  45.860  51.230  0.00  0.00     0.085 A 
ATOM     10  C   UNL d   1      62.887  45.796  48.830  0.00  0.00     0.023 C 
ATOM     11  C   UNL d   1      59.660  45.377  51.598  0.00  0.00     0.021 C 
ENDROOT
BRANCH   5  12
ATOM     12  S   UNL d   1      61.021  47.921  51.302  0.00  0.00    -0.064 SA
BRANCH  12  13
ATOM     13  C   UNL d   1      60.836  48.714  51.539  0.00  0.00     0.079 C 
BRANCH  13  14
ATOM     14  C   UNL d   1      60.586  49.280  50.969  0.00  0.00     0.208 C 
ATOM     15  O   UNL d   1      61.158  49.707  50.516  0.00  0.00    -0.285 OA
BRANCH  14  16
ATOM     16  C   UNL d   1      59.759  49.426  50.844  0.00  0.00     0.069 A 
ATOM     17  S   UNL d   1      59.195  49.604  51.457  0.00  0.00    -0.083 SA
ATOM     18  C   UNL d   1      58.442  49.707  51.084  0.00  0.00     0.035 A 
ATOM     19  C   UNL d   1      58.535  49.595  50.254  0.00  0.00     0.008 A 
ATOM     20  C   UNL d   1      59.358  49.420  50.109  0.00  0.00     0.010 A 
ENDBRANCH  14  16
ENDBRANCH  13  14
ENDBRANCH  12  13
ENDBRANCH   5  12
BRANCH   4  21
ATOM     21  C   UNL d   1      61.737  44.874  49.532  0.00  0.00     0.004 A 
ATOM     22  C   UNL d   1      62.255  44.319  49.811  0.00  0.00     0.000 A 
ATOM     23  C   UNL d   1      62.181  43.544  49.610  0.00  0.00     0.000 A 
ATOM     24  C   UNL d   1      61.565  43.306  49.109  0.00  0.00     0.000 A 
ATOM     25  C   UNL d   1      61.047  43.864  48.831  0.00  0.00     0.000 A 
ATOM     26  C   UNL d   1      61.133  44.649  49.042  0.00  0.00     0.000 A 
ENDBRANCH   4  21
TORSDOF 5
ENDMDL
