MODEL 1
REMARK VINA RESULT:      48.5      0.000      0.000
REMARK  7 active torsions:
REMARK  status: ('A' for Active; 'I' for Inactive)
REMARK    1  A    between atoms: C_13  and  C_4 
REMARK    2  A    between atoms: N_16  and  C_6 
REMARK    3  A    between atoms: C_17  and  C_9 
REMARK    4  A    between atoms: N_11  and  C_19 
REMARK    5  A    between atoms: C_21  and  N_16 
REMARK    6  A    between atoms: C_19  and  C_20 
REMARK    7  A    between atoms: C_20  and  C_21 
ROOT
ATOM      1  C   UNL d   1      14.267  13.720  -2.280  0.00  0.00     0.168 A 
ATOM      2  N   UNL d   1      14.270  14.385  -2.774  0.00  0.00    -0.184 N 
ATOM      3  N   UNL d   1      14.884  15.147  -1.745  0.00  0.00    -0.162 NA
ATOM      4  C   UNL d   1      14.567  13.772  -1.534  0.00  0.00     0.055 A 
ATOM      5  N   UNL d   1      13.957  13.016  -2.557  0.00  0.00    -0.227 NA
ATOM      6  C   UNL d   1      13.963  14.322  -3.527  0.00  0.00     0.218 A 
ATOM      7  C   UNL d   1      14.881  14.481  -1.251  0.00  0.00     0.104 A 
ATOM      8  C   UNL d   1      13.646  13.592  -3.803  0.00  0.00     0.071 A 
ATOM      9  C   UNL d   1      13.654  12.961  -3.307  0.00  0.00     0.087 A 
ATOM     10  C   UNL d   1      15.180  14.531  -0.508  0.00  0.00     0.023 C 
ENDROOT
BRANCH   6  11
ATOM     11  N   UNL d   1      13.965  15.003  -4.037  0.00  0.00    -0.380 NA
BRANCH  11  12
ATOM     12  C   UNL d   1      13.926  15.643  -4.592  0.00  0.00     0.164 C 
BRANCH  12  13
ATOM     13  C   UNL d   1      14.263  16.386  -4.388  0.00  0.00     0.054 C 
BRANCH  13  14
ATOM     14  C   UNL d   1      14.814  16.753  -4.914  0.00  0.00     0.084 C 
BRANCH  14  15
ATOM     15  N   UNL d   1      14.645  17.523  -5.236  0.00  0.00    -0.285 N 
ATOM     16  C   UNL d   1      14.117  17.695  -5.869  0.00  0.00     0.183 A 
ATOM     17  N   UNL d   1      14.124  18.536  -6.002  0.00  0.00    -0.222 NA
ATOM     18  C   UNL d   1      14.660  18.879  -5.444  0.00  0.00     0.120 A 
ATOM     19  C   UNL d   1      14.981  18.258  -4.972  0.00  0.00     0.102 A 
ENDBRANCH  14  15
ENDBRANCH  13  14
ENDBRANCH  12  13
ENDBRANCH  11  12
ENDBRANCH   6  11
BRANCH   9  20
ATOM     20  C   UNL d   1      13.330  12.218  -3.593  0.00  0.00     0.018 C 
ATOM     21  C   UNL d   1      12.777  11.779  -3.095  0.00  0.00     0.002 C 
ATOM     22  C   UNL d   1      13.552  11.917  -4.364  0.00  0.00     0.002 C 
ENDBRANCH   9  20
BRANCH   4  23
ATOM     23  C   UNL d   1      14.564  13.100  -1.036  0.00  0.00     0.004 A 
ATOM     24  C   UNL d   1      13.953  12.991  -0.506  0.00  0.00     0.000 A 
ATOM     25  C   UNL d   1      13.950  12.329  -0.014  0.00  0.00     0.000 A 
ATOM     26  C   UNL d   1      14.558  11.790  -0.063  0.00  0.00     0.000 A 
ATOM     27  C   UNL d   1      15.172  11.905  -0.599  0.00  0.00     0.000 A 
ATOM     28  C   UNL d   1      15.168  12.559  -1.079  0.00  0.00     0.000 A 
ENDBRANCH   4  23
TORSDOF 7
ENDMDL
