MODEL 1
REMARK VINA RESULT:      -8.9      0.000      0.000
REMARK  3 active torsions:
REMARK  status: ('A' for Active; 'I' for Inactive)
REMARK    1  A    between atoms: N_5  and  C_2 
REMARK    2  A    between atoms: C_8  and  C_3 
REMARK       I    between atoms: C_7  and  N_5 
REMARK    3  A    between atoms: C_10  and  C_7 
ROOT
ATOM      1  N   UNL d   1      53.454  32.469  54.448  0.00  0.00    -0.200 NA
ATOM      2  C   UNL d   1      53.874  33.175  54.399  0.00  0.00     0.216 A 
ATOM      3  C   UNL d   1      53.696  31.987  53.813  0.00  0.00     0.172 A 
ATOM      4  N   UNL d   1      54.266  32.414  53.383  0.00  0.00    -0.187 NA
ATOM      5  S   UNL d   1      54.369  33.146  53.753  0.00  0.00     0.054 SA
ENDROOT
BRANCH   2   6
ATOM      6  N   UNL d   1      53.806  33.822  54.927  0.00  0.00    -0.181 NA
ATOM      7  C   UNL d   1      53.322  34.462  54.753  0.00  0.00     0.281 C 
ATOM      8  O   UNL d   1      53.267  35.090  55.284  0.00  0.00    -0.265 OA
BRANCH   7   9
ATOM      9  C   UNL d   1      52.893  34.473  54.049  0.00  0.00     0.058 C 
ATOM     10  C   UNL d   1      53.224  34.794  53.366  0.00  0.00     0.005 C 
ATOM     11  C   UNL d   1      52.130  34.161  54.030  0.00  0.00     0.005 C 
ENDBRANCH   7   9
ENDBRANCH   2   6
BRANCH   3  12
ATOM     12  C   UNL d   1      53.441  31.227  53.617  0.00  0.00     0.036 A 
ATOM     13  C   UNL d   1      52.971  31.105  52.942  0.00  0.00     0.003 A 
ATOM     14  C   UNL d   1      52.715  30.345  52.747  0.00  0.00     0.000 A 
ATOM     15  C   UNL d   1      52.927  29.700  53.225  0.00  0.00     0.000 A 
ATOM     16  C   UNL d   1      53.396  29.821  53.899  0.00  0.00     0.000 A 
ATOM     17  C   UNL d   1      53.652  30.582  54.095  0.00  0.00     0.003 A 
ENDBRANCH   3  12
TORSDOF 3
ENDMDL
MODEL 2
REMARK VINA RESULT:      -8.7      1.699      3.252
REMARK  3 active torsions:
REMARK  status: ('A' for Active; 'I' for Inactive)
REMARK    1  A    between atoms: N_5  and  C_2 
REMARK    2  A    between atoms: C_8  and  C_3 
REMARK       I    between atoms: C_7  and  N_5 
REMARK    3  A    between atoms: C_10  and  C_7 
ROOT
ATOM      1  N   UNL d   1      52.359  33.767  54.079  0.00  0.00    -0.200 NA
ATOM      2  C   UNL d   1      53.099  33.979  54.370  0.00  0.00     0.216 A 
ATOM      3  C   UNL d   1      52.198  34.256  53.423  0.00  0.00     0.172 A 
ATOM      4  N   UNL d   1      52.851  34.762  53.326  0.00  0.00    -0.187 NA
ATOM      5  S   UNL d   1      53.402  34.582  53.916  0.00  0.00     0.054 SA
ENDROOT
BRANCH   2   6
ATOM      6  N   UNL d   1      53.483  33.631  55.029  0.00  0.00    -0.181 NA
ATOM      7  C   UNL d   1      54.004  33.004  54.934  0.00  0.00     0.281 C 
ATOM      8  O   UNL d   1      54.373  32.673  55.592  0.00  0.00    -0.265 OA
BRANCH   7   9
ATOM      9  C   UNL d   1      54.158  32.709  54.179  0.00  0.00     0.058 C 
ATOM     10  C   UNL d   1      54.744  33.050  53.711  0.00  0.00     0.005 C 
ATOM     11  C   UNL d   1      53.721  32.071  53.894  0.00  0.00     0.005 C 
ENDBRANCH   7   9
ENDBRANCH   2   6
BRANCH   3  12
ATOM     12  C   UNL d   1      51.530  34.263  52.939  0.00  0.00     0.036 A 
ATOM     13  C   UNL d   1      51.610  34.202  52.114  0.00  0.00     0.003 A 
ATOM     14  C   UNL d   1      50.942  34.210  51.630  0.00  0.00     0.000 A 
ATOM     15  C   UNL d   1      50.186  34.279  51.967  0.00  0.00     0.000 A 
ATOM     16  C   UNL d   1      50.105  34.340  52.792  0.00  0.00     0.000 A 
ATOM     17  C   UNL d   1      50.774  34.332  53.276  0.00  0.00     0.003 A 
ENDBRANCH   3  12
TORSDOF 3
ENDMDL
MODEL 3
REMARK VINA RESULT:      -8.2      2.195      2.918
REMARK  3 active torsions:
REMARK  status: ('A' for Active; 'I' for Inactive)
REMARK    1  A    between atoms: N_5  and  C_2 
REMARK    2  A    between atoms: C_8  and  C_3 
REMARK       I    between atoms: C_7  and  N_5 
REMARK    3  A    between atoms: C_10  and  C_7 
ROOT
ATOM      1  N   UNL d   1      52.483  33.300  54.040  0.00  0.00    -0.200 NA
ATOM      2  C   UNL d   1      52.002  32.970  53.460  0.00  0.00     0.216 A 
ATOM      3  C   UNL d   1      53.262  33.039  53.900  0.00  0.00     0.172 A 
ATOM      4  N   UNL d   1      53.240  32.548  53.228  0.00  0.00    -0.187 NA
ATOM      5  S   UNL d   1      52.457  32.512  52.965  0.00  0.00     0.054 SA
ENDROOT
BRANCH   2   6
ATOM      6  N   UNL d   1      51.175  33.084  53.388  0.00  0.00    -0.181 NA
ATOM      7  C   UNL d   1      50.870  33.730  52.982  0.00  0.00     0.281 C 
ATOM      8  O   UNL d   1      50.054  33.827  52.921  0.00  0.00    -0.265 OA
BRANCH   7   9
ATOM      9  C   UNL d   1      51.381  34.278  52.639  0.00  0.00     0.058 C 
ATOM     10  C   UNL d   1      51.642  34.174  51.864  0.00  0.00     0.005 C 
ATOM     11  C   UNL d   1      51.632  34.931  53.074  0.00  0.00     0.005 C 
ENDBRANCH   7   9
ENDBRANCH   2   6
BRANCH   3  12
ATOM     12  C   UNL d   1      53.948  33.213  54.324  0.00  0.00     0.036 A 
ATOM     13  C   UNL d   1      54.651  33.405  53.924  0.00  0.00     0.003 A 
ATOM     14  C   UNL d   1      55.336  33.579  54.349  0.00  0.00     0.000 A 
ATOM     15  C   UNL d   1      55.325  33.564  55.179  0.00  0.00     0.000 A 
ATOM     16  C   UNL d   1      54.623  33.373  55.580  0.00  0.00     0.000 A 
ATOM     17  C   UNL d   1      53.937  33.199  55.155  0.00  0.00     0.003 A 
ENDBRANCH   3  12
TORSDOF 3
ENDMDL
MODEL 4
REMARK VINA RESULT:      -8.1      2.005      3.773
REMARK  3 active torsions:
REMARK  status: ('A' for Active; 'I' for Inactive)
REMARK    1  A    between atoms: N_5  and  C_2 
REMARK    2  A    between atoms: C_8  and  C_3 
REMARK       I    between atoms: C_7  and  N_5 
REMARK    3  A    between atoms: C_10  and  C_7 
ROOT
ATOM      1  N   UNL d   1      53.853  31.933  53.320  0.00  0.00    -0.200 NA
ATOM      2  C   UNL d   1      53.150  31.705  52.957  0.00  0.00     0.216 A 
ATOM      3  C   UNL d   1      53.672  32.544  53.858  0.00  0.00     0.172 A 
ATOM      4  N   UNL d   1      52.853  32.678  53.811  0.00  0.00    -0.187 NA
ATOM      5  S   UNL d   1      52.540  32.155  53.253  0.00  0.00     0.054 SA
ENDROOT
BRANCH   2   6
ATOM      6  N   UNL d   1      53.072  31.106  52.377  0.00  0.00    -0.181 NA
ATOM      7  C   UNL d   1      52.910  30.329  52.588  0.00  0.00     0.281 C 
ATOM      8  O   UNL d   1      52.836  29.752  52.004  0.00  0.00    -0.265 OA
BRANCH   7   9
ATOM      9  C   UNL d   1      52.821  30.130  53.383  0.00  0.00     0.058 C 
ATOM     10  C   UNL d   1      52.088  30.212  53.752  0.00  0.00     0.005 C 
ATOM     11  C   UNL d   1      53.468  29.849  53.809  0.00  0.00     0.005 C 
ENDBRANCH   7   9
ENDBRANCH   2   6
BRANCH   3  12
ATOM     12  C   UNL d   1      54.183  32.958  54.356  0.00  0.00     0.036 A 
ATOM     13  C   UNL d   1      54.030  32.998  55.172  0.00  0.00     0.003 A 
ATOM     14  C   UNL d   1      54.541  33.413  55.670  0.00  0.00     0.000 A 
ATOM     15  C   UNL d   1      55.210  33.792  55.356  0.00  0.00     0.000 A 
ATOM     16  C   UNL d   1      55.363  33.753  54.541  0.00  0.00     0.000 A 
ATOM     17  C   UNL d   1      54.852  33.338  54.042  0.00  0.00     0.003 A 
ENDBRANCH   3  12
TORSDOF 3
ENDMDL
