MODEL 1
REMARK VINA RESULT:      56.8      0.000      0.000
REMARK  8 active torsions:
REMARK  status: ('A' for Active; 'I' for Inactive)
REMARK    1  A    between atoms: C_5  and  C_1 
REMARK    2  A    between atoms: N_6  and  C_2 
REMARK    3  A    between atoms: C_7  and  C_5 
REMARK    4  A    between atoms: C_8  and  C_5 
REMARK    5  A    between atoms: O_12  and  C_7 
REMARK    6  A    between atoms: C_14  and  O_12 
REMARK    7  A    between atoms: C_19  and  C_14 
REMARK    8  A    between atoms: C_20  and  C_19 
ROOT
ATOM      1  C   UNL d   1     -57.803 -98.927 -44.657  0.00  0.00     0.122 A 
ATOM      2  C   UNL d   1     -58.507 -98.864 -44.237  0.00  0.00     0.166 A 
ATOM      3  N   UNL d   1     -59.223 -98.809 -44.649  0.00  0.00    -0.225 NA
ATOM      4  N   UNL d   1     -57.808 -98.936 -45.483  0.00  0.00    -0.241 NA
ATOM      5  C   UNL d   1     -59.230 -98.817 -45.470  0.00  0.00     0.101 A 
ATOM      6  C   UNL d   1     -58.521 -98.881 -45.888  0.00  0.00     0.099 A 
ATOM      7  C   UNL d   1     -59.942 -98.762 -45.875  0.00  0.00     0.021 A 
ATOM      8  C   UNL d   1     -58.527 -98.889 -46.709  0.00  0.00     0.021 A 
ATOM      9  C   UNL d   1     -59.237 -98.834 -47.125  0.00  0.00     0.002 A 
ATOM     10  C   UNL d   1     -59.947 -98.770 -46.701  0.00  0.00     0.002 A 
ENDROOT
BRANCH   1  11
ATOM     11  C   UNL d   1     -57.078 -98.983 -44.248  0.00  0.00     0.105 C 
BRANCH  11  12
ATOM     12  C   UNL d   1     -56.403 -99.243 -44.638  0.00  0.00     0.303 C 
ATOM     13  O   UNL d   1     -56.022 -98.755 -45.180  0.00  0.00    -0.259 OA
BRANCH  12  14
ATOM     14  O   UNL d   1     -56.106-100.001 -44.483  0.00  0.00    -0.271 OA
BRANCH  14  15
ATOM     15  C   UNL d   1     -56.236-100.778 -44.261  0.00  0.00     0.126 C 
BRANCH  15  16
ATOM     16  C   UNL d   1     -55.624-101.320 -44.301  0.00  0.00     0.025 C 
ATOM     17  C   UNL d   1     -54.999-101.261 -43.776  0.00  0.00     0.002 C 
BRANCH  16  18
ATOM     18  C   UNL d   1     -55.641-101.919 -44.867  0.00  0.00     0.002 C 
ATOM     19  C   UNL d   1     -55.037-102.481 -44.895  0.00  0.00     0.000 C 
ENDBRANCH  16  18
ENDBRANCH  15  16
ENDBRANCH  14  15
ENDBRANCH  12  14
ENDBRANCH  11  12
BRANCH  11  20
ATOM     20  C   UNL d   1     -57.038 -98.774 -43.443  0.00  0.00     0.129 C 
ATOM     21  N   UNL d   1     -56.351 -99.098 -42.863  0.00  0.00    -0.146 N 
ENDBRANCH  11  20
ENDBRANCH   1  11
BRANCH   2  22
ATOM     22  N   UNL d   1     -58.505 -98.855 -43.408  0.00  0.00    -0.288 N 
ATOM     23  C   UNL d   1     -59.218 -98.774 -43.004  0.00  0.00     0.082 A 
ATOM     24  C   UNL d   1     -59.214 -98.766 -42.174  0.00  0.00     0.019 A 
ATOM     25  C   UNL d   1     -58.499 -98.838 -41.758  0.00  0.00     0.003 A 
ATOM     26  C   UNL d   1     -57.788 -98.919 -42.174  0.00  0.00     0.019 A 
ATOM     27  C   UNL d   1     -57.790 -98.928 -42.993  0.00  0.00     0.082 A 
ENDBRANCH   2  22
TORSDOF 8
ENDMDL
