MODEL 1
REMARK VINA RESULT:      -3.6      0.000      0.000
REMARK  6 active torsions:
REMARK  status: ('A' for Active; 'I' for Inactive)
REMARK    1  A    between atoms: C_3  and  C_1 
REMARK    2  A    between atoms: C_2  and  C_3 
REMARK    3  A    between atoms: C_4  and  C_2 
REMARK    4  A    between atoms: C_7  and  C_4 
REMARK    5  A    between atoms: O_17  and  C_5 
REMARK    6  A    between atoms: O_20  and  C_13 
ROOT
ATOM      1  C   UNL d   1      59.698  -9.040  34.092  0.00  0.00     0.042 C 
ENDROOT
BRANCH   1   2
ATOM      2  C   UNL d   1      59.615  -9.075  34.913  0.00  0.00     0.199 C 
ATOM      3  O   UNL d   1      59.210  -9.701  35.264  0.00  0.00    -0.286 OA
BRANCH   2   4
ATOM      4  C   UNL d   1      59.941  -8.478  35.383  0.00  0.00     0.079 A 
ATOM      5  C   UNL d   1      60.671  -8.597  35.755  0.00  0.00     0.199 A 
ATOM      6  C   UNL d   1      60.997  -7.997  36.227  0.00  0.00     0.043 A 
ATOM      7  O   UNL d   1      61.081  -9.309  35.660  0.00  0.00    -0.286 OA
ATOM      8  C   UNL d   1      60.594  -7.286  36.325  0.00  0.00     0.015 A 
ATOM      9  C   UNL d   1      59.864  -7.167  35.954  0.00  0.00     0.058 A 
ATOM     10  C   UNL d   1      59.538  -7.760  35.485  0.00  0.00     0.018 A 
ATOM     11 CL   UNL d   1      59.461  -6.455  36.053  0.00  0.00    -0.082 Cl
ENDBRANCH   2   4
ENDBRANCH   1   2
BRANCH   1  12
ATOM     12  C   UNL d   1      59.338  -9.612  33.623  0.00  0.00     0.005 C 
BRANCH  12  13
ATOM     13  C   UNL d   1      59.526  -9.664  32.824  0.00  0.00     0.022 A 
ATOM     14  C   UNL d   1      58.923  -9.674  32.254  0.00  0.00     0.096 A 
ATOM     15  C   UNL d   1      59.110  -9.726  31.454  0.00  0.00     0.048 A 
ATOM     16  C   UNL d   1      59.898  -9.766  31.216  0.00  0.00     0.096 A 
ATOM     17  C   UNL d   1      60.502  -9.756  31.786  0.00  0.00     0.024 A 
ATOM     18  C   UNL d   1      60.310  -9.704  32.587  0.00  0.00     0.004 A 
BRANCH  14  19
ATOM     19  O   UNL d   1      58.141  -9.634  32.489  0.00  0.00    -0.328 OA
ATOM     20  C   UNL d   1      57.540  -9.796  31.951  0.00  0.00     0.181 C 
ENDBRANCH  14  19
BRANCH  16  21
ATOM     21  O   UNL d   1      60.096  -9.818  30.423  0.00  0.00    -0.328 OA
ATOM     22  C   UNL d   1      60.838  -9.576  30.155  0.00  0.00     0.181 C 
ENDBRANCH  16  21
ENDBRANCH  12  13
ENDBRANCH   1  12
TORSDOF 6
ENDMDL
MODEL 2
REMARK VINA RESULT:      -3.5      8.584      9.863
REMARK  6 active torsions:
REMARK  status: ('A' for Active; 'I' for Inactive)
REMARK    1  A    between atoms: C_3  and  C_1 
REMARK    2  A    between atoms: C_2  and  C_3 
REMARK    3  A    between atoms: C_4  and  C_2 
REMARK    4  A    between atoms: C_7  and  C_4 
REMARK    5  A    between atoms: O_17  and  C_5 
REMARK    6  A    between atoms: O_20  and  C_13 
ROOT
ATOM      1  C   UNL d   1      58.024  -0.877  30.401  0.00  0.00     0.042 C 
ENDROOT
BRANCH   1   2
ATOM      2  C   UNL d   1      58.353  -0.779  29.651  0.00  0.00     0.199 C 
ATOM      3  O   UNL d   1      58.182  -0.107  29.205  0.00  0.00    -0.286 OA
BRANCH   2   4
ATOM      4  C   UNL d   1      58.858  -1.359  29.345  0.00  0.00     0.079 A 
ATOM      5  C   UNL d   1      59.648  -1.174  29.180  0.00  0.00     0.199 A 
ATOM      6  C   UNL d   1      60.153  -1.757  28.873  0.00  0.00     0.043 A 
ATOM      7  O   UNL d   1      59.939  -0.412  29.317  0.00  0.00    -0.286 OA
ATOM      8  C   UNL d   1      59.869  -2.517  28.734  0.00  0.00     0.015 A 
ATOM      9  C   UNL d   1      59.079  -2.702  28.900  0.00  0.00     0.058 A 
ATOM     10  C   UNL d   1      58.575  -2.127  29.204  0.00  0.00     0.018 A 
ATOM     11 CL   UNL d   1      58.795  -3.463  28.761  0.00  0.00    -0.082 Cl
ENDBRANCH   2   4
ENDBRANCH   1   2
BRANCH   1  12
ATOM     12  C   UNL d   1      57.769  -0.218  30.822  0.00  0.00     0.005 C 
BRANCH  12  13
ATOM     13  C   UNL d   1      57.314  -0.316  31.500  0.00  0.00     0.022 A 
ATOM     14  C   UNL d   1      57.471   0.136  32.177  0.00  0.00     0.096 A 
ATOM     15  C   UNL d   1      57.015   0.039  32.856  0.00  0.00     0.048 A 
ATOM     16  C   UNL d   1      56.400  -0.510  32.864  0.00  0.00     0.096 A 
ATOM     17  C   UNL d   1      56.242  -0.963  32.186  0.00  0.00     0.024 A 
ATOM     18  C   UNL d   1      56.702  -0.862  31.508  0.00  0.00     0.004 A 
BRANCH  14  19
ATOM     19  O   UNL d   1      58.081   0.680  32.169  0.00  0.00    -0.328 OA
ATOM     20  C   UNL d   1      58.640   0.682  32.774  0.00  0.00     0.181 C 
ENDBRANCH  14  19
BRANCH  16  21
ATOM     21  O   UNL d   1      55.940  -0.616  33.534  0.00  0.00    -0.328 OA
ATOM     22  C   UNL d   1      55.183  -0.291  33.583  0.00  0.00     0.181 C 
ENDBRANCH  16  21
ENDBRANCH  12  13
ENDBRANCH   1  12
TORSDOF 6
ENDMDL
MODEL 3
REMARK VINA RESULT:      -0.6      9.087     10.261
REMARK  6 active torsions:
REMARK  status: ('A' for Active; 'I' for Inactive)
REMARK    1  A    between atoms: C_3  and  C_1 
REMARK    2  A    between atoms: C_2  and  C_3 
REMARK    3  A    between atoms: C_4  and  C_2 
REMARK    4  A    between atoms: C_7  and  C_4 
REMARK    5  A    between atoms: O_17  and  C_5 
REMARK    6  A    between atoms: O_20  and  C_13 
ROOT
ATOM      1  C   UNL d   1      57.582  -0.336  31.209  0.00  0.00     0.042 C 
ENDROOT
BRANCH   1   2
ATOM      2  C   UNL d   1      57.889  -0.634  30.503  0.00  0.00     0.199 C 
ATOM      3  O   UNL d   1      57.637  -1.364  30.215  0.00  0.00    -0.286 OA
BRANCH   2   4
ATOM      4  C   UNL d   1      58.452  -0.197  30.084  0.00  0.00     0.079 A 
ATOM      5  C   UNL d   1      58.231   0.214  29.400  0.00  0.00     0.199 A 
ATOM      6  C   UNL d   1      58.797   0.652  28.980  0.00  0.00     0.043 A 
ATOM      7  O   UNL d   1      57.450   0.191  29.129  0.00  0.00    -0.286 OA
ATOM      8  C   UNL d   1      59.576   0.679  29.244  0.00  0.00     0.015 A 
ATOM      9  C   UNL d   1      59.798   0.268  29.928  0.00  0.00     0.058 A 
ATOM     10  C   UNL d   1      59.239  -0.168  30.347  0.00  0.00     0.018 A 
ATOM     11 CL   UNL d   1      60.578   0.295  30.192  0.00  0.00    -0.082 Cl
ENDBRANCH   2   4
ENDBRANCH   1   2
BRANCH   1  12
ATOM     12  C   UNL d   1      56.902  -0.670  31.529  0.00  0.00     0.005 C 
BRANCH  12  13
ATOM     13  C   UNL d   1      56.598  -0.382  32.237  0.00  0.00     0.022 A 
ATOM     14  C   UNL d   1      56.132  -0.869  32.720  0.00  0.00     0.096 A 
ATOM     15  C   UNL d   1      55.827  -0.581  33.429  0.00  0.00     0.048 A 
ATOM     16  C   UNL d   1      55.986   0.193  33.661  0.00  0.00     0.096 A 
ATOM     17  C   UNL d   1      56.453   0.682  33.178  0.00  0.00     0.024 A 
ATOM     18  C   UNL d   1      56.756   0.389  32.468  0.00  0.00     0.004 A 
BRANCH  14  19
ATOM     19  O   UNL d   1      55.975  -1.637  32.490  0.00  0.00    -0.328 OA
ATOM     20  C   UNL d   1      55.459  -2.103  32.932  0.00  0.00     0.181 C 
ENDBRANCH  14  19
BRANCH  16  21
ATOM     21  O   UNL d   1      55.688   0.491  34.364  0.00  0.00    -0.328 OA
ATOM     22  C   UNL d   1      54.881   0.633  34.457  0.00  0.00     0.181 C 
ENDBRANCH  16  21
ENDBRANCH  12  13
ENDBRANCH   1  12
TORSDOF 6
ENDMDL
