MODEL 1
REMARK VINA RESULT:      -0.1      0.000      0.000
REMARK  8 active torsions:
REMARK  status: ('A' for Active; 'I' for Inactive)
REMARK    1  A    between atoms: N_4  and  S_1 
REMARK    2  A    between atoms: C_10  and  S_1 
REMARK    3  A    between atoms: C_7  and  N_2 
REMARK    4  A    between atoms: N_3  and  C_6 
REMARK    5  A    between atoms: C_5  and  N_4 
REMARK    6  A    between atoms: C_6  and  C_5 
REMARK    7  A    between atoms: C_11  and  C_6 
REMARK    8  A    between atoms: O_19  and  C_17 
ROOT
ATOM      1  C   UNL d   1      58.905  -0.399  29.573  0.00  0.00     0.086 C 
ENDROOT
BRANCH   1   2
ATOM      2  N   UNL d   1      58.837  -1.201  29.384  0.00  0.00    -0.300 N 
ATOM      3  C   UNL d   1      59.146  -1.775  29.896  0.00  0.00     0.100 A 
ATOM      4  C   UNL d   1      59.079  -2.573  29.710  0.00  0.00     0.100 A 
ATOM      5  N   UNL d   1      58.704  -2.804  29.014  0.00  0.00    -0.300 N 
ATOM      6  C   UNL d   1      58.397  -2.238  28.505  0.00  0.00     0.100 A 
ATOM      7  C   UNL d   1      58.462  -1.433  28.688  0.00  0.00     0.100 A 
BRANCH   5   8
ATOM      8  C   UNL d   1      58.638  -3.601  28.829  0.00  0.00     0.086 A 
ATOM      9  C   UNL d   1      59.313  -4.047  28.687  0.00  0.00     0.110 A 
ATOM     10  C   UNL d   1      59.248  -4.848  28.501  0.00  0.00     0.026 A 
ATOM     11  C   UNL d   1      58.497  -5.203  28.456  0.00  0.00     0.002 A 
ATOM     12  C   UNL d   1      57.821  -4.754  28.599  0.00  0.00     0.002 A 
ATOM     13  C   UNL d   1      57.887  -3.957  28.784  0.00  0.00     0.019 A 
BRANCH   9  14
ATOM     14  O   UNL d   1      60.056  -3.695  28.731  0.00  0.00    -0.327 OA
ATOM     15  C   UNL d   1      60.731  -4.139  28.586  0.00  0.00     0.181 C 
ENDBRANCH   9  14
ENDBRANCH   5   8
ENDBRANCH   1   2
BRANCH   1  16
ATOM     16  C   UNL d   1      58.225   0.050  29.742  0.00  0.00     0.130 C 
BRANCH  16  17
ATOM     17  N   UNL d   1      57.877   0.001  30.489  0.00  0.00    -0.155 NA
BRANCH  17  18
ATOM     18  S   UNL d   1      57.123   0.321  30.612  0.00  0.00     0.285 S 
ATOM     19  O   UNL d   1      56.372   0.639  30.738  0.00  0.00    -0.198 OA
ATOM     20  O   UNL d   1      57.127   0.606  29.835  0.00  0.00    -0.198 OA
BRANCH  18  21
ATOM     21  C   UNL d   1      57.126   0.032  31.394  0.00  0.00     0.105 A 
ATOM     22  C   UNL d   1      57.581   0.409  31.966  0.00  0.00     0.013 A 
ATOM     23  C   UNL d   1      57.588   0.129  32.737  0.00  0.00     0.001 A 
ATOM     24  C   UNL d   1      57.131  -0.546  32.947  0.00  0.00     0.000 A 
ATOM     25  C   UNL d   1      56.674  -0.923  32.364  0.00  0.00     0.001 A 
ATOM     26  C   UNL d   1      56.676  -0.629  31.589  0.00  0.00     0.013 A 
ENDBRANCH  18  21
ENDBRANCH  17  18
ENDBRANCH  16  17
ENDBRANCH   1  16
BRANCH   1  27
ATOM     27  C   UNL d   1      59.645  -0.040  29.594  0.00  0.00     0.037 A 
ATOM     28  C   UNL d   1      60.020   0.088  30.314  0.00  0.00     0.100 A 
ATOM     29  N   UNL d   1      60.768   0.450  30.335  0.00  0.00    -0.242 NA
ATOM     30  C   UNL d   1      61.133   0.681  29.637  0.00  0.00     0.099 A 
ATOM     31  C   UNL d   1      60.759   0.553  28.917  0.00  0.00     0.021 A 
ATOM     32  C   UNL d   1      60.011   0.191  28.895  0.00  0.00     0.005 A 
ENDBRANCH   1  27
TORSDOF 8
ENDMDL
