MODEL 1
REMARK VINA RESULT:      -1.1      0.000      0.000
REMARK  6 active torsions:
REMARK  status: ('A' for Active; 'I' for Inactive)
REMARK    1  A    between atoms: C_10  and  C_3 
REMARK    2  A    between atoms: N_12  and  C_4 
REMARK    3  A    between atoms: N_11  and  C_20 
REMARK    4  A    between atoms: C_25  and  N_12 
REMARK    5  A    between atoms: C_20  and  C_21 
REMARK    6  A    between atoms: C_21  and  C_25 
ROOT
ATOM      1  C   UNL d   1      57.526   0.219  31.839  0.00  0.00     0.168 A 
ATOM      2  N   UNL d   1      58.030   0.263  31.156  0.00  0.00    -0.184 N 
ATOM      3  C   UNL d   1      56.740   0.042  31.752  0.00  0.00     0.057 A 
ATOM      4  C   UNL d   1      58.809   0.440  31.260  0.00  0.00     0.218 A 
ATOM      5  N   UNL d   1      56.916  -0.054  30.330  0.00  0.00    -0.160 NA
ATOM      6  N   UNL d   1      57.834   0.355  32.580  0.00  0.00    -0.227 NA
ATOM      7  C   UNL d   1      59.130   0.579  32.005  0.00  0.00     0.071 A 
ATOM      8  C   UNL d   1      56.428  -0.096  30.993  0.00  0.00     0.124 A 
ATOM      9  C   UNL d   1      58.634   0.536  32.677  0.00  0.00     0.087 A 
ATOM     10  C   UNL d   1      58.961   0.680  33.459  0.00  0.00     0.021 C 
ENDROOT
BRANCH   4  11
ATOM     11  N   UNL d   1      59.321   0.486  30.572  0.00  0.00    -0.380 NA
BRANCH  11  12
ATOM     12  C   UNL d   1      59.812   0.413  29.870  0.00  0.00     0.164 C 
BRANCH  12  13
ATOM     13  C   UNL d   1      60.226  -0.313  29.703  0.00  0.00     0.054 C 
BRANCH  13  14
ATOM     14  C   UNL d   1      60.145  -0.699  28.941  0.00  0.00     0.083 C 
BRANCH  14  15
ATOM     15  N   UNL d   1      60.110  -1.563  28.904  0.00  0.00    -0.299 N 
ATOM     16  C   UNL d   1      60.821  -2.029  29.078  0.00  0.00     0.107 A 
ATOM     17  C   UNL d   1      60.783  -2.885  29.041  0.00  0.00     0.142 A 
ATOM     18  O   UNL d   1      60.051  -3.279  28.834  0.00  0.00    -0.300 OA
ATOM     19  C   UNL d   1      59.346  -2.815  28.663  0.00  0.00     0.142 A 
ATOM     20  C   UNL d   1      59.374  -1.950  28.697  0.00  0.00     0.107 A 
ENDBRANCH  14  15
ENDBRANCH  13  14
ENDBRANCH  12  13
ENDBRANCH  11  12
ENDBRANCH   4  11
BRANCH   3  21
ATOM     21  C   UNL d   1      56.250  -0.001  32.415  0.00  0.00     0.005 A 
ATOM     22  C   UNL d   1      56.086  -0.723  32.751  0.00  0.00     0.001 A 
ATOM     23  C   UNL d   1      55.605  -0.765  33.402  0.00  0.00     0.011 A 
ATOM     24  C   UNL d   1      55.281  -0.085  33.729  0.00  0.00     0.058 A 
ATOM     25  C   UNL d   1      55.446   0.639  33.392  0.00  0.00     0.011 A 
ATOM     26 CL   UNL d   1      54.769  -0.130  34.422  0.00  0.00    -0.082 Cl
ATOM     27  C   UNL d   1      55.935   0.681  32.730  0.00  0.00     0.001 A 
ENDBRANCH   3  21
TORSDOF 6
ENDMDL
MODEL 2
REMARK VINA RESULT:      -0.6      8.619     10.147
REMARK  6 active torsions:
REMARK  status: ('A' for Active; 'I' for Inactive)
REMARK    1  A    between atoms: C_10  and  C_3 
REMARK    2  A    between atoms: N_12  and  C_4 
REMARK    3  A    between atoms: N_11  and  C_20 
REMARK    4  A    between atoms: C_25  and  N_12 
REMARK    5  A    between atoms: C_20  and  C_21 
REMARK    6  A    between atoms: C_21  and  C_25 
ROOT
ATOM      1  C   UNL d   1      58.960  -9.803  32.259  0.00  0.00     0.168 A 
ATOM      2  N   UNL d   1      59.084  -9.802  33.100  0.00  0.00    -0.184 N 
ATOM      3  C   UNL d   1      58.207  -9.806  31.961  0.00  0.00     0.057 A 
ATOM      4  C   UNL d   1      59.839  -9.798  33.381  0.00  0.00     0.218 A 
ATOM      5  N   UNL d   1      57.676  -9.807  33.294  0.00  0.00    -0.160 NA
ATOM      6  N   UNL d   1      59.600  -9.801  31.755  0.00  0.00    -0.227 NA
ATOM      7  C   UNL d   1      60.492  -9.797  32.879  0.00  0.00     0.071 A 
ATOM      8  C   UNL d   1      57.556  -9.808  32.479  0.00  0.00     0.124 A 
ATOM      9  C   UNL d   1      60.370  -9.798  32.051  0.00  0.00     0.087 A 
ATOM     10  C   UNL d   1      61.046  -9.796  31.520  0.00  0.00     0.021 C 
ENDROOT
BRANCH   4  11
ATOM     11  N   UNL d   1      59.968  -9.797  34.230  0.00  0.00    -0.380 NA
BRANCH  11  12
ATOM     12  C   UNL d   1      60.021  -9.701  35.082  0.00  0.00     0.164 C 
BRANCH  12  13
ATOM     13  C   UNL d   1      60.423  -9.031  35.421  0.00  0.00     0.054 C 
BRANCH  13  14
ATOM     14  C   UNL d   1      60.105  -8.630  36.109  0.00  0.00     0.083 C 
BRANCH  14  15
ATOM     15  N   UNL d   1      60.107  -7.765  36.134  0.00  0.00    -0.299 N 
ATOM     16  C   UNL d   1      60.860  -7.336  36.082  0.00  0.00     0.107 A 
ATOM     17  C   UNL d   1      60.858  -6.478  36.107  0.00  0.00     0.142 A 
ATOM     18  O   UNL d   1      60.122  -6.047  36.184  0.00  0.00    -0.300 OA
ATOM     19  C   UNL d   1      59.376  -6.474  36.236  0.00  0.00     0.142 A 
ATOM     20  C   UNL d   1      59.367  -7.340  36.211  0.00  0.00     0.107 A 
ENDBRANCH  14  15
ENDBRANCH  13  14
ENDBRANCH  12  13
ENDBRANCH  11  12
ENDBRANCH   4  11
BRANCH   3  21
ATOM     21  C   UNL d   1      58.087  -9.808  31.144  0.00  0.00     0.005 A 
ATOM     22  C   UNL d   1      57.329  -9.816  30.847  0.00  0.00     0.001 A 
ATOM     23  C   UNL d   1      57.211  -9.818  30.044  0.00  0.00     0.011 A 
ATOM     24  C   UNL d   1      57.849  -9.811  29.527  0.00  0.00     0.058 A 
ATOM     25  C   UNL d   1      58.607  -9.802  29.825  0.00  0.00     0.011 A 
ATOM     26 CL   UNL d   1      57.723  -9.812  28.673  0.00  0.00    -0.082 Cl
ATOM     27  C   UNL d   1      58.727  -9.801  30.641  0.00  0.00     0.001 A 
ENDBRANCH   3  21
TORSDOF 6
ENDMDL
MODEL 3
REMARK VINA RESULT:       0.5      2.548      5.345
REMARK  6 active torsions:
REMARK  status: ('A' for Active; 'I' for Inactive)
REMARK    1  A    between atoms: C_10  and  C_3 
REMARK    2  A    between atoms: N_12  and  C_4 
REMARK    3  A    between atoms: N_11  and  C_20 
REMARK    4  A    between atoms: C_25  and  N_12 
REMARK    5  A    between atoms: C_20  and  C_21 
REMARK    6  A    between atoms: C_21  and  C_25 
ROOT
ATOM      1  C   UNL d   1      59.197  -1.767  29.635  0.00  0.00     0.168 A 
ATOM      2  N   UNL d   1      58.639  -1.180  29.892  0.00  0.00    -0.184 N 
ATOM      3  C   UNL d   1      58.950  -2.525  29.492  0.00  0.00     0.057 A 
ATOM      4  C   UNL d   1      58.901  -0.430  30.031  0.00  0.00     0.218 A 
ATOM      5  N   UNL d   1      57.608  -2.158  29.846  0.00  0.00    -0.160 NA
ATOM      6  N   UNL d   1      59.980  -1.566  29.534  0.00  0.00    -0.227 NA
ATOM      7  C   UNL d   1      59.690  -0.217  29.931  0.00  0.00     0.071 A 
ATOM      8  C   UNL d   1      58.149  -2.727  29.597  0.00  0.00     0.124 A 
ATOM      9  C   UNL d   1      60.239  -0.796  29.678  0.00  0.00     0.087 A 
ATOM     10  C   UNL d   1      61.065  -0.582  29.571  0.00  0.00     0.021 C 
ENDROOT
BRANCH   4  11
ATOM     11  N   UNL d   1      58.340   0.166  30.291  0.00  0.00    -0.380 NA
BRANCH  11  12
ATOM     12  C   UNL d   1      57.743   0.681  30.633  0.00  0.00     0.164 C 
BRANCH  12  13
ATOM     13  C   UNL d   1      57.089   0.356  31.072  0.00  0.00     0.054 C 
BRANCH  13  14
ATOM     14  C   UNL d   1      56.925   0.617  31.873  0.00  0.00     0.083 C 
BRANCH  14  15
ATOM     15  N   UNL d   1      56.465   0.108  32.399  0.00  0.00    -0.299 N 
ATOM     16  C   UNL d   1      56.519  -0.754  32.318  0.00  0.00     0.107 A 
ATOM     17  C   UNL d   1      56.061  -1.256  32.843  0.00  0.00     0.142 A 
ATOM     18  O   UNL d   1      55.554  -0.912  33.441  0.00  0.00    -0.300 OA
ATOM     19  C   UNL d   1      55.501  -0.056  33.520  0.00  0.00     0.142 A 
ATOM     20  C   UNL d   1      55.959   0.460  32.996  0.00  0.00     0.107 A 
ENDBRANCH  14  15
ENDBRANCH  13  14
ENDBRANCH  12  13
ENDBRANCH  11  12
ENDBRANCH   4  11
BRANCH   3  21
ATOM     21  C   UNL d   1      59.492  -3.095  29.242  0.00  0.00     0.005 A 
ATOM     22  C   UNL d   1      60.251  -3.088  29.534  0.00  0.00     0.001 A 
ATOM     23  C   UNL d   1      60.784  -3.648  29.289  0.00  0.00     0.011 A 
ATOM     24  C   UNL d   1      60.565  -4.225  28.748  0.00  0.00     0.058 A 
ATOM     25  C   UNL d   1      59.804  -4.233  28.455  0.00  0.00     0.011 A 
ATOM     26 CL   UNL d   1      61.132  -4.821  28.486  0.00  0.00    -0.082 Cl
ATOM     27  C   UNL d   1      59.263  -3.663  28.705  0.00  0.00     0.001 A 
ENDBRANCH   3  21
TORSDOF 6
ENDMDL
MODEL 4
REMARK VINA RESULT:       1.4      1.497      2.497
REMARK  6 active torsions:
REMARK  status: ('A' for Active; 'I' for Inactive)
REMARK    1  A    between atoms: C_10  and  C_3 
REMARK    2  A    between atoms: N_12  and  C_4 
REMARK    3  A    between atoms: N_11  and  C_20 
REMARK    4  A    between atoms: C_25  and  N_12 
REMARK    5  A    between atoms: C_20  and  C_21 
REMARK    6  A    between atoms: C_21  and  C_25 
ROOT
ATOM      1  C   UNL d   1      56.445  -0.476  32.917  0.00  0.00     0.168 A 
ATOM      2  N   UNL d   1      56.892  -0.611  32.207  0.00  0.00    -0.184 N 
ATOM      3  C   UNL d   1      56.620   0.157  33.392  0.00  0.00     0.057 A 
ATOM      4  C   UNL d   1      56.706  -1.244  31.745  0.00  0.00     0.218 A 
ATOM      5  N   UNL d   1      57.670   0.545  32.493  0.00  0.00    -0.160 NA
ATOM      6  N   UNL d   1      55.843  -0.985  33.119  0.00  0.00    -0.227 NA
ATOM      7  C   UNL d   1      56.098  -1.764  31.941  0.00  0.00     0.071 A 
ATOM      8  C   UNL d   1      57.237   0.675  33.182  0.00  0.00     0.124 A 
ATOM      9  C   UNL d   1      55.659  -1.632  32.641  0.00  0.00     0.087 A 
ATOM     10  C   UNL d   1      55.022  -2.169  32.853  0.00  0.00     0.021 C 
ENDROOT
BRANCH   4  11
ATOM     11  N   UNL d   1      57.155  -1.383  31.026  0.00  0.00    -0.380 NA
BRANCH  11  12
ATOM     12  C   UNL d   1      57.541  -1.431  30.260  0.00  0.00     0.164 C 
BRANCH  12  13
ATOM     13  C   UNL d   1      58.267  -1.010  30.112  0.00  0.00     0.054 C 
BRANCH  13  14
ATOM     14  C   UNL d   1      59.005  -1.434  30.004  0.00  0.00     0.083 C 
BRANCH  14  15
ATOM     15  N   UNL d   1      59.678  -1.028  29.641  0.00  0.00    -0.299 N 
ATOM     16  C   UNL d   1      60.309  -1.492  29.268  0.00  0.00     0.107 A 
ATOM     17  C   UNL d   1      60.975  -1.085  28.910  0.00  0.00     0.142 A 
ATOM     18  O   UNL d   1      61.018  -0.230  28.920  0.00  0.00    -0.300 OA
ATOM     19  C   UNL d   1      60.391   0.229  29.291  0.00  0.00     0.142 A 
ATOM     20  C   UNL d   1      59.715  -0.172  29.655  0.00  0.00     0.107 A 
ENDBRANCH  14  15
ENDBRANCH  13  14
ENDBRANCH  12  13
ENDBRANCH  11  12
ENDBRANCH   4  11
BRANCH   3  21
ATOM     21  C   UNL d   1      56.187   0.287  34.081  0.00  0.00     0.005 A 
ATOM     22  C   UNL d   1      55.407   0.516  34.033  0.00  0.00     0.001 A 
ATOM     23  C   UNL d   1      54.981   0.644  34.711  0.00  0.00     0.011 A 
ATOM     24  C   UNL d   1      55.328   0.546  35.448  0.00  0.00     0.058 A 
ATOM     25  C   UNL d   1      56.109   0.317  35.497  0.00  0.00     0.011 A 
ATOM     26 CL   UNL d   1      54.874   0.682  36.170  0.00  0.00    -0.082 Cl
ATOM     27  C   UNL d   1      56.542   0.187  34.808  0.00  0.00     0.001 A 
ENDBRANCH   3  21
TORSDOF 6
ENDMDL
