MODEL 1
REMARK VINA RESULT:      -6.1      0.000      0.000
REMARK  5 active torsions:
REMARK  status: ('A' for Active; 'I' for Inactive)
REMARK    1  A    between atoms: C_15  and  C_3 
REMARK    2  A    between atoms: S_9  and  C_4 
REMARK       I    between atoms: N_6  and  C_8 
REMARK    3  A    between atoms: C_16  and  N_7 
REMARK    4  A    between atoms: C_8  and  C_14 
REMARK    5  A    between atoms: C_14  and  S_9 
ROOT
ATOM      1  N   UNL d   1     -45.833  12.931  22.647  0.00  0.00    -0.269 N 
ATOM      2  N   UNL d   1     -47.315  13.645  22.773  0.00  0.00    -0.301 N 
ATOM      3  C   UNL d   1     -45.085  12.575  22.578  0.00  0.00     0.272 C 
ATOM      4  C   UNL d   1     -46.025  13.584  22.182  0.00  0.00     0.102 A 
ATOM      5  C   UNL d   1     -46.387  12.635  23.176  0.00  0.00     0.102 A 
ATOM      6  C   UNL d   1     -47.134  12.989  23.245  0.00  0.00     0.100 A 
ATOM      7  C   UNL d   1     -46.765  13.943  22.243  0.00  0.00     0.100 A 
ATOM      8  O   UNL d   1     -44.891  11.924  23.040  0.00  0.00    -0.266 OA
ENDROOT
BRANCH   3   9
ATOM      9  C   UNL d   1     -44.537  12.879  22.045  0.00  0.00     0.100 C 
BRANCH   9  10
ATOM     10  S   UNL d   1     -43.811  12.501  21.933  0.00  0.00    -0.036 SA
BRANCH  10  11
ATOM     11  C   UNL d   1     -43.220  12.849  21.459  0.00  0.00     0.236 A 
ATOM     12  O   UNL d   1     -42.694  13.431  21.677  0.00  0.00    -0.263 OA
ATOM     13  C   UNL d   1     -42.212  13.604  21.026  0.00  0.00     0.205 A 
ATOM     14  N   UNL d   1     -42.448  13.120  20.407  0.00  0.00    -0.120 NA
ATOM     15  N   UNL d   1     -43.079  12.648  20.676  0.00  0.00    -0.114 NA
BRANCH  13  16
ATOM     16  C   UNL d   1     -41.598  14.153  20.976  0.00  0.00     0.043 A 
ATOM     17  C   UNL d   1     -40.817  13.898  21.001  0.00  0.00     0.004 A 
ATOM     18  C   UNL d   1     -40.204  14.448  20.951  0.00  0.00     0.000 A 
ATOM     19  C   UNL d   1     -40.374  15.250  20.875  0.00  0.00     0.000 A 
ATOM     20  C   UNL d   1     -41.159  15.505  20.850  0.00  0.00     0.000 A 
ATOM     21  C   UNL d   1     -41.768  14.956  20.900  0.00  0.00     0.004 A 
ENDBRANCH  13  16
ENDBRANCH  10  11
ENDBRANCH   9  10
ENDBRANCH   3   9
BRANCH   2  22
ATOM     22  C   UNL d   1     -48.059  13.998  22.842  0.00  0.00     0.064 A 
ATOM     23  C   UNL d   1     -48.129  14.812  22.767  0.00  0.00     0.018 A 
ATOM     24  C   UNL d   1     -48.876  15.177  22.834  0.00  0.00     0.002 A 
ATOM     25  C   UNL d   1     -49.539  14.716  22.976  0.00  0.00     0.000 A 
ATOM     26  C   UNL d   1     -49.473  13.894  23.051  0.00  0.00     0.002 A 
ATOM     27  C   UNL d   1     -48.725  13.540  22.983  0.00  0.00     0.018 A 
ENDBRANCH   2  22
TORSDOF 5
ENDMDL
MODEL 2
REMARK VINA RESULT:      -5.0      0.927      6.229
REMARK  5 active torsions:
REMARK  status: ('A' for Active; 'I' for Inactive)
REMARK    1  A    between atoms: C_15  and  C_3 
REMARK    2  A    between atoms: S_9  and  C_4 
REMARK       I    between atoms: N_6  and  C_8 
REMARK    3  A    between atoms: C_16  and  N_7 
REMARK    4  A    between atoms: C_8  and  C_14 
REMARK    5  A    between atoms: C_14  and  S_9 
ROOT
ATOM      1  N   UNL d   1     -42.666  13.422  21.287  0.00  0.00    -0.269 N 
ATOM      2  N   UNL d   1     -41.433  14.427  20.846  0.00  0.00    -0.301 N 
ATOM      3  C   UNL d   1     -43.290  12.921  21.510  0.00  0.00     0.272 C 
ATOM      4  C   UNL d   1     -42.770  14.240  21.291  0.00  0.00     0.102 A 
ATOM      5  C   UNL d   1     -41.941  13.108  21.061  0.00  0.00     0.102 A 
ATOM      6  C   UNL d   1     -41.317  13.608  20.838  0.00  0.00     0.100 A 
ATOM      7  C   UNL d   1     -42.155  14.744  21.071  0.00  0.00     0.100 A 
ATOM      8  O   UNL d   1     -43.189  12.106  21.507  0.00  0.00    -0.266 OA
ENDROOT
BRANCH   3   9
ATOM      9  C   UNL d   1     -44.011  13.245  21.735  0.00  0.00     0.100 C 
BRANCH   9  10
ATOM     10  S   UNL d   1     -44.675  12.761  21.826  0.00  0.00    -0.036 SA
BRANCH  10  11
ATOM     11  C   UNL d   1     -45.337  13.026  22.258  0.00  0.00     0.236 A 
ATOM     12  O   UNL d   1     -45.987  13.423  21.969  0.00  0.00    -0.263 OA
ATOM     13  C   UNL d   1     -46.502  13.573  22.601  0.00  0.00     0.205 A 
ATOM     14  N   UNL d   1     -46.160  13.264  23.279  0.00  0.00    -0.120 NA
ATOM     15  N   UNL d   1     -45.431  12.922  23.067  0.00  0.00    -0.114 NA
BRANCH  13  16
ATOM     16  C   UNL d   1     -47.232  13.959  22.585  0.00  0.00     0.043 A 
ATOM     17  C   UNL d   1     -47.925  13.520  22.555  0.00  0.00     0.004 A 
ATOM     18  C   UNL d   1     -48.655  13.906  22.539  0.00  0.00     0.000 A 
ATOM     19  C   UNL d   1     -48.686  14.729  22.553  0.00  0.00     0.000 A 
ATOM     20  C   UNL d   1     -47.988  15.168  22.584  0.00  0.00     0.000 A 
ATOM     21  C   UNL d   1     -47.263  14.782  22.599  0.00  0.00     0.004 A 
ENDBRANCH  13  16
ENDBRANCH  10  11
ENDBRANCH   9  10
ENDBRANCH   3   9
BRANCH   2  22
ATOM     22  C   UNL d   1     -40.813  14.925  20.624  0.00  0.00     0.064 A 
ATOM     23  C   UNL d   1     -40.361  15.291  21.202  0.00  0.00     0.018 A 
ATOM     24  C   UNL d   1     -39.732  15.796  20.987  0.00  0.00     0.002 A 
ATOM     25  C   UNL d   1     -39.570  15.922  20.193  0.00  0.00     0.000 A 
ATOM     26  C   UNL d   1     -40.023  15.554  19.606  0.00  0.00     0.002 A 
ATOM     27  C   UNL d   1     -40.647  15.054  19.830  0.00  0.00     0.018 A 
ENDBRANCH   2  22
TORSDOF 5
ENDMDL
MODEL 3
REMARK VINA RESULT:      -5.0      1.518      2.016
REMARK  5 active torsions:
REMARK  status: ('A' for Active; 'I' for Inactive)
REMARK    1  A    between atoms: C_15  and  C_3 
REMARK    2  A    between atoms: S_9  and  C_4 
REMARK       I    between atoms: N_6  and  C_8 
REMARK    3  A    between atoms: C_16  and  N_7 
REMARK    4  A    between atoms: C_8  and  C_14 
REMARK    5  A    between atoms: C_14  and  S_9 
ROOT
ATOM      1  N   UNL d   1     -44.297  12.773  21.978  0.00  0.00    -0.269 N 
ATOM      2  N   UNL d   1     -45.853  13.154  22.375  0.00  0.00    -0.301 N 
ATOM      3  C   UNL d   1     -43.513  12.587  21.775  0.00  0.00     0.272 C 
ATOM      4  C   UNL d   1     -44.625  13.493  21.743  0.00  0.00     0.102 A 
ATOM      5  C   UNL d   1     -44.750  12.244  22.412  0.00  0.00     0.102 A 
ATOM      6  C   UNL d   1     -45.534  12.430  22.615  0.00  0.00     0.100 A 
ATOM      7  C   UNL d   1     -45.402  13.685  21.941  0.00  0.00     0.100 A 
ATOM      8  O   UNL d   1     -43.183  11.872  22.006  0.00  0.00    -0.266 OA
ENDROOT
BRANCH   3   9
ATOM      9  C   UNL d   1     -43.066  13.123  21.339  0.00  0.00     0.100 C 
BRANCH   9  10
ATOM     10  S   UNL d   1     -42.260  12.991  21.216  0.00  0.00    -0.036 SA
BRANCH  10  11
ATOM     11  C   UNL d   1     -41.786  13.572  20.850  0.00  0.00     0.236 A 
ATOM     12  O   UNL d   1     -41.629  13.648  20.054  0.00  0.00    -0.263 OA
ATOM     13  C   UNL d   1     -41.134  14.303  19.949  0.00  0.00     0.205 A 
ATOM     14  N   UNL d   1     -40.989  14.627  20.688  0.00  0.00    -0.120 NA
ATOM     15  N   UNL d   1     -41.396  14.171  21.253  0.00  0.00    -0.114 NA
BRANCH  13  16
ATOM     16  C   UNL d   1     -40.824  14.602  19.244  0.00  0.00     0.043 A 
ATOM     17  C   UNL d   1     -40.843  15.411  19.100  0.00  0.00     0.004 A 
ATOM     18  C   UNL d   1     -40.534  15.710  18.396  0.00  0.00     0.000 A 
ATOM     19  C   UNL d   1     -40.207  15.198  17.839  0.00  0.00     0.000 A 
ATOM     20  C   UNL d   1     -40.189  14.386  17.985  0.00  0.00     0.000 A 
ATOM     21  C   UNL d   1     -40.498  14.090  18.687  0.00  0.00     0.004 A 
ENDBRANCH  13  16
ENDBRANCH  10  11
ENDBRANCH   9  10
ENDBRANCH   3   9
BRANCH   2  22
ATOM     22  C   UNL d   1     -46.632  13.340  22.576  0.00  0.00     0.064 A 
ATOM     23  C   UNL d   1     -46.830  14.114  22.758  0.00  0.00     0.018 A 
ATOM     24  C   UNL d   1     -47.615  14.310  22.963  0.00  0.00     0.002 A 
ATOM     25  C   UNL d   1     -48.186  13.722  22.981  0.00  0.00     0.000 A 
ATOM     26  C   UNL d   1     -47.990  12.939  22.798  0.00  0.00     0.002 A 
ATOM     27  C   UNL d   1     -47.207  12.753  22.596  0.00  0.00     0.018 A 
ENDBRANCH   2  22
TORSDOF 5
ENDMDL
MODEL 4
REMARK VINA RESULT:      -4.8      2.246      6.935
REMARK  5 active torsions:
REMARK  status: ('A' for Active; 'I' for Inactive)
REMARK    1  A    between atoms: C_15  and  C_3 
REMARK    2  A    between atoms: S_9  and  C_4 
REMARK       I    between atoms: N_6  and  C_8 
REMARK    3  A    between atoms: C_16  and  N_7 
REMARK    4  A    between atoms: C_8  and  C_14 
REMARK    5  A    between atoms: C_14  and  S_9 
ROOT
ATOM      1  N   UNL d   1     -40.788  14.291  19.986  0.00  0.00    -0.269 N 
ATOM      2  N   UNL d   1     -40.106  14.727  18.547  0.00  0.00    -0.301 N 
ATOM      3  C   UNL d   1     -41.137  14.069  20.707  0.00  0.00     0.272 C 
ATOM      4  C   UNL d   1     -41.204  14.200  19.279  0.00  0.00     0.102 A 
ATOM      5  C   UNL d   1     -40.028  14.601  19.970  0.00  0.00     0.102 A 
ATOM      6  C   UNL d   1     -39.679  14.823  19.250  0.00  0.00     0.100 A 
ATOM      7  C   UNL d   1     -40.865  14.417  18.559  0.00  0.00     0.100 A 
ATOM      8  O   UNL d   1     -40.725  14.159  21.411  0.00  0.00    -0.266 OA
ENDROOT
BRANCH   3   9
ATOM      9  C   UNL d   1     -41.898  13.759  20.712  0.00  0.00     0.100 C 
BRANCH   9  10
ATOM     10  S   UNL d   1     -42.185  13.370  21.382  0.00  0.00    -0.036 SA
BRANCH  10  11
ATOM     11  C   UNL d   1     -42.982  13.128  21.424  0.00  0.00     0.236 A 
ATOM     12  O   UNL d   1     -43.545  13.380  21.956  0.00  0.00    -0.263 OA
ATOM     13  C   UNL d   1     -44.256  12.990  21.786  0.00  0.00     0.205 A 
ATOM     14  N   UNL d   1     -44.122  12.497  21.144  0.00  0.00    -0.120 NA
ATOM     15  N   UNL d   1     -43.325  12.582  20.917  0.00  0.00    -0.114 NA
BRANCH  13  16
ATOM     16  C   UNL d   1     -44.983  13.062  22.170  0.00  0.00     0.043 A 
ATOM     17  C   UNL d   1     -45.319  12.406  22.533  0.00  0.00     0.004 A 
ATOM     18  C   UNL d   1     -46.046  12.477  22.918  0.00  0.00     0.000 A 
ATOM     19  C   UNL d   1     -46.433  13.205  22.937  0.00  0.00     0.000 A 
ATOM     20  C   UNL d   1     -46.093  13.863  22.571  0.00  0.00     0.000 A 
ATOM     21  C   UNL d   1     -45.370  13.789  22.189  0.00  0.00     0.004 A 
ENDBRANCH  13  16
ENDBRANCH  10  11
ENDBRANCH   9  10
ENDBRANCH   3   9
BRANCH   2  22
ATOM     22  C   UNL d   1     -39.759  14.947  17.831  0.00  0.00     0.064 A 
ATOM     23  C   UNL d   1     -40.036  15.609  17.433  0.00  0.00     0.018 A 
ATOM     24  C   UNL d   1     -39.691  15.839  16.709  0.00  0.00     0.002 A 
ATOM     25  C   UNL d   1     -39.075  15.397  16.398  0.00  0.00     0.000 A 
ATOM     26  C   UNL d   1     -38.792  14.728  16.796  0.00  0.00     0.002 A 
ATOM     27  C   UNL d   1     -39.141  14.508  17.516  0.00  0.00     0.018 A 
ENDBRANCH   2  22
TORSDOF 5
ENDMDL
