MODEL 1
REMARK VINA RESULT:      40.6      0.000      0.000
REMARK  3 active torsions:
REMARK  status: ('A' for Active; 'I' for Inactive)
REMARK    1  A    between atoms: N_2  and  C_1 
REMARK    2  A    between atoms: N_3  and  C_1 
REMARK       I    between atoms: C_4  and  N_3 
REMARK    3  A    between atoms: C_7  and  C_4 
ROOT
ATOM      1  C   UNL d   1      13.623  12.363  -2.555  0.00  0.00     0.209 C 
ATOM      2  S   UNL d   1      13.518  11.779  -3.139  0.00  0.00    -0.038 SA
ENDROOT
BRANCH   1   3
ATOM      3  N   UNL d   1      13.571  12.168  -1.759  0.00  0.00    -0.282 N 
ATOM      4  C   UNL d   1      14.261  12.126  -1.300  0.00  0.00     0.066 A 
ATOM      5  C   UNL d   1      14.209  11.931  -0.504  0.00  0.00     0.016 A 
ATOM      6  C   UNL d   1      14.993  12.276  -1.635  0.00  0.00     0.018 A 
ATOM      7  C   UNL d   1      14.885  11.887  -0.045  0.00  0.00     0.001 A 
ATOM      8  C   UNL d   1      13.476  11.779  -0.160  0.00  0.00     0.003 A 
ATOM      9  C   UNL d   1      15.619  12.038  -0.382  0.00  0.00     0.000 A 
ATOM     10  C   UNL d   1      15.679  12.232  -1.174  0.00  0.00     0.002 A 
ATOM     11  C   UNL d   1      12.791  11.823  -0.621  0.00  0.00     0.019 A 
ATOM     12  C   UNL d   1      12.840  12.017  -1.419  0.00  0.00     0.082 A 
ENDBRANCH   1   3
BRANCH   1  13
ATOM     13  N   UNL d   1      13.782  13.146  -2.781  0.00  0.00    -0.180 NA
ATOM     14  C   UNL d   1      13.562  13.405  -3.540  0.00  0.00     0.281 C 
ATOM     15  O   UNL d   1      13.191  12.893  -4.065  0.00  0.00    -0.265 OA
BRANCH  14  16
ATOM     16  C   UNL d   1      13.722  14.196  -3.769  0.00  0.00     0.058 A 
ATOM     17  C   UNL d   1      13.412  14.484  -4.483  0.00  0.00     0.005 A 
ATOM     18  C   UNL d   1      13.571  15.268  -4.710  0.00  0.00     0.007 A 
ATOM     19  C   UNL d   1      14.034  15.753  -4.227  0.00  0.00     0.035 A 
ATOM     20  C   UNL d   1      14.342  15.453  -3.508  0.00  0.00     0.007 A 
ATOM     21 BR   UNL d   1      14.193  16.537  -4.453  0.00  0.00    -0.049 Br
ATOM     22  C   UNL d   1      14.185  14.677  -3.284  0.00  0.00     0.005 A 
ENDBRANCH  14  16
ENDBRANCH   1  13
TORSDOF 3
ENDMDL
