MODEL 1
REMARK VINA RESULT:      -3.4      0.000      0.000
REMARK  3 active torsions:
REMARK  status: ('A' for Active; 'I' for Inactive)
REMARK    1  A    between atoms: N_4  and  C_2 
REMARK    2  A    between atoms: C_12  and  C_10 
REMARK    3  A    between atoms: C_19  and  C_11 
ROOT
ATOM      1  C   UNL d   1      58.475  -1.211  29.737  0.00  0.00     0.152 A 
ATOM      2  C   UNL d   1      59.006  -1.229  29.131  0.00  0.00     0.174 A 
ATOM      3  C   UNL d   1      58.078  -1.903  29.958  0.00  0.00     0.111 A 
ATOM      4  O   UNL d   1      58.323  -0.499  30.145  0.00  0.00    -0.302 OA
ATOM      5  N   UNL d   1      59.158  -1.923  28.730  0.00  0.00    -0.207 NA
ATOM      6  C   UNL d   1      57.383  -1.178  30.984  0.00  0.00     0.043 A 
ATOM      7  N   UNL d   1      58.218  -2.603  29.569  0.00  0.00    -0.225 NA
ATOM      8  C   UNL d   1      57.776  -0.493  30.766  0.00  0.00     0.102 A 
ATOM      9  C   UNL d   1      58.761  -2.615  28.950  0.00  0.00     0.164 A 
ATOM     10  C   UNL d   1      56.841  -1.165  31.602  0.00  0.00     0.004 A 
ATOM     11  C   UNL d   1      57.626   0.211  31.168  0.00  0.00     0.025 A 
ATOM     12  C   UNL d   1      56.688  -0.465  32.006  0.00  0.00     0.000 A 
ATOM     13  C   UNL d   1      57.081   0.232  31.792  0.00  0.00     0.002 A 
ENDROOT
BRANCH   2  14
ATOM     14  N   UNL d   1      59.399  -0.544  28.913  0.00  0.00    -0.284 N 
ATOM     15  C   UNL d   1      60.200  -0.401  28.974  0.00  0.00     0.130 A 
ATOM     16  C   UNL d   1      60.352   0.350  28.694  0.00  0.00     0.025 A 
ATOM     17  C   UNL d   1      59.641   0.682  28.455  0.00  0.00     0.021 A 
ATOM     18  C   UNL d   1      59.045   0.129  28.590  0.00  0.00     0.082 A 
BRANCH  15  19
ATOM     19  C   UNL d   1      60.783  -0.947  29.280  0.00  0.00     0.228 C 
ATOM     20  O   UNL d   1      61.013  -0.907  30.095  0.00  0.00    -0.643 OA
ATOM     21  O   UNL d   1      61.130  -1.526  28.768  0.00  0.00    -0.643 OA
ENDBRANCH  15  19
ENDBRANCH   2  14
BRANCH   9  22
ATOM     22  C   UNL d   1      58.919  -3.346  28.530  0.00  0.00     0.039 C 
ATOM     23  C   UNL d   1      58.321  -3.940  28.477  0.00  0.00     0.003 C 
ENDBRANCH   9  22
TORSDOF 3
ENDMDL
MODEL 2
REMARK VINA RESULT:      -2.2      0.784      2.375
REMARK  3 active torsions:
REMARK  status: ('A' for Active; 'I' for Inactive)
REMARK    1  A    between atoms: N_4  and  C_2 
REMARK    2  A    between atoms: C_12  and  C_10 
REMARK    3  A    between atoms: C_19  and  C_11 
ROOT
ATOM      1  C   UNL d   1      58.637  -0.713  29.744  0.00  0.00     0.152 A 
ATOM      2  C   UNL d   1      59.040  -1.076  29.147  0.00  0.00     0.174 A 
ATOM      3  C   UNL d   1      58.797   0.078  29.928  0.00  0.00     0.111 A 
ATOM      4  O   UNL d   1      58.060  -1.131  30.177  0.00  0.00    -0.302 OA
ATOM      5  N   UNL d   1      59.606  -0.671  28.720  0.00  0.00    -0.207 NA
ATOM      6  C   UNL d   1      57.811   0.035  30.970  0.00  0.00     0.043 A 
ATOM      7  N   UNL d   1      59.357   0.495  29.512  0.00  0.00    -0.225 NA
ATOM      8  C   UNL d   1      57.653  -0.748  30.788  0.00  0.00     0.102 A 
ATOM      9  C   UNL d   1      59.766   0.120  28.904  0.00  0.00     0.164 A 
ATOM     10  C   UNL d   1      57.402   0.409  31.578  0.00  0.00     0.004 A 
ATOM     11  C   UNL d   1      57.082  -1.161  31.217  0.00  0.00     0.025 A 
ATOM     12  C   UNL d   1      56.832   0.000  32.008  0.00  0.00     0.000 A 
ATOM     13  C   UNL d   1      56.666  -0.791  31.831  0.00  0.00     0.002 A 
ENDROOT
BRANCH   2  14
ATOM     14  N   UNL d   1      58.882  -1.858  28.965  0.00  0.00    -0.284 N 
ATOM     15  C   UNL d   1      59.396  -2.488  29.037  0.00  0.00     0.130 A 
ATOM     16  C   UNL d   1      59.011  -3.166  28.795  0.00  0.00     0.025 A 
ATOM     17  C   UNL d   1      58.250  -2.960  28.569  0.00  0.00     0.021 A 
ATOM     18  C   UNL d   1      58.165  -2.147  28.674  0.00  0.00     0.082 A 
BRANCH  15  19
ATOM     19  C   UNL d   1      60.202  -2.447  29.318  0.00  0.00     0.228 C 
ATOM     20  O   UNL d   1      60.363  -2.493  30.149  0.00  0.00    -0.643 OA
ATOM     21  O   UNL d   1      60.839  -2.359  28.765  0.00  0.00    -0.643 OA
ENDBRANCH  15  19
ENDBRANCH   2  14
BRANCH   9  22
ATOM     22  C   UNL d   1      60.360   0.547  28.456  0.00  0.00     0.039 C 
ATOM     23  C   UNL d   1      61.124   0.680  28.791  0.00  0.00     0.003 C 
ENDBRANCH   9  22
TORSDOF 3
ENDMDL
MODEL 3
REMARK VINA RESULT:      -2.1      1.094      2.938
REMARK  3 active torsions:
REMARK  status: ('A' for Active; 'I' for Inactive)
REMARK    1  A    between atoms: N_4  and  C_2 
REMARK    2  A    between atoms: C_12  and  C_10 
REMARK    3  A    between atoms: C_19  and  C_11 
ROOT
ATOM      1  C   UNL d   1      58.946  -0.935  29.577  0.00  0.00     0.152 A 
ATOM      2  C   UNL d   1      59.122  -0.156  29.687  0.00  0.00     0.174 A 
ATOM      3  C   UNL d   1      58.261  -1.254  29.916  0.00  0.00     0.111 A 
ATOM      4  O   UNL d   1      59.448  -1.422  29.124  0.00  0.00    -0.302 OA
ATOM      5  N   UNL d   1      58.633   0.324  30.130  0.00  0.00    -0.207 NA
ATOM      6  C   UNL d   1      58.579  -2.536  29.354  0.00  0.00     0.043 A 
ATOM      7  N   UNL d   1      57.764  -0.789  30.360  0.00  0.00    -0.225 NA
ATOM      8  C   UNL d   1      59.256  -2.221  29.018  0.00  0.00     0.102 A 
ATOM      9  C   UNL d   1      57.949   0.005  30.469  0.00  0.00     0.164 A 
ATOM     10  C   UNL d   1      58.394  -3.330  29.244  0.00  0.00     0.004 A 
ATOM     11  C   UNL d   1      59.754  -2.702  28.569  0.00  0.00     0.025 A 
ATOM     12  C   UNL d   1      58.888  -3.814  28.798  0.00  0.00     0.000 A 
ATOM     13  C   UNL d   1      59.575  -3.503  28.455  0.00  0.00     0.002 A 
ENDROOT
BRANCH   2  14
ATOM     14  N   UNL d   1      59.800   0.159  29.351  0.00  0.00    -0.284 N 
ATOM     15  C   UNL d   1      60.508   0.304  29.730  0.00  0.00     0.130 A 
ATOM     16  C   UNL d   1      61.031   0.620  29.188  0.00  0.00     0.025 A 
ATOM     17  C   UNL d   1      60.649   0.672  28.464  0.00  0.00     0.021 A 
ATOM     18  C   UNL d   1      59.882   0.386  28.562  0.00  0.00     0.082 A 
BRANCH  15  19
ATOM     19  C   UNL d   1      60.675   0.153  30.554  0.00  0.00     0.228 C 
ATOM     20  O   UNL d   1      60.383   0.682  31.149  0.00  0.00    -0.643 OA
ATOM     21  O   UNL d   1      61.132  -0.526  30.775  0.00  0.00    -0.643 OA
ENDBRANCH  15  19
ENDBRANCH   2  14
BRANCH   9  22
ATOM     22  C   UNL d   1      57.433   0.508  30.935  0.00  0.00     0.039 C 
ATOM     23  C   UNL d   1      56.977   0.177  31.564  0.00  0.00     0.003 C 
ENDBRANCH   9  22
TORSDOF 3
ENDMDL
MODEL 4
REMARK VINA RESULT:      -0.7      1.483      3.459
REMARK  3 active torsions:
REMARK  status: ('A' for Active; 'I' for Inactive)
REMARK    1  A    between atoms: N_4  and  C_2 
REMARK    2  A    between atoms: C_12  and  C_10 
REMARK    3  A    between atoms: C_19  and  C_11 
ROOT
ATOM      1  C   UNL d   1      59.336  -0.910  29.359  0.00  0.00     0.152 A 
ATOM      2  C   UNL d   1      59.186  -0.128  29.485  0.00  0.00     0.174 A 
ATOM      3  C   UNL d   1      60.077  -1.224  29.554  0.00  0.00     0.111 A 
ATOM      4  O   UNL d   1      58.748  -1.405  29.034  0.00  0.00    -0.302 OA
ATOM      5  N   UNL d   1      59.758   0.360  29.803  0.00  0.00    -0.207 NA
ATOM      6  C   UNL d   1      59.647  -2.517  29.102  0.00  0.00     0.043 A 
ATOM      7  N   UNL d   1      60.656  -0.751  29.871  0.00  0.00    -0.225 NA
ATOM      8  C   UNL d   1      58.914  -2.207  28.909  0.00  0.00     0.102 A 
ATOM      9  C   UNL d   1      60.499   0.046  29.997  0.00  0.00     0.164 A 
ATOM     10  C   UNL d   1      59.804  -3.315  28.975  0.00  0.00     0.004 A 
ATOM     11  C   UNL d   1      58.333  -2.696  28.588  0.00  0.00     0.025 A 
ATOM     12  C   UNL d   1      59.228  -3.806  28.655  0.00  0.00     0.000 A 
ATOM     13  C   UNL d   1      58.484  -3.500  28.458  0.00  0.00     0.002 A 
ENDROOT
BRANCH   2  14
ATOM     14  N   UNL d   1      58.453   0.183  29.292  0.00  0.00    -0.284 N 
ATOM     15  C   UNL d   1      57.839   0.337  29.807  0.00  0.00     0.130 A 
ATOM     16  C   UNL d   1      57.214   0.643  29.381  0.00  0.00     0.025 A 
ATOM     17  C   UNL d   1      57.437   0.682  28.593  0.00  0.00     0.021 A 
ATOM     18  C   UNL d   1      58.208   0.396  28.533  0.00  0.00     0.082 A 
BRANCH  15  19
ATOM     19  C   UNL d   1      57.848   0.201  30.651  0.00  0.00     0.228 C 
ATOM     20  O   UNL d   1      57.370  -0.414  30.986  0.00  0.00    -0.643 OA
ATOM     21  O   UNL d   1      58.335   0.682  31.151  0.00  0.00    -0.643 OA
ENDBRANCH  15  19
ENDBRANCH   2  14
BRANCH   9  22
ATOM     22  C   UNL d   1      61.101   0.558  30.331  0.00  0.00     0.039 C 
ATOM     23  C   UNL d   1      61.133   0.680  31.167  0.00  0.00     0.003 C 
ENDBRANCH   9  22
TORSDOF 3
ENDMDL
MODEL 5
REMARK VINA RESULT:      -0.7      1.699      2.855
REMARK  3 active torsions:
REMARK  status: ('A' for Active; 'I' for Inactive)
REMARK    1  A    between atoms: N_4  and  C_2 
REMARK    2  A    between atoms: C_12  and  C_10 
REMARK    3  A    between atoms: C_19  and  C_11 
ROOT
ATOM      1  C   UNL d   1      58.249   0.372  31.215  0.00  0.00     0.152 A 
ATOM      2  C   UNL d   1      58.696   0.324  30.546  0.00  0.00     0.174 A 
ATOM      3  C   UNL d   1      58.612   0.524  31.943  0.00  0.00     0.111 A 
ATOM      4  O   UNL d   1      57.422   0.269  31.178  0.00  0.00    -0.302 OA
ATOM      5  N   UNL d   1      59.505   0.424  30.577  0.00  0.00    -0.207 NA
ATOM      6  C   UNL d   1      57.332   0.471  32.592  0.00  0.00     0.043 A 
ATOM      7  N   UNL d   1      59.416   0.626  31.991  0.00  0.00    -0.225 NA
ATOM      8  C   UNL d   1      56.973   0.320  31.871  0.00  0.00     0.102 A 
ATOM      9  C   UNL d   1      59.868   0.576  31.306  0.00  0.00     0.164 A 
ATOM     10  C   UNL d   1      56.879   0.521  33.278  0.00  0.00     0.004 A 
ATOM     11  C   UNL d   1      56.155   0.219  31.834  0.00  0.00     0.025 A 
ATOM     12  C   UNL d   1      56.064   0.420  33.245  0.00  0.00     0.000 A 
ATOM     13  C   UNL d   1      55.693   0.267  32.520  0.00  0.00     0.002 A 
ENDROOT
BRANCH   2  14
ATOM     14  N   UNL d   1      58.337   0.173  29.825  0.00  0.00    -0.284 N 
ATOM     15  C   UNL d   1      58.425  -0.497  29.368  0.00  0.00     0.130 A 
ATOM     16  C   UNL d   1      57.968  -0.414  28.697  0.00  0.00     0.025 A 
ATOM     17  C   UNL d   1      57.590   0.313  28.733  0.00  0.00     0.021 A 
ATOM     18  C   UNL d   1      57.817   0.682  29.434  0.00  0.00     0.082 A 
BRANCH  15  19
ATOM     19  C   UNL d   1      58.913  -1.172  29.559  0.00  0.00     0.228 C 
ATOM     20  O   UNL d   1      59.751  -1.136  29.434  0.00  0.00    -0.643 OA
ATOM     21  O   UNL d   1      58.558  -1.875  29.872  0.00  0.00    -0.643 OA
ENDBRANCH  15  19
ENDBRANCH   2  14
BRANCH   9  22
ATOM     22  C   UNL d   1      60.719   0.681  31.341  0.00  0.00     0.039 C 
ATOM     23  C   UNL d   1      61.133   0.522  32.060  0.00  0.00     0.003 C 
ENDBRANCH   9  22
TORSDOF 3
ENDMDL
