MODEL 1
REMARK VINA RESULT:      35.0      0.000      0.000
REMARK  5 active torsions:
REMARK  status: ('A' for Active; 'I' for Inactive)
REMARK    1  A    between atoms: C_6  and  N_1 
REMARK    2  A    between atoms: C_11  and  C_6 
REMARK    3  A    between atoms: C_14  and  C_11 
REMARK    4  A    between atoms: C_12  and  O_13 
REMARK    5  A    between atoms: O_13  and  C_14 
ROOT
ATOM      1  C   UNL d   1      13.754  12.480  -1.887  0.00  0.00     0.238 C 
ATOM      2  O   UNL d   1      13.859  11.789  -1.447  0.00  0.00    -0.283 OA
ENDROOT
BRANCH   1   3
ATOM      3  C   UNL d   1      13.113  12.551  -2.403  0.00  0.00     0.126 C 
BRANCH   3   4
ATOM      4  N   UNL d   1      13.228  12.462  -3.222  0.00  0.00    -0.284 N 
ATOM      5  C   UNL d   1      13.478  11.780  -3.607  0.00  0.00     0.183 A 
ATOM      6  N   UNL d   1      13.518  11.933  -4.417  0.00  0.00    -0.224 NA
ATOM      7  C   UNL d   1      13.291  12.717  -4.531  0.00  0.00     0.099 A 
ATOM      8  C   UNL d   1      13.111  13.047  -3.797  0.00  0.00     0.083 A 
ATOM      9  C   UNL d   1      13.224  13.172  -5.210  0.00  0.00     0.021 A 
ATOM     10  C   UNL d   1      12.864  13.833  -3.741  0.00  0.00     0.019 A 
ATOM     11  C   UNL d   1      12.798  14.289  -4.425  0.00  0.00     0.002 A 
ATOM     12  C   UNL d   1      12.978  13.960  -5.166  0.00  0.00     0.002 A 
ENDBRANCH   3   4
ENDBRANCH   1   3
BRANCH   1  13
ATOM     13  C   UNL d   1      14.298  13.111  -1.811  0.00  0.00     0.166 C 
BRANCH  13  14
ATOM     14  O   UNL d   1      14.704  13.231  -1.082  0.00  0.00    -0.302 OA
BRANCH  14  15
ATOM     15  C   UNL d   1      14.989  13.984  -0.863  0.00  0.00     0.100 A 
ATOM     16  C   UNL d   1      14.745  14.643  -1.271  0.00  0.00     0.025 A 
ATOM     17  C   UNL d   1      15.031  15.396  -1.052  0.00  0.00     0.002 A 
ATOM     18  C   UNL d   1      14.890  16.143  -1.350  0.00  0.00     0.000 A 
ATOM     19  C   UNL d   1      15.557  15.465  -0.426  0.00  0.00     0.000 A 
ATOM     20  C   UNL d   1      15.329  16.674  -0.907  0.00  0.00     0.000 A 
ATOM     21  C   UNL d   1      15.740  16.257  -0.338  0.00  0.00     0.000 A 
ATOM     22  C   UNL d   1      15.800  14.781  -0.015  0.00  0.00     0.002 A 
ATOM     23  C   UNL d   1      15.516  14.053  -0.237  0.00  0.00     0.025 A 
ENDBRANCH  14  15
ENDBRANCH  13  14
ENDBRANCH   1  13
TORSDOF 5
ENDMDL
