MODEL 1
REMARK VINA RESULT:     -11.7      0.000      0.000
REMARK  1 active torsions:
REMARK  status: ('A' for Active; 'I' for Inactive)
REMARK    1  A    between atoms: C_9  and  C_5 
ROOT
ATOM      1  C   UNL d   1      53.212  33.326  53.962  0.00  0.00     0.062 A 
ATOM      2  C   UNL d   1      53.575  32.632  54.165  0.00  0.00     0.197 A 
ATOM      3  C   UNL d   1      52.644  33.322  53.329  0.00  0.00     0.044 A 
ATOM      4  C   UNL d   1      53.401  34.025  54.374  0.00  0.00     0.112 A 
ATOM      5  C   UNL d   1      53.008  34.719  54.137  0.00  0.00     0.084 A 
ATOM      6  C   UNL d   1      52.465  32.625  52.928  0.00  0.00     0.196 A 
ATOM      7  C   UNL d   1      53.400  31.904  53.760  0.00  0.00     0.042 A 
ATOM      8  C   UNL d   1      52.852  31.901  53.150  0.00  0.00     0.042 A 
ATOM      9  C   UNL d   1      52.260  34.018  53.104  0.00  0.00     0.004 A 
ATOM     10  C   UNL d   1      52.415  34.715  53.477  0.00  0.00     0.008 A 
ATOM     11  O   UNL d   1      54.143  32.635  54.797  0.00  0.00    -0.286 OA
ATOM     12  O   UNL d   1      51.892  32.621  52.291  0.00  0.00    -0.287 OA
ATOM     13  N   UNL d   1      53.939  34.028  54.973  0.00  0.00    -0.148 N 
ATOM     14  C   UNL d   1      53.784  31.210  53.986  0.00  0.00     0.003 A 
ATOM     15  C   UNL d   1      52.673  31.203  52.749  0.00  0.00     0.003 A 
ATOM     16  C   UNL d   1      53.625  30.511  53.607  0.00  0.00     0.000 A 
ATOM     17  C   UNL d   1      53.057  30.508  52.975  0.00  0.00     0.000 A 
ENDROOT
BRANCH   5  18
ATOM     18  C   UNL d   1      53.205  35.396  54.552  0.00  0.00     0.212 C 
ATOM     19  O   UNL d   1      53.713  35.915  54.192  0.00  0.00    -0.644 OA
ATOM     20  O   UNL d   1      52.884  35.525  55.313  0.00  0.00    -0.644 OA
ENDBRANCH   5  18
TORSDOF 1
ENDMDL
MODEL 2
REMARK VINA RESULT:     -11.2      1.345      3.759
REMARK  1 active torsions:
REMARK  status: ('A' for Active; 'I' for Inactive)
REMARK    1  A    between atoms: C_9  and  C_5 
ROOT
ATOM      1  C   UNL d   1      52.952  32.416  53.510  0.00  0.00     0.062 A 
ATOM      2  C   UNL d   1      52.573  33.114  53.355  0.00  0.00     0.197 A 
ATOM      3  C   UNL d   1      53.597  32.414  54.064  0.00  0.00     0.044 A 
ATOM      4  C   UNL d   1      52.704  31.719  53.127  0.00  0.00     0.112 A 
ATOM      5  C   UNL d   1      53.118  31.021  53.312  0.00  0.00     0.084 A 
ATOM      6  C   UNL d   1      53.834  33.110  54.437  0.00  0.00     0.196 A 
ATOM      7  C   UNL d   1      52.806  33.840  53.732  0.00  0.00     0.042 A 
ATOM      8  C   UNL d   1      53.428  33.838  54.266  0.00  0.00     0.042 A 
ATOM      9  C   UNL d   1      54.000  31.715  54.238  0.00  0.00     0.004 A 
ATOM     10  C   UNL d   1      53.791  31.019  53.889  0.00  0.00     0.008 A 
ATOM     11  O   UNL d   1      51.928  33.116  52.801  0.00  0.00    -0.286 OA
ATOM     12  O   UNL d   1      54.484  33.108  54.995  0.00  0.00    -0.287 OA
ATOM     13  N   UNL d   1      52.093  31.721  52.603  0.00  0.00    -0.148 N 
ATOM     14  C   UNL d   1      52.404  34.538  53.557  0.00  0.00     0.003 A 
ATOM     15  C   UNL d   1      53.665  34.534  54.639  0.00  0.00     0.003 A 
ATOM     16  C   UNL d   1      52.617  35.235  53.911  0.00  0.00     0.000 A 
ATOM     17  C   UNL d   1      53.263  35.233  54.464  0.00  0.00     0.000 A 
ENDROOT
BRANCH   5  18
ATOM     18  C   UNL d   1      52.862  30.346  52.927  0.00  0.00     0.212 C 
ATOM     19  O   UNL d   1      53.115  30.237  52.164  0.00  0.00    -0.644 OA
ATOM     20  O   UNL d   1      52.361  29.807  53.324  0.00  0.00    -0.644 OA
ENDBRANCH   5  18
TORSDOF 1
ENDMDL
MODEL 3
REMARK VINA RESULT:     -11.1      1.161      2.611
REMARK  1 active torsions:
REMARK  status: ('A' for Active; 'I' for Inactive)
REMARK    1  A    between atoms: C_9  and  C_5 
ROOT
ATOM      1  C   UNL d   1      53.176  33.759  54.011  0.00  0.00     0.062 A 
ATOM      2  C   UNL d   1      52.556  34.269  53.908  0.00  0.00     0.197 A 
ATOM      3  C   UNL d   1      53.212  33.054  53.538  0.00  0.00     0.044 A 
ATOM      4  C   UNL d   1      53.763  33.935  54.576  0.00  0.00     0.112 A 
ATOM      5  C   UNL d   1      54.385  33.388  54.655  0.00  0.00     0.084 A 
ATOM      6  C   UNL d   1      52.626  32.891  52.981  0.00  0.00     0.196 A 
ATOM      7  C   UNL d   1      51.944  34.114  53.338  0.00  0.00     0.042 A 
ATOM      8  C   UNL d   1      51.979  33.434  52.881  0.00  0.00     0.042 A 
ATOM      9  C   UNL d   1      53.835  32.520  53.625  0.00  0.00     0.004 A 
ATOM     10  C   UNL d   1      54.422  32.652  54.161  0.00  0.00     0.008 A 
ATOM     11  O   UNL d   1      52.520  34.974  54.381  0.00  0.00    -0.286 OA
ATOM     12  O   UNL d   1      52.662  32.180  52.504  0.00  0.00    -0.287 OA
ATOM     13  N   UNL d   1      53.729  34.603  55.025  0.00  0.00    -0.148 N 
ATOM     14  C   UNL d   1      51.323  34.648  53.251  0.00  0.00     0.003 A 
ATOM     15  C   UNL d   1      51.392  33.270  52.325  0.00  0.00     0.003 A 
ATOM     16  C   UNL d   1      50.734  34.510  52.711  0.00  0.00     0.000 A 
ATOM     17  C   UNL d   1      50.770  33.805  52.237  0.00  0.00     0.000 A 
ENDROOT
BRANCH   5  18
ATOM     18  C   UNL d   1      54.952  33.575  55.214  0.00  0.00     0.212 C 
ATOM     19  O   UNL d   1      54.851  33.273  55.959  0.00  0.00    -0.644 OA
ATOM     20  O   UNL d   1      55.599  34.060  55.002  0.00  0.00    -0.644 OA
ENDBRANCH   5  18
TORSDOF 1
ENDMDL
MODEL 4
REMARK VINA RESULT:     -10.5      1.357      2.776
REMARK  1 active torsions:
REMARK  status: ('A' for Active; 'I' for Inactive)
REMARK    1  A    between atoms: C_9  and  C_5 
ROOT
ATOM      1  C   UNL d   1      52.562  33.852  53.608  0.00  0.00     0.062 A 
ATOM      2  C   UNL d   1      53.038  34.298  54.088  0.00  0.00     0.197 A 
ATOM      3  C   UNL d   1      52.726  33.022  53.524  0.00  0.00     0.044 A 
ATOM      4  C   UNL d   1      51.925  34.213  53.211  0.00  0.00     0.112 A 
ATOM      5  C   UNL d   1      51.458  33.723  52.726  0.00  0.00     0.084 A 
ATOM      6  C   UNL d   1      53.359  32.675  53.923  0.00  0.00     0.196 A 
ATOM      7  C   UNL d   1      53.694  33.954  54.505  0.00  0.00     0.042 A 
ATOM      8  C   UNL d   1      53.853  33.153  54.424  0.00  0.00     0.042 A 
ATOM      9  C   UNL d   1      52.255  32.547  53.041  0.00  0.00     0.004 A 
ATOM     10  C   UNL d   1      51.629  32.857  52.638  0.00  0.00     0.008 A 
ATOM     11  O   UNL d   1      52.873  35.127  54.173  0.00  0.00    -0.286 OA
ATOM     12  O   UNL d   1      53.525  31.839  53.837  0.00  0.00    -0.287 OA
ATOM     13  N   UNL d   1      51.769  34.998  53.291  0.00  0.00    -0.148 N 
ATOM     14  C   UNL d   1      54.164  34.429  54.988  0.00  0.00     0.003 A 
ATOM     15  C   UNL d   1      54.486  32.807  54.823  0.00  0.00     0.003 A 
ATOM     16  C   UNL d   1      54.792  34.112  55.390  0.00  0.00     0.000 A 
ATOM     17  C   UNL d   1      54.957  33.282  55.306  0.00  0.00     0.000 A 
ENDROOT
BRANCH   5  18
ATOM     18  C   UNL d   1      50.837  34.093  52.344  0.00  0.00     0.212 C 
ATOM     19  O   UNL d   1      50.963  34.330  51.578  0.00  0.00    -0.644 OA
ATOM     20  O   UNL d   1      50.113  34.211  52.744  0.00  0.00    -0.644 OA
ENDBRANCH   5  18
TORSDOF 1
ENDMDL
MODEL 5
REMARK VINA RESULT:     -10.2      1.509      2.823
REMARK  1 active torsions:
REMARK  status: ('A' for Active; 'I' for Inactive)
REMARK    1  A    between atoms: C_9  and  C_5 
ROOT
ATOM      1  C   UNL d   1      52.506  33.725  53.576  0.00  0.00     0.062 A 
ATOM      2  C   UNL d   1      52.969  33.105  53.816  0.00  0.00     0.197 A 
ATOM      3  C   UNL d   1      52.671  34.502  53.878  0.00  0.00     0.044 A 
ATOM      4  C   UNL d   1      51.881  33.588  53.042  0.00  0.00     0.112 A 
ATOM      5  C   UNL d   1      51.426  34.249  52.819  0.00  0.00     0.084 A 
ATOM      6  C   UNL d   1      53.292  34.625  54.406  0.00  0.00     0.196 A 
ATOM      7  C   UNL d   1      53.613  33.217  54.360  0.00  0.00     0.042 A 
ATOM      8  C   UNL d   1      53.772  33.967  54.651  0.00  0.00     0.042 A 
ATOM      9  C   UNL d   1      52.213  35.149  53.649  0.00  0.00     0.004 A 
ATOM     10  C   UNL d   1      51.599  35.060  53.134  0.00  0.00     0.008 A 
ATOM     11  O   UNL d   1      52.803  32.328  53.514  0.00  0.00    -0.286 OA
ATOM     12  O   UNL d   1      53.459  35.409  54.711  0.00  0.00    -0.287 OA
ATOM     13  N   UNL d   1      51.724  32.852  52.756  0.00  0.00    -0.148 N 
ATOM     14  C   UNL d   1      54.070  32.571  54.589  0.00  0.00     0.003 A 
ATOM     15  C   UNL d   1      54.394  34.090  55.179  0.00  0.00     0.003 A 
ATOM     16  C   UNL d   1      54.686  32.666  55.107  0.00  0.00     0.000 A 
ATOM     17  C   UNL d   1      54.852  33.443  55.409  0.00  0.00     0.000 A 
ENDROOT
BRANCH   5  18
ATOM     18  C   UNL d   1      50.817  34.098  52.294  0.00  0.00     0.212 C 
ATOM     19  O   UNL d   1      50.088  33.940  52.611  0.00  0.00    -0.644 OA
ATOM     20  O   UNL d   1      50.965  34.111  51.471  0.00  0.00    -0.644 OA
ENDBRANCH   5  18
TORSDOF 1
ENDMDL
MODEL 6
REMARK VINA RESULT:      -9.4      1.468      2.729
REMARK  1 active torsions:
REMARK  status: ('A' for Active; 'I' for Inactive)
REMARK    1  A    between atoms: C_9  and  C_5 
ROOT
ATOM      1  C   UNL d   1      53.018  33.596  53.962  0.00  0.00     0.062 A 
ATOM      2  C   UNL d   1      52.531  33.165  53.480  0.00  0.00     0.197 A 
ATOM      3  C   UNL d   1      52.833  34.412  54.109  0.00  0.00     0.044 A 
ATOM      4  C   UNL d   1      53.686  33.232  54.302  0.00  0.00     0.112 A 
ATOM      5  C   UNL d   1      54.163  33.707  54.792  0.00  0.00     0.084 A 
ATOM      6  C   UNL d   1      52.168  34.761  53.766  0.00  0.00     0.196 A 
ATOM      7  C   UNL d   1      51.842  33.511  53.120  0.00  0.00     0.042 A 
ATOM      8  C   UNL d   1      51.664  34.299  53.261  0.00  0.00     0.042 A 
ATOM      9  C   UNL d   1      53.314  34.872  54.597  0.00  0.00     0.004 A 
ATOM     10  C   UNL d   1      53.970  34.559  54.945  0.00  0.00     0.008 A 
ATOM     11  O   UNL d   1      52.716  32.348  53.333  0.00  0.00    -0.286 OA
ATOM     12  O   UNL d   1      51.981  35.584  53.914  0.00  0.00    -0.287 OA
ATOM     13  N   UNL d   1      53.862  32.459  54.163  0.00  0.00    -0.148 N 
ATOM     14  C   UNL d   1      51.362  33.052  52.632  0.00  0.00     0.003 A 
ATOM     15  C   UNL d   1      50.999  34.648  52.919  0.00  0.00     0.003 A 
ATOM     16  C   UNL d   1      50.703  33.372  52.285  0.00  0.00     0.000 A 
ATOM     17  C   UNL d   1      50.518  34.188  52.431  0.00  0.00     0.000 A 
ENDROOT
BRANCH   5  18
ATOM     18  C   UNL d   1      54.815  33.335  55.117  0.00  0.00     0.212 C 
ATOM     19  O   UNL d   1      54.709  32.960  55.829  0.00  0.00    -0.644 OA
ATOM     20  O   UNL d   1      55.548  33.354  54.716  0.00  0.00    -0.644 OA
ENDBRANCH   5  18
TORSDOF 1
ENDMDL
MODEL 7
REMARK VINA RESULT:      -8.9      1.132      1.977
REMARK  1 active torsions:
REMARK  status: ('A' for Active; 'I' for Inactive)
REMARK    1  A    between atoms: C_9  and  C_5 
ROOT
ATOM      1  C   UNL d   1      53.583  32.612  54.010  0.00  0.00     0.062 A 
ATOM      2  C   UNL d   1      53.273  32.287  53.337  0.00  0.00     0.197 A 
ATOM      3  C   UNL d   1      53.767  32.102  54.665  0.00  0.00     0.044 A 
ATOM      4  C   UNL d   1      53.714  33.434  54.047  0.00  0.00     0.112 A 
ATOM      5  C   UNL d   1      54.034  33.732  54.756  0.00  0.00     0.084 A 
ATOM      6  C   UNL d   1      53.633  31.290  54.617  0.00  0.00     0.196 A 
ATOM      7  C   UNL d   1      53.129  31.451  53.273  0.00  0.00     0.042 A 
ATOM      8  C   UNL d   1      53.307  30.959  53.905  0.00  0.00     0.042 A 
ATOM      9  C   UNL d   1      54.084  32.410  55.362  0.00  0.00     0.004 A 
ATOM     10  C   UNL d   1      54.227  33.200  55.439  0.00  0.00     0.008 A 
ATOM     11  O   UNL d   1      53.089  32.796  52.682  0.00  0.00    -0.286 OA
ATOM     12  O   UNL d   1      53.819  30.776  55.277  0.00  0.00    -0.287 OA
ATOM     13  N   UNL d   1      53.540  33.916  53.427  0.00  0.00    -0.148 N 
ATOM     14  C   UNL d   1      52.813  31.143  52.577  0.00  0.00     0.003 A 
ATOM     15  C   UNL d   1      53.173  30.147  53.857  0.00  0.00     0.003 A 
ATOM     16  C   UNL d   1      52.672  30.348  52.505  0.00  0.00     0.000 A 
ATOM     17  C   UNL d   1      52.856  29.839  53.160  0.00  0.00     0.000 A 
ENDROOT
BRANCH   5  18
ATOM     18  C   UNL d   1      54.157  34.540  54.775  0.00  0.00     0.212 C 
ATOM     19  O   UNL d   1      53.508  35.009  54.904  0.00  0.00    -0.644 OA
ATOM     20  O   UNL d   1      54.927  34.846  54.664  0.00  0.00    -0.644 OA
ENDBRANCH   5  18
TORSDOF 1
ENDMDL
