MODEL 1
REMARK VINA RESULT:       2.1      0.000      0.000
REMARK  5 active torsions:
REMARK  status: ('A' for Active; 'I' for Inactive)
REMARK    1  A    between atoms: N_8  and  S_1 
REMARK    2  A    between atoms: C_11  and  S_1 
REMARK    3  A    between atoms: S_2  and  C_10 
REMARK    4  A    between atoms: N_9  and  S_2 
REMARK    5  A    between atoms: N_20  and  C_5 
ROOT
ATOM      1  C   UNL d   1      33.086  20.399 -20.491  0.00  0.00     0.021 A 
ATOM      2  C   UNL d   1      33.119  19.483 -21.454  0.00  0.00     0.021 A 
ATOM      3  C   UNL d   1      33.082  19.575 -20.636  0.00  0.00     0.111 A 
ATOM      4  C   UNL d   1      33.144  20.236 -21.793  0.00  0.00     0.002 A 
ATOM      5  C   UNL d   1      33.123  20.788 -21.181  0.00  0.00     0.002 A 
ATOM      6  C   UNL d   1      33.171  18.879 -22.752  0.00  0.00     0.104 A 
ATOM      7  C   UNL d   1      33.068  21.634 -19.768  0.00  0.00     0.104 A 
ATOM      8  C   UNL d   1      33.133  18.817 -21.931  0.00  0.00     0.015 A 
ATOM      9  C   UNL d   1      33.057  20.810 -19.769  0.00  0.00     0.015 A 
ATOM     10  C   UNL d   1      33.133  21.613 -21.180  0.00  0.00     0.001 A 
ATOM     11  C   UNL d   1      33.183  20.316 -22.616  0.00  0.00     0.001 A 
ATOM     12  C   UNL d   1      33.104  22.010 -20.459  0.00  0.00     0.013 A 
ATOM     13  C   UNL d   1      33.196  19.652 -23.070  0.00  0.00     0.013 A 
ENDROOT
BRANCH   6  14
ATOM     14  S   UNL d   1      33.186  18.197 -23.247  0.00  0.00     0.271 S 
ATOM     15  O   UNL d   1      33.208  18.696 -23.933  0.00  0.00    -0.200 OA
ATOM     16  O   UNL d   1      33.164  17.732 -22.542  0.00  0.00    -0.200 OA
BRANCH  14  17
ATOM     17  N   UNL d   1      33.199  17.521 -23.710  0.00  0.00    -0.229 N 
ATOM     18  C   UNL d   1      33.186  17.588 -24.523  0.00  0.00     0.092 A 
ATOM     19  C   UNL d   1      33.199  16.906 -24.972  0.00  0.00     0.020 A 
ATOM     20  C   UNL d   1      33.226  16.164 -24.627  0.00  0.00     0.003 A 
ATOM     21  C   UNL d   1      33.241  16.094 -23.796  0.00  0.00     0.020 A 
ATOM     22  C   UNL d   1      33.240  15.475 -25.097  0.00  0.00     0.000 C 
ATOM     23  C   UNL d   1      33.227  16.783 -23.334  0.00  0.00     0.092 A 
ENDBRANCH  14  17
ENDBRANCH   6  14
BRANCH   3  24
ATOM     24  N   UNL d   1      33.048  18.982 -20.063  0.00  0.00    -0.096 NA
ATOM     25  O   UNL d   1      33.234  19.195 -19.275  0.00  0.00    -0.061 OA
ENDBRANCH   3  24
BRANCH   7  26
ATOM     26  S   UNL d   1      33.040  22.075 -19.062  0.00  0.00     0.271 S 
ATOM     27  O   UNL d   1      33.194  21.374 -18.620  0.00  0.00    -0.200 OA
ATOM     28  O   UNL d   1      32.890  22.754 -19.515  0.00  0.00    -0.200 OA
BRANCH  26  29
ATOM     29  N   UNL d   1      33.015  22.509 -18.343  0.00  0.00    -0.229 N 
ATOM     30  C   UNL d   1      33.241  22.122 -17.653  0.00  0.00     0.092 A 
ATOM     31  C   UNL d   1      33.226  22.517 -16.946  0.00  0.00     0.020 A 
ATOM     32  C   UNL d   1      32.988  23.306 -16.899  0.00  0.00     0.003 A 
ATOM     33  C   UNL d   1      32.758  23.702 -17.601  0.00  0.00     0.020 A 
ATOM     34  C   UNL d   1      32.979  23.699 -16.159  0.00  0.00     0.000 C 
ATOM     35  C   UNL d   1      32.774  23.297 -18.321  0.00  0.00     0.092 A 
ENDBRANCH  26  29
ENDBRANCH   7  26
TORSDOF 5
ENDMDL
MODEL 2
REMARK VINA RESULT:       3.6      0.381      6.670
REMARK  5 active torsions:
REMARK  status: ('A' for Active; 'I' for Inactive)
REMARK    1  A    between atoms: N_8  and  S_1 
REMARK    2  A    between atoms: C_11  and  S_1 
REMARK    3  A    between atoms: S_2  and  C_10 
REMARK    4  A    between atoms: N_9  and  S_2 
REMARK    5  A    between atoms: N_20  and  C_5 
ROOT
ATOM      1  C   UNL d   1      32.982  19.559 -21.240  0.00  0.00     0.021 A 
ATOM      2  C   UNL d   1      33.024  20.434 -20.241  0.00  0.00     0.021 A 
ATOM      3  C   UNL d   1      33.092  19.632 -20.415  0.00  0.00     0.111 A 
ATOM      4  C   UNL d   1      32.876  20.835 -20.947  0.00  0.00     0.002 A 
ATOM      5  C   UNL d   1      32.853  20.276 -21.553  0.00  0.00     0.002 A 
ATOM      6  C   UNL d   1      32.986  21.668 -19.513  0.00  0.00     0.104 A 
ATOM      7  C   UNL d   1      32.866  18.949 -22.530  0.00  0.00     0.104 A 
ATOM      8  C   UNL d   1      33.078  20.849 -19.536  0.00  0.00     0.015 A 
ATOM      9  C   UNL d   1      32.991  18.880 -21.718  0.00  0.00     0.015 A 
ATOM     10  C   UNL d   1      32.728  20.347 -22.366  0.00  0.00     0.001 A 
ATOM     11  C   UNL d   1      32.781  21.658 -20.942  0.00  0.00     0.001 A 
ATOM     12  C   UNL d   1      32.740  19.667 -22.829  0.00  0.00     0.013 A 
ATOM     13  C   UNL d   1      32.837  22.050 -20.242  0.00  0.00     0.013 A 
ENDROOT
BRANCH   6  14
ATOM     14  S   UNL d   1      33.040  22.100 -18.791  0.00  0.00     0.271 S 
ATOM     15  O   UNL d   1      33.114  22.822 -19.229  0.00  0.00    -0.200 OA
ATOM     16  O   UNL d   1      32.963  21.361 -18.389  0.00  0.00    -0.200 OA
BRANCH  14  17
ATOM     17  N   UNL d   1      33.090  22.499 -18.078  0.00  0.00    -0.229 N 
ATOM     18  C   UNL d   1      33.192  23.309 -18.075  0.00  0.00     0.092 A 
ATOM     19  C   UNL d   1      33.240  23.695 -17.357  0.00  0.00     0.020 A 
ATOM     20  C   UNL d   1      33.190  23.291 -16.647  0.00  0.00     0.003 A 
ATOM     21  C   UNL d   1      33.086  22.463 -16.648  0.00  0.00     0.020 A 
ATOM     22  C   UNL d   1      33.241  23.697 -15.920  0.00  0.00     0.000 C 
ATOM     23  C   UNL d   1      33.036  22.066 -17.374  0.00  0.00     0.092 A 
ENDBRANCH  14  17
ENDBRANCH   6  14
BRANCH   3  24
ATOM     24  N   UNL d   1      33.240  19.013 -19.889  0.00  0.00    -0.096 NA
ATOM     25  O   UNL d   1      33.225  19.187 -19.071  0.00  0.00    -0.061 OA
ENDBRANCH   3  24
BRANCH   7  26
ATOM     26  S   UNL d   1      32.870  18.288 -23.036  0.00  0.00     0.271 S 
ATOM     27  O   UNL d   1      32.693  18.790 -23.689  0.00  0.00    -0.200 OA
ATOM     28  O   UNL d   1      33.044  17.811 -22.379  0.00  0.00    -0.200 OA
BRANCH  26  29
ATOM     29  N   UNL d   1      32.871  17.629 -23.557  0.00  0.00    -0.229 N 
ATOM     30  C   UNL d   1      32.622  16.904 -23.259  0.00  0.00     0.092 A 
ATOM     31  C   UNL d   1      32.613  16.252 -23.739  0.00  0.00     0.020 A 
ATOM     32  C   UNL d   1      32.850  16.295 -24.528  0.00  0.00     0.003 A 
ATOM     33  C   UNL d   1      33.104  17.034 -24.834  0.00  0.00     0.020 A 
ATOM     34  C   UNL d   1      32.834  15.611 -25.011  0.00  0.00     0.000 C 
ATOM     35  C   UNL d   1      33.113  17.698 -24.342  0.00  0.00     0.092 A 
ENDBRANCH  26  29
ENDBRANCH   7  26
TORSDOF 5
ENDMDL
