MODEL 1
REMARK VINA RESULT:      22.2      0.000      0.000
REMARK  2 active torsions:
REMARK  status: ('A' for Active; 'I' for Inactive)
REMARK    1  A    between atoms: C_10  and  N_3 
REMARK    2  A    between atoms: C_11  and  C_4 
ROOT
ATOM      1  C   UNL d   1      46.284 -18.472  43.988  0.00  0.00     0.152 A 
ATOM      2  C   UNL d   1      46.391 -19.002  43.374  0.00  0.00     0.065 A 
ATOM      3  N   UNL d   1      46.148 -17.724  43.662  0.00  0.00    -0.290 N 
ATOM      4  C   UNL d   1      46.322 -18.588  42.662  0.00  0.00     0.023 A 
ATOM      5  C   UNL d   1      46.173 -17.803  42.843  0.00  0.00     0.082 A 
ATOM      6  N   UNL d   1      46.322 -18.728  44.772  0.00  0.00    -0.206 NA
ATOM      7  C   UNL d   1      46.538 -19.799  43.531  0.00  0.00     0.143 A 
ATOM      8  N   UNL d   1      46.576 -20.056  44.316  0.00  0.00    -0.212 NA
ATOM      9  C   UNL d   1      46.469 -19.525  44.930  0.00  0.00     0.201 A 
ATOM     10 CL   UNL d   1      46.644 -20.330  42.917  0.00  0.00    -0.061 Cl
ENDROOT
BRANCH   3  11
ATOM     11  C   UNL d   1      46.011 -17.016  44.041  0.00  0.00     0.065 A 
ATOM     12  C   UNL d   1      45.368 -16.938  44.550  0.00  0.00     0.018 A 
ATOM     13  C   UNL d   1      45.228 -16.220  44.935  0.00  0.00     0.002 A 
ATOM     14  C   UNL d   1      45.738 -15.571  44.809  0.00  0.00     0.000 A 
ATOM     15  C   UNL d   1      46.380 -15.659  44.296  0.00  0.00     0.002 A 
ATOM     16  C   UNL d   1      46.515 -16.377  43.915  0.00  0.00     0.018 A 
ENDBRANCH   3  11
BRANCH   4  17
ATOM     17  C   UNL d   1      46.411 -19.019  41.963  0.00  0.00     0.002 A 
ATOM     18  C   UNL d   1      46.484 -19.842  41.991  0.00  0.00     0.000 A 
ATOM     19  C   UNL d   1      46.573 -20.273  41.292  0.00  0.00     0.000 A 
ATOM     20  C   UNL d   1      46.589 -19.882  40.568  0.00  0.00     0.000 A 
ATOM     21  C   UNL d   1      46.515 -19.059  40.542  0.00  0.00     0.000 A 
ATOM     22  C   UNL d   1      46.427 -18.630  41.236  0.00  0.00     0.000 A 
ENDBRANCH   4  17
TORSDOF 2
ENDMDL
MODEL 2
REMARK VINA RESULT:      24.5      2.520      5.049
REMARK  2 active torsions:
REMARK  status: ('A' for Active; 'I' for Inactive)
REMARK    1  A    between atoms: C_10  and  N_3 
REMARK    2  A    between atoms: C_11  and  C_4 
ROOT
ATOM      1  C   UNL d   1      45.002 -15.653  44.496  0.00  0.00     0.152 A 
ATOM      2  C   UNL d   1      45.024 -14.835  44.526  0.00  0.00     0.065 A 
ATOM      3  N   UNL d   1      45.745 -15.922  44.252  0.00  0.00    -0.290 N 
ATOM      4  C   UNL d   1      45.781 -14.590  44.301  0.00  0.00     0.023 A 
ATOM      5  C   UNL d   1      46.221 -15.260  44.133  0.00  0.00     0.082 A 
ATOM      6  N   UNL d   1      44.311 -16.059  44.694  0.00  0.00    -0.206 NA
ATOM      7  C   UNL d   1      44.356 -14.408  44.755  0.00  0.00     0.143 A 
ATOM      8  N   UNL d   1      43.664 -14.814  44.952  0.00  0.00    -0.212 NA
ATOM      9  C   UNL d   1      43.642 -15.632  44.922  0.00  0.00     0.201 A 
ATOM     10 CL   UNL d   1      44.378 -13.590  44.785  0.00  0.00    -0.061 Cl
ENDROOT
BRANCH   3  11
ATOM     11  C   UNL d   1      46.002 -16.686  44.137  0.00  0.00     0.065 A 
ATOM     12  C   UNL d   1      46.024 -17.004  43.377  0.00  0.00     0.018 A 
ATOM     13  C   UNL d   1      46.285 -17.779  43.259  0.00  0.00     0.002 A 
ATOM     14  C   UNL d   1      46.527 -18.243  43.909  0.00  0.00     0.000 A 
ATOM     15  C   UNL d   1      46.501 -17.916  44.667  0.00  0.00     0.002 A 
ATOM     16  C   UNL d   1      46.240 -17.142  44.780  0.00  0.00     0.018 A 
ENDBRANCH   3  11
BRANCH   4  17
ATOM     17  C   UNL d   1      45.928 -13.778  44.292  0.00  0.00     0.002 A 
ATOM     18  C   UNL d   1      46.254 -13.408  44.955  0.00  0.00     0.000 A 
ATOM     19  C   UNL d   1      46.400 -12.595  44.946  0.00  0.00     0.000 A 
ATOM     20  C   UNL d   1      46.222 -12.154  44.274  0.00  0.00     0.000 A 
ATOM     21  C   UNL d   1      45.896 -12.526  43.611  0.00  0.00     0.000 A 
ATOM     22  C   UNL d   1      45.749 -13.333  43.620  0.00  0.00     0.000 A 
ENDBRANCH   4  17
TORSDOF 2
ENDMDL
