MODEL 1
REMARK VINA RESULT:      -7.2      0.000      0.000
REMARK  2 active torsions:
REMARK  status: ('A' for Active; 'I' for Inactive)
REMARK    1  A    between atoms: C_3  and  C_1 
REMARK       I    between atoms: N_6  and  C_3 
REMARK    2  A    between atoms: C_12  and  N_6 
ROOT
ATOM      1  C   UNL d   1     -49.774  15.028  23.269  0.00  0.00     0.008 A 
ATOM      2  S   UNL d   1     -50.994  15.199  22.805  0.00  0.00    -0.086 SA
ATOM      3  C   UNL d   1     -50.317  14.764  22.717  0.00  0.00     0.030 A 
ATOM      4  C   UNL d   1     -50.881  15.725  23.398  0.00  0.00     0.035 A 
ATOM      5  C   UNL d   1     -48.818  14.066  22.792  0.00  0.00     0.085 A 
ATOM      6  C   UNL d   1     -49.026  14.678  23.305  0.00  0.00     0.020 A 
ATOM      7  C   UNL d   1     -50.125  15.631  23.698  0.00  0.00     0.007 A 
ATOM      8  C   UNL d   1     -50.115  14.138  22.188  0.00  0.00     0.008 A 
ATOM      9  C   UNL d   1     -49.363  13.796  22.234  0.00  0.00     0.020 A 
ENDROOT
BRANCH   5  10
ATOM     10  N   UNL d   1     -48.066  13.723  22.837  0.00  0.00    -0.208 NA
ATOM     11  C   UNL d   1     -47.981  12.946  23.102  0.00  0.00     0.285 C 
ATOM     12  O   UNL d   1     -48.645  12.515  23.319  0.00  0.00    -0.265 OA
BRANCH  11  13
ATOM     13  C   UNL d   1     -47.235  12.606  23.147  0.00  0.00     0.088 A 
ATOM     14  S   UNL d   1     -47.048  11.867  23.509  0.00  0.00    -0.071 SA
ATOM     15  C   UNL d   1     -46.235  11.738  23.428  0.00  0.00     0.087 A 
ATOM     16 CL   UNL d   1     -45.841  11.123  23.686  0.00  0.00    -0.075 Cl
ATOM     17  C   UNL d   1     -45.912  12.420  23.003  0.00  0.00     0.019 A 
ATOM     18  C   UNL d   1     -46.520  12.937  22.838  0.00  0.00     0.013 A 
ENDBRANCH  11  13
ENDBRANCH   5  10
TORSDOF 2
ENDMDL
MODEL 2
REMARK VINA RESULT:      -7.0      1.772      2.201
REMARK  2 active torsions:
REMARK  status: ('A' for Active; 'I' for Inactive)
REMARK    1  A    between atoms: C_3  and  C_1 
REMARK       I    between atoms: N_6  and  C_3 
REMARK    2  A    between atoms: C_12  and  N_6 
ROOT
ATOM      1  C   UNL d   1     -49.774  12.262  23.548  0.00  0.00     0.008 A 
ATOM      2  S   UNL d   1     -51.052  12.573  23.568  0.00  0.00    -0.086 SA
ATOM      3  C   UNL d   1     -50.308  12.877  23.475  0.00  0.00     0.030 A 
ATOM      4  C   UNL d   1     -50.989  11.784  23.697  0.00  0.00     0.035 A 
ATOM      5  C   UNL d   1     -48.687  13.179  23.332  0.00  0.00     0.085 A 
ATOM      6  C   UNL d   1     -48.964  12.415  23.476  0.00  0.00     0.020 A 
ATOM      7  C   UNL d   1     -50.198  11.575  23.687  0.00  0.00     0.007 A 
ATOM      8  C   UNL d   1     -50.035  13.662  23.327  0.00  0.00     0.008 A 
ATOM      9  C   UNL d   1     -49.223  13.802  23.258  0.00  0.00     0.020 A 
ENDROOT
BRANCH   5  10
ATOM     10  N   UNL d   1     -47.874  13.320  23.262  0.00  0.00    -0.208 NA
ATOM     11  C   UNL d   1     -47.518  13.325  22.518  0.00  0.00     0.285 C 
ATOM     12  O   UNL d   1     -47.973  13.189  21.848  0.00  0.00    -0.265 OA
BRANCH  11  13
ATOM     13  C   UNL d   1     -46.712  13.465  22.449  0.00  0.00     0.088 A 
ATOM     14  S   UNL d   1     -46.146  12.941  22.106  0.00  0.00    -0.071 SA
ATOM     15  C   UNL d   1     -45.402  13.299  22.151  0.00  0.00     0.087 A 
ATOM     16 CL   UNL d   1     -44.734  13.001  21.897  0.00  0.00    -0.075 Cl
ATOM     17  C   UNL d   1     -45.514  14.068  22.533  0.00  0.00     0.019 A 
ATOM     18  C   UNL d   1     -46.305  14.159  22.709  0.00  0.00     0.013 A 
ENDBRANCH  11  13
ENDBRANCH   5  10
TORSDOF 2
ENDMDL
MODEL 3
REMARK VINA RESULT:      -6.1      9.137     10.128
REMARK  2 active torsions:
REMARK  status: ('A' for Active; 'I' for Inactive)
REMARK    1  A    between atoms: C_3  and  C_1 
REMARK       I    between atoms: N_6  and  C_3 
REMARK    2  A    between atoms: C_12  and  N_6 
ROOT
ATOM      1  C   UNL d   1     -38.775  13.907  20.959  0.00  0.00     0.008 A 
ATOM      2  S   UNL d   1     -39.047  13.650  22.220  0.00  0.00    -0.086 SA
ATOM      3  C   UNL d   1     -39.335  13.997  21.548  0.00  0.00     0.030 A 
ATOM      4  C   UNL d   1     -38.323  13.348  22.059  0.00  0.00     0.035 A 
ATOM      5  C   UNL d   1     -39.630  14.607  20.038  0.00  0.00     0.085 A 
ATOM      6  C   UNL d   1     -38.924  14.213  20.205  0.00  0.00     0.020 A 
ATOM      7  C   UNL d   1     -38.139  13.501  21.276  0.00  0.00     0.007 A 
ATOM      8  C   UNL d   1     -40.060  14.398  21.388  0.00  0.00     0.008 A 
ATOM      9  C   UNL d   1     -40.198  14.700  20.630  0.00  0.00     0.020 A 
ENDROOT
BRANCH   5  10
ATOM     10  N   UNL d   1     -39.768  14.909  19.279  0.00  0.00    -0.208 NA
ATOM     11  C   UNL d   1     -40.274  14.512  18.763  0.00  0.00     0.285 C 
ATOM     12  O   UNL d   1     -40.639  13.817  19.004  0.00  0.00    -0.265 OA
BRANCH  11  13
ATOM     13  C   UNL d   1     -40.410  14.811  18.011  0.00  0.00     0.088 A 
ATOM     14  S   UNL d   1     -41.051  15.312  17.785  0.00  0.00    -0.071 SA
ATOM     15  C   UNL d   1     -40.977  15.480  16.980  0.00  0.00     0.087 A 
ATOM     16 CL   UNL d   1     -41.453  15.922  16.558  0.00  0.00    -0.075 Cl
ATOM     17  C   UNL d   1     -40.267  15.070  16.699  0.00  0.00     0.019 A 
ATOM     18  C   UNL d   1     -39.933  14.670  17.326  0.00  0.00     0.013 A 
ENDBRANCH  11  13
ENDBRANCH   5  10
TORSDOF 2
ENDMDL
MODEL 4
REMARK VINA RESULT:      -5.9      8.831     10.824
REMARK  2 active torsions:
REMARK  status: ('A' for Active; 'I' for Inactive)
REMARK    1  A    between atoms: C_3  and  C_1 
REMARK       I    between atoms: N_6  and  C_3 
REMARK    2  A    between atoms: C_12  and  N_6 
ROOT
ATOM      1  C   UNL d   1     -38.503  14.434  16.813  0.00  0.00     0.008 A 
ATOM      2  S   UNL d   1     -38.019  13.580  15.937  0.00  0.00    -0.086 SA
ATOM      3  C   UNL d   1     -38.326  13.646  16.683  0.00  0.00     0.030 A 
ATOM      4  C   UNL d   1     -38.002  14.309  15.605  0.00  0.00     0.035 A 
ATOM      5  C   UNL d   1     -38.976  14.110  18.132  0.00  0.00     0.085 A 
ATOM      6  C   UNL d   1     -38.828  14.664  17.538  0.00  0.00     0.020 A 
ATOM      7  C   UNL d   1     -38.301  14.852  16.139  0.00  0.00     0.007 A 
ATOM      8  C   UNL d   1     -38.474  13.073  17.284  0.00  0.00     0.008 A 
ATOM      9  C   UNL d   1     -38.799  13.315  18.005  0.00  0.00     0.020 A 
ENDROOT
BRANCH   5  10
ATOM     10  N   UNL d   1     -39.302  14.353  18.854  0.00  0.00    -0.208 NA
ATOM     11  C   UNL d   1     -40.117  14.312  18.974  0.00  0.00     0.285 C 
ATOM     12  O   UNL d   1     -40.604  14.030  18.375  0.00  0.00    -0.265 OA
BRANCH  11  13
ATOM     13  C   UNL d   1     -40.440  14.552  19.689  0.00  0.00     0.088 A 
ATOM     14  S   UNL d   1     -40.736  15.322  19.866  0.00  0.00    -0.071 SA
ATOM     15  C   UNL d   1     -41.008  15.322  20.646  0.00  0.00     0.087 A 
ATOM     16 CL   UNL d   1     -41.322  15.922  21.023  0.00  0.00    -0.075 Cl
ATOM     17  C   UNL d   1     -40.876  14.526  20.961  0.00  0.00     0.019 A 
ATOM     18  C   UNL d   1     -40.534  14.069  20.378  0.00  0.00     0.013 A 
ENDBRANCH  11  13
ENDBRANCH   5  10
TORSDOF 2
ENDMDL
MODEL 5
REMARK VINA RESULT:      -5.8      9.432      9.796
REMARK  2 active torsions:
REMARK  status: ('A' for Active; 'I' for Inactive)
REMARK    1  A    between atoms: C_3  and  C_1 
REMARK       I    between atoms: N_6  and  C_3 
REMARK    2  A    between atoms: C_12  and  N_6 
ROOT
ATOM      1  C   UNL d   1     -40.763  15.296  17.996  0.00  0.00     0.008 A 
ATOM      2  S   UNL d   1     -40.645  15.385  16.688  0.00  0.00    -0.086 SA
ATOM      3  C   UNL d   1     -40.374  14.994  17.342  0.00  0.00     0.030 A 
ATOM      4  C   UNL d   1     -41.193  15.922  16.923  0.00  0.00     0.035 A 
ATOM      5  C   UNL d   1     -40.034  14.394  18.847  0.00  0.00     0.085 A 
ATOM      6  C   UNL d   1     -40.591  14.995  18.747  0.00  0.00     0.020 A 
ATOM      7  C   UNL d   1     -41.277  15.878  17.736  0.00  0.00     0.007 A 
ATOM      8  C   UNL d   1     -39.803  14.380  17.434  0.00  0.00     0.008 A 
ATOM      9  C   UNL d   1     -39.640  14.087  18.190  0.00  0.00     0.020 A 
ENDROOT
BRANCH   5  10
ATOM     10  N   UNL d   1     -39.872  14.100  19.604  0.00  0.00    -0.208 NA
ATOM     11  C   UNL d   1     -39.253  14.419  20.046  0.00  0.00     0.285 C 
ATOM     12  O   UNL d   1     -38.799  15.028  19.733  0.00  0.00    -0.265 OA
BRANCH  11  13
ATOM     13  C   UNL d   1     -39.091  14.128  20.797  0.00  0.00     0.088 A 
ATOM     14  S   UNL d   1     -38.476  13.586  20.997  0.00  0.00    -0.071 SA
ATOM     15  C   UNL d   1     -38.513  13.442  21.810  0.00  0.00     0.087 A 
ATOM     16 CL   UNL d   1     -38.044  12.976  22.214  0.00  0.00    -0.075 Cl
ATOM     17  C   UNL d   1     -39.171  13.910  22.121  0.00  0.00     0.019 A 
ATOM     18  C   UNL d   1     -39.514  14.320  21.504  0.00  0.00     0.013 A 
ENDBRANCH  11  13
ENDBRANCH   5  10
TORSDOF 2
ENDMDL
