MODEL 1
REMARK VINA RESULT:      -7.1      0.000      0.000
REMARK  7 active torsions:
REMARK  status: ('A' for Active; 'I' for Inactive)
REMARK    1  A    between atoms: C_7  and  C_1 
REMARK    2  A    between atoms: C_11  and  N_2 
REMARK    3  A    between atoms: C_10  and  C_5 
REMARK    4  A    between atoms: C_6  and  C_7 
REMARK    5  A    between atoms: C_18  and  C_11 
REMARK    6  A    between atoms: O_20  and  C_15 
REMARK    7  A    between atoms: N_19  and  C_18 
ROOT
ATOM      1  C   UNL d   1     -46.950  13.564  22.973  0.00  0.00     0.101 A 
ATOM      2  N   UNL d   1     -48.033  14.293  22.696  0.00  0.00    -0.269 N 
ATOM      3  C   UNL d   1     -46.721  14.358  22.932  0.00  0.00     0.256 A 
ATOM      4  C   UNL d   1     -47.388  14.807  22.761  0.00  0.00     0.304 A 
ATOM      5  C   UNL d   1     -47.760  13.531  22.826  0.00  0.00     0.075 A 
ATOM      6  O   UNL d   1     -47.407  15.633  22.671  0.00  0.00    -0.263 OA
ATOM      7  O   UNL d   1     -45.952  14.653  23.044  0.00  0.00    -0.281 OA
ENDROOT
BRANCH   1   8
ATOM      8  C   UNL d   1     -46.451  12.926  23.133  0.00  0.00     0.223 C 
ATOM      9  O   UNL d   1     -46.671  12.362  23.698  0.00  0.00    -0.284 OA
BRANCH   8  10
ATOM     10  C   UNL d   1     -45.734  12.843  22.735  0.00  0.00     0.139 A 
ATOM     11  O   UNL d   1     -45.479  13.295  22.090  0.00  0.00    -0.304 OA
ATOM     12  C   UNL d   1     -44.734  13.021  21.873  0.00  0.00     0.100 A 
ATOM     13  C   UNL d   1     -44.217  13.259  21.275  0.00  0.00     0.025 A 
ATOM     14  C   UNL d   1     -44.527  12.408  22.374  0.00  0.00     0.025 A 
ATOM     15  C   UNL d   1     -43.497  12.880  21.184  0.00  0.00     0.002 A 
ATOM     16  C   UNL d   1     -43.294  12.263  21.692  0.00  0.00     0.000 A 
ATOM     17  C   UNL d   1     -43.803  12.026  22.284  0.00  0.00     0.002 A 
ATOM     18  C   UNL d   1     -45.149  12.299  22.908  0.00  0.00     0.030 A 
ENDBRANCH   8  10
ENDBRANCH   1   8
BRANCH   5  19
ATOM     19  C   UNL d   1     -48.217  12.831  22.815  0.00  0.00     0.039 A 
ATOM     20  C   UNL d   1     -48.423  12.487  22.090  0.00  0.00     0.096 A 
ATOM     21  C   UNL d   1     -48.873  11.798  22.075  0.00  0.00     0.024 A 
ATOM     22  C   UNL d   1     -49.124  11.442  22.792  0.00  0.00     0.002 A 
ATOM     23  C   UNL d   1     -48.913  11.793  23.517  0.00  0.00     0.000 A 
ATOM     24  C   UNL d   1     -48.461  12.486  23.524  0.00  0.00     0.003 A 
BRANCH  20  25
ATOM     25  O   UNL d   1     -48.175  12.839  21.387  0.00  0.00    -0.328 OA
ATOM     26  C   UNL d   1     -48.386  12.499  20.662  0.00  0.00     0.181 C 
ENDBRANCH  20  25
ENDBRANCH   5  19
BRANCH   2  27
ATOM     27  C   UNL d   1     -48.814  14.516  22.527  0.00  0.00     0.102 C 
BRANCH  27  28
ATOM     28  C   UNL d   1     -49.120  15.219  22.829  0.00  0.00     0.100 C 
BRANCH  28  29
ATOM     29  N   UNL d   1     -49.941  15.344  22.839  0.00  0.00    -0.299 N 
ATOM     30  C   UNL d   1     -50.315  15.537  23.550  0.00  0.00     0.100 C 
ATOM     31  C   UNL d   1     -50.373  15.274  22.144  0.00  0.00     0.100 C 
ENDBRANCH  28  29
ENDBRANCH  27  28
ENDBRANCH   2  27
TORSDOF 7
ENDMDL
MODEL 2
REMARK VINA RESULT:      -6.1      6.363      8.849
REMARK  7 active torsions:
REMARK  status: ('A' for Active; 'I' for Inactive)
REMARK    1  A    between atoms: C_7  and  C_1 
REMARK    2  A    between atoms: C_11  and  N_2 
REMARK    3  A    between atoms: C_10  and  C_5 
REMARK    4  A    between atoms: C_6  and  C_7 
REMARK    5  A    between atoms: C_18  and  C_11 
REMARK    6  A    between atoms: O_20  and  C_15 
REMARK    7  A    between atoms: N_19  and  C_18 
ROOT
ATOM      1  C   UNL d   1     -39.483  13.791  19.526  0.00  0.00     0.101 A 
ATOM      2  N   UNL d   1     -39.126  13.826  20.811  0.00  0.00    -0.269 N 
ATOM      3  C   UNL d   1     -38.809  13.320  19.617  0.00  0.00     0.256 A 
ATOM      4  C   UNL d   1     -38.588  13.341  20.409  0.00  0.00     0.304 A 
ATOM      5  C   UNL d   1     -39.673  14.100  20.266  0.00  0.00     0.075 A 
ATOM      6  O   UNL d   1     -37.940  12.945  20.743  0.00  0.00    -0.263 OA
ATOM      7  O   UNL d   1     -38.420  12.899  19.016  0.00  0.00    -0.281 OA
ENDROOT
BRANCH   1   8
ATOM      8  C   UNL d   1     -39.887  13.923  18.818  0.00  0.00     0.223 C 
ATOM      9  O   UNL d   1     -40.677  13.686  18.743  0.00  0.00    -0.284 OA
BRANCH   8  10
ATOM     10  C   UNL d   1     -39.512  14.291  18.183  0.00  0.00     0.139 A 
ATOM     11  O   UNL d   1     -39.243  15.073  18.161  0.00  0.00    -0.304 OA
ATOM     12  C   UNL d   1     -38.906  15.200  17.421  0.00  0.00     0.100 A 
ATOM     13  C   UNL d   1     -38.552  15.868  17.089  0.00  0.00     0.025 A 
ATOM     14  C   UNL d   1     -38.965  14.508  16.987  0.00  0.00     0.025 A 
ATOM     15  C   UNL d   1     -38.259  15.836  16.325  0.00  0.00     0.002 A 
ATOM     16  C   UNL d   1     -38.321  15.137  15.893  0.00  0.00     0.000 A 
ATOM     17  C   UNL d   1     -38.671  14.475  16.219  0.00  0.00     0.002 A 
ATOM     18  C   UNL d   1     -39.341  13.946  17.462  0.00  0.00     0.030 A 
ENDBRANCH   8  10
ENDBRANCH   1   8
BRANCH   5  19
ATOM     19  C   UNL d   1     -40.319  14.607  20.423  0.00  0.00     0.039 A 
ATOM     20  C   UNL d   1     -41.024  14.292  20.724  0.00  0.00     0.096 A 
ATOM     21  C   UNL d   1     -41.662  14.789  20.880  0.00  0.00     0.024 A 
ATOM     22  C   UNL d   1     -41.601  15.613  20.734  0.00  0.00     0.002 A 
ATOM     23  C   UNL d   1     -40.890  15.922  20.431  0.00  0.00     0.000 A 
ATOM     24  C   UNL d   1     -40.253  15.416  20.277  0.00  0.00     0.003 A 
BRANCH  20  25
ATOM     25  O   UNL d   1     -41.081  13.482  20.867  0.00  0.00    -0.328 OA
ATOM     26  C   UNL d   1     -41.788  13.167  21.161  0.00  0.00     0.181 C 
ENDBRANCH  20  25
ENDBRANCH   5  19
BRANCH   2  27
ATOM     27  C   UNL d   1     -39.107  13.998  21.623  0.00  0.00     0.102 C 
BRANCH  27  28
ATOM     28  C   UNL d   1     -38.420  13.870  22.059  0.00  0.00     0.100 C 
BRANCH  28  29
ATOM     29  N   UNL d   1     -38.394  14.079  22.863  0.00  0.00    -0.299 N 
ATOM     30  C   UNL d   1     -38.017  14.777  23.091  0.00  0.00     0.100 C 
ATOM     31  C   UNL d   1     -38.743  13.589  23.423  0.00  0.00     0.100 C 
ENDBRANCH  28  29
ENDBRANCH  27  28
ENDBRANCH   2  27
TORSDOF 7
ENDMDL
MODEL 3
REMARK VINA RESULT:      -5.1      1.146      2.335
REMARK  7 active torsions:
REMARK  status: ('A' for Active; 'I' for Inactive)
REMARK    1  A    between atoms: C_7  and  C_1 
REMARK    2  A    between atoms: C_11  and  N_2 
REMARK    3  A    between atoms: C_10  and  C_5 
REMARK    4  A    between atoms: C_6  and  C_7 
REMARK    5  A    between atoms: C_18  and  C_11 
REMARK    6  A    between atoms: O_20  and  C_15 
REMARK    7  A    between atoms: N_19  and  C_18 
ROOT
ATOM      1  C   UNL d   1     -47.202  12.974  23.186  0.00  0.00     0.101 A 
ATOM      2  N   UNL d   1     -48.426  12.441  23.180  0.00  0.00    -0.269 N 
ATOM      3  C   UNL d   1     -47.144  12.195  23.460  0.00  0.00     0.256 A 
ATOM      4  C   UNL d   1     -47.898  11.867  23.456  0.00  0.00     0.304 A 
ATOM      5  C   UNL d   1     -47.995  13.119  23.015  0.00  0.00     0.075 A 
ATOM      6  O   UNL d   1     -48.091  11.094  23.690  0.00  0.00    -0.263 OA
ATOM      7  O   UNL d   1     -46.447  11.810  23.698  0.00  0.00    -0.281 OA
ENDROOT
BRANCH   1   8
ATOM      8  C   UNL d   1     -46.575  13.504  23.102  0.00  0.00     0.223 C 
ATOM      9  O   UNL d   1     -46.648  14.278  23.387  0.00  0.00    -0.284 OA
BRANCH   8  10
ATOM     10  C   UNL d   1     -45.874  13.271  22.736  0.00  0.00     0.139 A 
ATOM     11  O   UNL d   1     -45.424  12.603  22.925  0.00  0.00    -0.304 OA
ATOM     12  C   UNL d   1     -44.774  12.589  22.420  0.00  0.00     0.100 A 
ATOM     13  C   UNL d   1     -44.145  12.059  22.354  0.00  0.00     0.025 A 
ATOM     14  C   UNL d   1     -44.818  13.238  21.924  0.00  0.00     0.025 A 
ATOM     15  C   UNL d   1     -43.564  12.184  21.790  0.00  0.00     0.002 A 
ATOM     16  C   UNL d   1     -43.614  12.840  21.293  0.00  0.00     0.000 A 
ATOM     17  C   UNL d   1     -44.235  13.365  21.357  0.00  0.00     0.002 A 
ATOM     18  C   UNL d   1     -45.501  13.659  22.122  0.00  0.00     0.030 A 
ENDBRANCH   8  10
ENDBRANCH   1   8
BRANCH   5  19
ATOM     19  C   UNL d   1     -48.299  13.841  22.723  0.00  0.00     0.039 A 
ATOM     20  C   UNL d   1     -48.495  13.910  21.922  0.00  0.00     0.096 A 
ATOM     21  C   UNL d   1     -48.794  14.619  21.630  0.00  0.00     0.024 A 
ATOM     22  C   UNL d   1     -48.901  15.275  22.144  0.00  0.00     0.002 A 
ATOM     23  C   UNL d   1     -48.702  15.199  22.949  0.00  0.00     0.000 A 
ATOM     24  C   UNL d   1     -48.402  14.482  23.233  0.00  0.00     0.003 A 
BRANCH  20  25
ATOM     25  O   UNL d   1     -48.388  13.264  21.419  0.00  0.00    -0.328 OA
ATOM     26  C   UNL d   1     -48.786  13.241  20.693  0.00  0.00     0.181 C 
ENDBRANCH  20  25
ENDBRANCH   5  19
BRANCH   2  27
ATOM     27  C   UNL d   1     -49.244  12.341  23.089  0.00  0.00     0.102 C 
BRANCH  27  28
ATOM     28  C   UNL d   1     -49.674  11.907  23.641  0.00  0.00     0.100 C 
BRANCH  28  29
ATOM     29  N   UNL d   1     -50.505  11.894  23.604  0.00  0.00    -0.299 N 
ATOM     30  C   UNL d   1     -50.896  11.174  23.499  0.00  0.00     0.100 C 
ATOM     31  C   UNL d   1     -50.926  12.595  23.672  0.00  0.00     0.100 C 
ENDBRANCH  28  29
ENDBRANCH  27  28
ENDBRANCH   2  27
TORSDOF 7
ENDMDL
