MODEL 1
REMARK VINA RESULT:      -5.9      0.000      0.000
REMARK  2 active torsions:
REMARK  status: ('A' for Active; 'I' for Inactive)
REMARK       I    between atoms: N_2  and  C_1 
REMARK    1  A    between atoms: C_4  and  C_1 
REMARK    2  A    between atoms: C_7  and  N_3 
ROOT
ATOM      1  C   UNL d   1      58.696  -0.030  29.449  0.00  0.00     0.265 C 
ATOM      2  N   UNL d   1      58.178  -0.039  30.088  0.00  0.00    -0.269 N 
ATOM      3  N   UNL d   1      57.136  -0.054  31.371  0.00  0.00    -0.301 N 
ATOM      4  C   UNL d   1      57.833   0.670  30.346  0.00  0.00     0.102 A 
ATOM      5  C   UNL d   1      58.005  -0.753  30.466  0.00  0.00     0.102 A 
ATOM      6  C   UNL d   1      57.487  -0.759  31.103  0.00  0.00     0.100 A 
ATOM      7  C   UNL d   1      57.314   0.656  30.988  0.00  0.00     0.100 A 
ATOM      8  O   UNL d   1      58.872   0.682  29.067  0.00  0.00    -0.267 OA
ENDROOT
BRANCH   1   9
ATOM      9  C   UNL d   1      59.041  -0.738  29.190  0.00  0.00     0.059 A 
ATOM     10  C   UNL d   1      59.821  -0.908  29.397  0.00  0.00     0.031 A 
ATOM     11  C   UNL d   1      60.180  -1.619  29.142  0.00  0.00     0.119 A 
ATOM     12  O   UNL d   1      60.935  -1.940  29.256  0.00  0.00    -0.300 OA
ATOM     13  C   UNL d   1      59.742  -2.161  28.673  0.00  0.00     0.119 A 
ATOM     14  C   UNL d   1      60.967  -2.675  28.862  0.00  0.00     0.304 A 
ATOM     15  O   UNL d   1      60.228  -2.813  28.500  0.00  0.00    -0.300 OA
ATOM     16  C   UNL d   1      58.951  -1.983  28.467  0.00  0.00     0.026 A 
ATOM     17  C   UNL d   1      58.602  -1.280  28.721  0.00  0.00     0.007 A 
ENDBRANCH   1   9
BRANCH   3  18
ATOM     18  C   UNL d   1      56.617  -0.066  32.012  0.00  0.00     0.064 A 
ATOM     19  C   UNL d   1      56.396   0.642  32.368  0.00  0.00     0.018 A 
ATOM     20  C   UNL d   1      55.879   0.623  33.005  0.00  0.00     0.013 A 
ATOM     21  C   UNL d   1      55.586  -0.096  33.283  0.00  0.00     0.058 A 
ATOM     22  C   UNL d   1      55.815  -0.802  32.917  0.00  0.00     0.013 A 
ATOM     23 CL   UNL d   1      55.067  -0.109  33.923  0.00  0.00    -0.082 Cl
ATOM     24  C   UNL d   1      56.329  -0.781  32.284  0.00  0.00     0.018 A 
ENDBRANCH   3  18
TORSDOF 2
ENDMDL
MODEL 2
REMARK VINA RESULT:      -3.6      0.915      1.442
REMARK  2 active torsions:
REMARK  status: ('A' for Active; 'I' for Inactive)
REMARK       I    between atoms: N_2  and  C_1 
REMARK    1  A    between atoms: C_4  and  C_1 
REMARK    2  A    between atoms: C_7  and  N_3 
ROOT
ATOM      1  C   UNL d   1      57.753   0.347  29.775  0.00  0.00     0.265 C 
ATOM      2  N   UNL d   1      57.441   0.353  30.536  0.00  0.00    -0.269 N 
ATOM      3  N   UNL d   1      56.810   0.366  32.064  0.00  0.00    -0.301 N 
ATOM      4  C   UNL d   1      56.687   0.673  30.667  0.00  0.00     0.102 A 
ATOM      5  C   UNL d   1      57.879   0.040  31.162  0.00  0.00     0.102 A 
ATOM      6  C   UNL d   1      57.565   0.047  31.920  0.00  0.00     0.100 A 
ATOM      7  C   UNL d   1      56.377   0.676  31.432  0.00  0.00     0.100 A 
ATOM      8  O   UNL d   1      57.317   0.659  29.145  0.00  0.00    -0.267 OA
ENDROOT
BRANCH   1   9
ATOM      9  C   UNL d   1      58.506   0.027  29.643  0.00  0.00     0.059 A 
ATOM     10  C   UNL d   1      58.575  -0.722  29.305  0.00  0.00     0.031 A 
ATOM     11  C   UNL d   1      59.329  -1.055  29.167  0.00  0.00     0.119 A 
ATOM     12  O   UNL d   1      59.574  -1.777  28.845  0.00  0.00    -0.300 OA
ATOM     13  C   UNL d   1      60.018  -0.623  29.374  0.00  0.00     0.119 A 
ATOM     14  C   UNL d   1      60.408  -1.796  28.850  0.00  0.00     0.304 A 
ATOM     15  O   UNL d   1      60.685  -1.080  29.178  0.00  0.00    -0.300 OA
ATOM     16  C   UNL d   1      59.942   0.137  29.715  0.00  0.00     0.026 A 
ATOM     17  C   UNL d   1      59.196   0.460  29.850  0.00  0.00     0.007 A 
ENDBRANCH   1   9
BRANCH   3  18
ATOM     18  C   UNL d   1      56.500   0.370  32.828  0.00  0.00     0.064 A 
ATOM     19  C   UNL d   1      55.736   0.091  32.957  0.00  0.00     0.018 A 
ATOM     20  C   UNL d   1      55.433   0.098  33.719  0.00  0.00     0.013 A 
ATOM     21  C   UNL d   1      55.889   0.380  34.346  0.00  0.00     0.058 A 
ATOM     22  C   UNL d   1      56.655   0.658  34.205  0.00  0.00     0.013 A 
ATOM     23 CL   UNL d   1      55.579   0.384  35.110  0.00  0.00    -0.082 Cl
ATOM     24  C   UNL d   1      56.954   0.650  33.446  0.00  0.00     0.018 A 
ENDBRANCH   3  18
TORSDOF 2
ENDMDL
MODEL 3
REMARK VINA RESULT:      -3.1      2.803      5.367
REMARK  2 active torsions:
REMARK  status: ('A' for Active; 'I' for Inactive)
REMARK       I    between atoms: N_2  and  C_1 
REMARK    1  A    between atoms: C_4  and  C_1 
REMARK    2  A    between atoms: C_7  and  N_3 
ROOT
ATOM      1  C   UNL d   1      56.446  -1.162  32.193  0.00  0.00     0.265 C 
ATOM      2  N   UNL d   1      57.015  -0.900  31.660  0.00  0.00    -0.269 N 
ATOM      3  N   UNL d   1      58.157  -0.377  30.586  0.00  0.00    -0.301 N 
ATOM      4  C   UNL d   1      57.209  -1.369  31.004  0.00  0.00     0.102 A 
ATOM      5  C   UNL d   1      57.388  -0.173  31.781  0.00  0.00     0.102 A 
ATOM      6  C   UNL d   1      57.955   0.086  31.247  0.00  0.00     0.100 A 
ATOM      7  C   UNL d   1      57.780  -1.103  30.472  0.00  0.00     0.100 A 
ATOM      8  O   UNL d   1      56.070  -1.889  32.076  0.00  0.00    -0.267 OA
ENDROOT
BRANCH   1   9
ATOM      9  C   UNL d   1      56.251  -0.693  32.849  0.00  0.00     0.059 A 
ATOM     10  C   UNL d   1      55.458  -0.573  33.040  0.00  0.00     0.031 A 
ATOM     11  C   UNL d   1      55.249  -0.102  33.699  0.00  0.00     0.119 A 
ATOM     12  O   UNL d   1      54.520   0.117  34.025  0.00  0.00    -0.300 OA
ATOM     13  C   UNL d   1      55.852   0.249  34.167  0.00  0.00     0.119 A 
ATOM     14  C   UNL d   1      54.666   0.599  34.689  0.00  0.00     0.304 A 
ATOM     15  O   UNL d   1      55.492   0.682  34.778  0.00  0.00    -0.300 OA
ATOM     16  C   UNL d   1      56.654   0.123  33.968  0.00  0.00     0.026 A 
ATOM     17  C   UNL d   1      56.854  -0.342  33.317  0.00  0.00     0.007 A 
ENDBRANCH   1   9
BRANCH   3  18
ATOM     18  C   UNL d   1      58.728  -0.111  30.053  0.00  0.00     0.064 A 
ATOM     19  C   UNL d   1      58.586  -0.170  29.245  0.00  0.00     0.018 A 
ATOM     20  C   UNL d   1      59.157   0.096  28.720  0.00  0.00     0.013 A 
ATOM     21  C   UNL d   1      59.864   0.416  29.000  0.00  0.00     0.058 A 
ATOM     22  C   UNL d   1      59.996   0.470  29.815  0.00  0.00     0.013 A 
ATOM     23 CL   UNL d   1      60.435   0.682  28.467  0.00  0.00    -0.082 Cl
ATOM     24  C   UNL d   1      59.426   0.206  30.335  0.00  0.00     0.018 A 
ENDBRANCH   3  18
TORSDOF 2
ENDMDL
