MODEL 1
REMARK VINA RESULT:       0.4      0.000      0.000
REMARK  3 active torsions:
REMARK  status: ('A' for Active; 'I' for Inactive)
REMARK    1  A    between atoms: C_6  and  C_1 
REMARK    2  A    between atoms: O_2  and  C_6 
REMARK    3  A    between atoms: C_3  and  O_2 
ROOT
ATOM      1  C   UNL d   1      24.093  12.750  -1.348  0.00  0.00     0.134 A 
ATOM      2  C   UNL d   1      23.352  12.712  -0.987  0.00  0.00     0.218 A 
ATOM      3  O   UNL d   1      22.772  12.205  -1.283  0.00  0.00    -0.284 OA
ATOM      4  C   UNL d   1      24.672  13.252  -1.057  0.00  0.00     0.028 A 
ATOM      5  C   UNL d   1      23.183  13.174  -0.333  0.00  0.00     0.044 A 
ATOM      6  C   UNL d   1      23.766  13.685  -0.032  0.00  0.00     0.003 A 
ATOM      7  C   UNL d   1      24.507  13.724  -0.393  0.00  0.00     0.002 A 
ENDROOT
BRANCH   1   8
ATOM      8  O   UNL d   1      24.260  12.284  -2.007  0.00  0.00    -0.316 OA
BRANCH   8   9
ATOM      9  C   UNL d   1      24.767  12.574  -2.599  0.00  0.00     0.246 C 
BRANCH   9  10
ATOM     10  C   UNL d   1      24.576  12.456  -3.390  0.00  0.00     0.217 C 
ATOM     11  O   UNL d   1      24.768  13.011  -3.960  0.00  0.00    -0.645 OA
ATOM     12  O   UNL d   1      24.185  11.782  -3.653  0.00  0.00    -0.645 OA
ENDBRANCH   9  10
ENDBRANCH   8   9
ENDBRANCH   1   8
TORSDOF 3
ENDMDL
MODEL 2
REMARK VINA RESULT:       2.9      9.543     10.314
REMARK  3 active torsions:
REMARK  status: ('A' for Active; 'I' for Inactive)
REMARK    1  A    between atoms: C_6  and  C_1 
REMARK    2  A    between atoms: O_2  and  C_6 
REMARK    3  A    between atoms: C_3  and  O_2 
ROOT
ATOM      1  C   UNL d   1      14.044  11.816  -1.571  0.00  0.00     0.134 A 
ATOM      2  C   UNL d   1      13.597  11.812  -0.877  0.00  0.00     0.218 A 
ATOM      3  O   UNL d   1      12.773  11.783  -0.914  0.00  0.00    -0.284 OA
ATOM      4  C   UNL d   1      14.861  11.844  -1.538  0.00  0.00     0.028 A 
ATOM      5  C   UNL d   1      13.963  11.836  -0.146  0.00  0.00     0.044 A 
ATOM      6  C   UNL d   1      14.793  11.864  -0.105  0.00  0.00     0.003 A 
ATOM      7  C   UNL d   1      15.240  11.868  -0.798  0.00  0.00     0.002 A 
ENDROOT
BRANCH   1   8
ATOM      8  O   UNL d   1      13.672  11.792  -2.306  0.00  0.00    -0.316 OA
BRANCH   8   9
ATOM      9  C   UNL d   1      13.799  12.406  -2.852  0.00  0.00     0.246 C 
BRANCH   9  10
ATOM     10  C   UNL d   1      13.358  12.431  -3.545  0.00  0.00     0.217 C 
ATOM     11  O   UNL d   1      13.321  11.786  -4.047  0.00  0.00    -0.645 OA
ATOM     12  O   UNL d   1      12.932  13.095  -3.773  0.00  0.00    -0.645 OA
ENDBRANCH   9  10
ENDBRANCH   8   9
ENDBRANCH   1   8
TORSDOF 3
ENDMDL
