MODEL 1
REMARK VINA RESULT:       4.3      0.000      0.000
REMARK  8 active torsions:
REMARK  status: ('A' for Active; 'I' for Inactive)
REMARK    1  A    between atoms: C_3  and  C_1 
REMARK    2  A    between atoms: N_5  and  C_2 
REMARK    3  A    between atoms: N_4  and  C_3 
REMARK    4  A    between atoms: C_10  and  C_3 
REMARK    5  A    between atoms: C_13  and  N_4 
REMARK       I    between atoms: C_6  and  N_5 
REMARK    6  A    between atoms: C_8  and  C_13 
REMARK    7  A    between atoms: O_16  and  C_8 
REMARK    8  A    between atoms: C_21  and  O_16 
ROOT
ATOM      1  C   UNL d   1      58.219  -0.822  30.417  0.00  0.00     0.083 C 
ENDROOT
BRANCH   1   2
ATOM      2  C   UNL d   1      58.245  -0.499  31.175  0.00  0.00     0.036 A 
ATOM      3  C   UNL d   1      57.624  -0.590  31.692  0.00  0.00     0.086 A 
ATOM      4  C   UNL d   1      57.650  -0.267  32.450  0.00  0.00     0.020 A 
ATOM      5  C   UNL d   1      58.296   0.148  32.692  0.00  0.00     0.008 A 
ATOM      6  C   UNL d   1      58.950   0.251  32.165  0.00  0.00     0.035 A 
ATOM      7  C   UNL d   1      58.907  -0.079  31.410  0.00  0.00     0.010 A 
ATOM      8 BR   UNL d   1      59.631   0.681  32.404  0.00  0.00    -0.049 Br
BRANCH   3   9
ATOM      9  N   UNL d   1      56.943  -1.025  31.443  0.00  0.00    -0.208 NA
ATOM     10  C   UNL d   1      56.332  -1.175  31.982  0.00  0.00     0.279 C 
ATOM     11  O   UNL d   1      55.683  -1.589  31.744  0.00  0.00    -0.265 OA
ATOM     12  C   UNL d   1      56.374  -0.910  32.754  0.00  0.00     0.068 C 
ENDBRANCH   3   9
ENDBRANCH   1   2
BRANCH   1  13
ATOM     13  N   UNL d   1      58.248  -1.628  30.298  0.00  0.00    -0.238 NA
BRANCH  13  14
ATOM     14  C   UNL d   1      58.702  -1.911  29.663  0.00  0.00     0.167 C 
BRANCH  14  15
ATOM     15  C   UNL d   1      58.827  -2.742  29.609  0.00  0.00     0.320 C 
ATOM     16  O   UNL d   1      58.168  -3.238  29.415  0.00  0.00    -0.257 OA
BRANCH  15  17
ATOM     17  O   UNL d   1      59.570  -3.075  29.740  0.00  0.00    -0.270 OA
BRANCH  17  18
ATOM     18  C   UNL d   1      60.087  -3.153  29.135  0.00  0.00     0.126 C 
ATOM     19  C   UNL d   1      60.904  -3.192  29.253  0.00  0.00     0.029 C 
ENDBRANCH  17  18
ENDBRANCH  15  17
ENDBRANCH  14  15
ENDBRANCH  13  14
ENDBRANCH   1  13
BRANCH   1  20
ATOM     20  C   UNL d   1      58.163  -0.324  29.766  0.00  0.00     0.018 A 
ATOM     21  C   UNL d   1      58.832  -0.131  29.322  0.00  0.00     0.002 A 
ATOM     22  C   UNL d   1      58.796   0.361  28.673  0.00  0.00     0.000 A 
ATOM     23  C   UNL d   1      58.032   0.682  28.455  0.00  0.00     0.000 A 
ATOM     24  C   UNL d   1      57.360   0.493  28.895  0.00  0.00     0.000 A 
ATOM     25  C   UNL d   1      57.423  -0.008  29.547  0.00  0.00     0.002 A 
ENDBRANCH   1  20
TORSDOF 8
ENDMDL
MODEL 2
REMARK VINA RESULT:       7.0      3.490      5.479
REMARK  8 active torsions:
REMARK  status: ('A' for Active; 'I' for Inactive)
REMARK    1  A    between atoms: C_3  and  C_1 
REMARK    2  A    between atoms: N_5  and  C_2 
REMARK    3  A    between atoms: N_4  and  C_3 
REMARK    4  A    between atoms: C_10  and  C_3 
REMARK    5  A    between atoms: C_13  and  N_4 
REMARK       I    between atoms: C_6  and  N_5 
REMARK    6  A    between atoms: C_8  and  C_13 
REMARK    7  A    between atoms: O_16  and  C_8 
REMARK    8  A    between atoms: C_21  and  O_16 
ROOT
ATOM      1  C   UNL d   1      55.849  -0.242  33.394  0.00  0.00     0.083 C 
ENDROOT
BRANCH   1   2
ATOM      2  C   UNL d   1      56.441   0.066  32.909  0.00  0.00     0.036 A 
ATOM      3  C   UNL d   1      57.125   0.373  33.223  0.00  0.00     0.086 A 
ATOM      4  C   UNL d   1      57.717   0.681  32.738  0.00  0.00     0.020 A 
ATOM      5  C   UNL d   1      57.625   0.681  31.938  0.00  0.00     0.008 A 
ATOM      6  C   UNL d   1      56.918   0.365  31.596  0.00  0.00     0.035 A 
ATOM      7  C   UNL d   1      56.336   0.061  32.097  0.00  0.00     0.010 A 
ATOM      8 BR   UNL d   1      56.808   0.359  30.764  0.00  0.00    -0.049 Br
BRANCH   3   9
ATOM      9  N   UNL d   1      57.227   0.375  34.062  0.00  0.00    -0.208 NA
ATOM     10  C   UNL d   1      57.976   0.521  34.385  0.00  0.00     0.279 C 
ATOM     11  O   UNL d   1      58.072   0.522  35.185  0.00  0.00    -0.265 OA
ATOM     12  C   UNL d   1      58.622   0.664  33.906  0.00  0.00     0.068 C 
ENDBRANCH   3   9
ENDBRANCH   1   2
BRANCH   1  13
ATOM     13  N   UNL d   1      55.409   0.239  33.883  0.00  0.00    -0.238 NA
BRANCH  13  14
ATOM     14  C   UNL d   1      54.650   0.461  33.630  0.00  0.00     0.167 C 
BRANCH  14  15
ATOM     15  C   UNL d   1      54.063   0.595  34.218  0.00  0.00     0.320 C 
ATOM     16  O   UNL d   1      54.306   0.644  35.028  0.00  0.00    -0.257 OA
BRANCH  15  17
ATOM     17  O   UNL d   1      53.266   0.677  34.020  0.00  0.00    -0.270 OA
BRANCH  17  18
ATOM     18  C   UNL d   1      52.715   0.225  34.379  0.00  0.00     0.126 C 
ATOM     19  C   UNL d   1      52.015   0.540  34.687  0.00  0.00     0.029 C 
ENDBRANCH  17  18
ENDBRANCH  15  17
ENDBRANCH  14  15
ENDBRANCH  13  14
ENDBRANCH   1  13
BRANCH   1  20
ATOM     20  C   UNL d   1      55.699  -1.049  33.387  0.00  0.00     0.018 A 
ATOM     21  C   UNL d   1      55.860  -1.515  34.048  0.00  0.00     0.002 A 
ATOM     22  C   UNL d   1      55.717  -2.318  34.060  0.00  0.00     0.000 A 
ATOM     23  C   UNL d   1      55.388  -2.677  33.356  0.00  0.00     0.000 A 
ATOM     24  C   UNL d   1      55.224  -2.216  32.692  0.00  0.00     0.000 A 
ATOM     25  C   UNL d   1      55.378  -1.405  32.705  0.00  0.00     0.002 A 
ENDBRANCH   1  20
TORSDOF 8
ENDMDL
