MODEL 1
REMARK VINA RESULT:      -6.6      0.000      0.000
REMARK  6 active torsions:
REMARK  status: ('A' for Active; 'I' for Inactive)
REMARK       I    between atoms: C_2  and  N_1 
REMARK    1  A    between atoms: C_3  and  N_1 
REMARK    2  A    between atoms: C_8  and  C_2 
REMARK    3  A    between atoms: C_4  and  C_9 
REMARK    4  A    between atoms: O_10  and  C_4 
REMARK    5  A    between atoms: O_11  and  C_5 
REMARK    6  A    between atoms: C_9  and  C_8 
ROOT
ATOM      1  N   UNL d   1     -48.232  11.534  22.969  0.00  0.00    -0.320 N 
ATOM      2  C   UNL d   1     -47.499  11.866  23.215  0.00  0.00     0.258 C 
ATOM      3  O   UNL d   1     -46.992  11.435  23.698  0.00  0.00    -0.267 OA
ATOM      4  H   UNL d   1     -48.444  10.778  23.210  0.00  0.00     0.169 HD
ENDROOT
BRANCH   1   5
ATOM      5  C   UNL d   1     -48.743  11.984  22.474  0.00  0.00     0.082 A 
ATOM      6  C   UNL d   1     -49.522  12.149  22.732  0.00  0.00     0.110 A 
ATOM      7  C   UNL d   1     -50.031  12.594  22.247  0.00  0.00     0.026 A 
ATOM      8  C   UNL d   1     -49.769  12.867  21.525  0.00  0.00     0.002 A 
ATOM      9  C   UNL d   1     -49.001  12.705  21.271  0.00  0.00     0.002 A 
ATOM     10  C   UNL d   1     -48.495  12.269  21.740  0.00  0.00     0.019 A 
BRANCH   6  11
ATOM     11  O   UNL d   1     -49.781  11.867  23.470  0.00  0.00    -0.327 OA
ATOM     12  C   UNL d   1     -50.577  11.932  23.677  0.00  0.00     0.181 C 
ENDBRANCH   6  11
ENDBRANCH   1   5
BRANCH   2  13
ATOM     13  C   UNL d   1     -47.287  12.627  22.971  0.00  0.00     0.067 C 
BRANCH  13  14
ATOM     14  C   UNL d   1     -46.618  12.990  23.289  0.00  0.00     0.072 C 
BRANCH  14  15
ATOM     15  C   UNL d   1     -46.373  13.721  23.006  0.00  0.00     0.178 C 
ATOM     16  O   UNL d   1     -45.740  13.770  22.479  0.00  0.00    -0.646 OA
BRANCH  15  17
ATOM     17  O   UNL d   1     -46.757  14.409  23.245  0.00  0.00    -0.773 OA
ATOM     18  H   UNL d   1     -46.897  14.540  24.048  0.00  0.00     0.167 HD
ENDBRANCH  15  17
ENDBRANCH  14  15
ENDBRANCH  13  14
ENDBRANCH   2  13
TORSDOF 6
ENDMDL
MODEL 2
REMARK VINA RESULT:      -6.5      1.400      1.858
REMARK  6 active torsions:
REMARK  status: ('A' for Active; 'I' for Inactive)
REMARK       I    between atoms: C_2  and  N_1 
REMARK    1  A    between atoms: C_3  and  N_1 
REMARK    2  A    between atoms: C_8  and  C_2 
REMARK    3  A    between atoms: C_4  and  C_9 
REMARK    4  A    between atoms: O_10  and  C_4 
REMARK    5  A    between atoms: O_11  and  C_5 
REMARK    6  A    between atoms: C_9  and  C_8 
ROOT
ATOM      1  N   UNL d   1     -48.698  14.487  22.307  0.00  0.00    -0.320 N 
ATOM      2  C   UNL d   1     -47.885  14.610  22.491  0.00  0.00     0.258 C 
ATOM      3  O   UNL d   1     -47.594  15.373  22.584  0.00  0.00    -0.267 OA
ATOM      4  H   UNL d   1     -49.202  15.128  22.220  0.00  0.00     0.169 HD
ENDROOT
BRANCH   1   5
ATOM      5  C   UNL d   1     -48.984  13.701  22.215  0.00  0.00     0.082 A 
ATOM      6  C   UNL d   1     -49.579  13.419  22.732  0.00  0.00     0.110 A 
ATOM      7  C   UNL d   1     -49.866  12.643  22.645  0.00  0.00     0.026 A 
ATOM      8  C   UNL d   1     -49.567  12.162  22.058  0.00  0.00     0.002 A 
ATOM      9  C   UNL d   1     -48.981  12.440  21.549  0.00  0.00     0.002 A 
ATOM     10  C   UNL d   1     -48.694  13.200  21.627  0.00  0.00     0.019 A 
BRANCH   6  11
ATOM     11  O   UNL d   1     -49.878  13.916  23.327  0.00  0.00    -0.327 OA
ATOM     12  C   UNL d   1     -50.599  13.737  23.686  0.00  0.00     0.181 C 
ENDBRANCH   6  11
ENDBRANCH   1   5
BRANCH   2  13
ATOM     13  C   UNL d   1     -47.379  13.963  22.579  0.00  0.00     0.067 C 
BRANCH  13  14
ATOM     14  C   UNL d   1     -46.589  14.083  22.784  0.00  0.00     0.072 C 
BRANCH  14  15
ATOM     15  C   UNL d   1     -46.108  13.441  22.965  0.00  0.00     0.178 C 
ATOM     16  O   UNL d   1     -45.562  13.165  22.412  0.00  0.00    -0.646 OA
BRANCH  15  17
ATOM     17  O   UNL d   1     -46.168  13.071  23.698  0.00  0.00    -0.773 OA
ATOM     18  H   UNL d   1     -46.534  13.463  24.325  0.00  0.00     0.167 HD
ENDBRANCH  15  17
ENDBRANCH  14  15
ENDBRANCH  13  14
ENDBRANCH   2  13
TORSDOF 6
ENDMDL
MODEL 3
REMARK VINA RESULT:      -6.5      1.694      3.069
REMARK  6 active torsions:
REMARK  status: ('A' for Active; 'I' for Inactive)
REMARK       I    between atoms: C_2  and  N_1 
REMARK    1  A    between atoms: C_3  and  N_1 
REMARK    2  A    between atoms: C_8  and  C_2 
REMARK    3  A    between atoms: C_4  and  C_9 
REMARK    4  A    between atoms: O_10  and  C_4 
REMARK    5  A    between atoms: O_11  and  C_5 
REMARK    6  A    between atoms: C_9  and  C_8 
ROOT
ATOM      1  N   UNL d   1     -48.152  12.772  21.827  0.00  0.00    -0.320 N 
ATOM      2  C   UNL d   1     -48.860  13.221  21.748  0.00  0.00     0.258 C 
ATOM      3  O   UNL d   1     -49.463  12.957  21.256  0.00  0.00    -0.267 OA
ATOM      4  H   UNL d   1     -48.061  12.069  21.414  0.00  0.00     0.169 HD
ENDROOT
BRANCH   1   5
ATOM      5  C   UNL d   1     -47.541  13.052  22.334  0.00  0.00     0.082 A 
ATOM      6  C   UNL d   1     -47.301  12.585  22.985  0.00  0.00     0.110 A 
ATOM      7  C   UNL d   1     -46.699  12.857  23.489  0.00  0.00     0.026 A 
ATOM      8  C   UNL d   1     -46.343  13.577  23.346  0.00  0.00     0.002 A 
ATOM      9  C   UNL d   1     -46.579  14.038  22.704  0.00  0.00     0.002 A 
ATOM     10  C   UNL d   1     -47.170  13.779  22.204  0.00  0.00     0.019 A 
BRANCH   6  11
ATOM     11  O   UNL d   1     -47.669  11.852  23.123  0.00  0.00    -0.327 OA
ATOM     12  C   UNL d   1     -47.365  11.344  23.698  0.00  0.00     0.181 C 
ENDBRANCH   6  11
ENDBRANCH   1   5
BRANCH   2  13
ATOM     13  C   UNL d   1     -48.949  13.929  22.165  0.00  0.00     0.067 C 
BRANCH  13  14
ATOM     14  C   UNL d   1     -49.685  14.300  22.194  0.00  0.00     0.072 C 
BRANCH  14  15
ATOM     15  C   UNL d   1     -49.761  15.036  22.551  0.00  0.00     0.178 C 
ATOM     16  O   UNL d   1     -49.909  15.090  23.361  0.00  0.00    -0.646 OA
BRANCH  15  17
ATOM     17  O   UNL d   1     -49.691  15.724  22.104  0.00  0.00    -0.773 OA
ATOM     18  H   UNL d   1     -50.005  16.431  22.390  0.00  0.00     0.167 HD
ENDBRANCH  15  17
ENDBRANCH  14  15
ENDBRANCH  13  14
ENDBRANCH   2  13
TORSDOF 6
ENDMDL
MODEL 4
REMARK VINA RESULT:      -6.3      1.182      3.209
REMARK  6 active torsions:
REMARK  status: ('A' for Active; 'I' for Inactive)
REMARK       I    between atoms: C_2  and  N_1 
REMARK    1  A    between atoms: C_3  and  N_1 
REMARK    2  A    between atoms: C_8  and  C_2 
REMARK    3  A    between atoms: C_4  and  C_9 
REMARK    4  A    between atoms: O_10  and  C_4 
REMARK    5  A    between atoms: O_11  and  C_5 
REMARK    6  A    between atoms: C_9  and  C_8 
ROOT
ATOM      1  N   UNL d   1     -48.041  12.046  23.696  0.00  0.00    -0.320 N 
ATOM      2  C   UNL d   1     -48.785  11.927  23.319  0.00  0.00     0.258 C 
ATOM      3  O   UNL d   1     -49.313  11.372  23.615  0.00  0.00    -0.267 OA
ATOM      4  H   UNL d   1     -47.841  11.607  24.360  0.00  0.00     0.169 HD
ENDROOT
BRANCH   1   5
ATOM      5  C   UNL d   1     -47.508  12.617  23.383  0.00  0.00     0.082 A 
ATOM      6  C   UNL d   1     -46.726  12.387  23.191  0.00  0.00     0.110 A 
ATOM      7  C   UNL d   1     -46.196  12.947  22.883  0.00  0.00     0.026 A 
ATOM      8  C   UNL d   1     -46.438  13.718  22.768  0.00  0.00     0.002 A 
ATOM      9  C   UNL d   1     -47.208  13.945  22.958  0.00  0.00     0.002 A 
ATOM     10  C   UNL d   1     -47.736  13.401  23.261  0.00  0.00     0.019 A 
BRANCH   6  11
ATOM     11  O   UNL d   1     -46.488  11.599  23.311  0.00  0.00    -0.327 OA
ATOM     12  C   UNL d   1     -45.684  11.413  23.326  0.00  0.00     0.181 C 
ENDBRANCH   6  11
ENDBRANCH   1   5
BRANCH   2  13
ATOM     13  C   UNL d   1     -48.985  12.370  22.651  0.00  0.00     0.067 C 
BRANCH  13  14
ATOM     14  C   UNL d   1     -49.718  12.262  22.289  0.00  0.00     0.072 C 
BRANCH  14  15
ATOM     15  C   UNL d   1     -49.856  12.566  21.538  0.00  0.00     0.178 C 
ATOM     16  O   UNL d   1     -50.321  13.241  21.443  0.00  0.00    -0.646 OA
BRANCH  15  17
ATOM     17  O   UNL d   1     -49.531  12.199  20.876  0.00  0.00    -0.773 OA
ATOM     18  H   UNL d   1     -49.705  12.488  20.123  0.00  0.00     0.167 HD
ENDBRANCH  15  17
ENDBRANCH  14  15
ENDBRANCH  13  14
ENDBRANCH   2  13
TORSDOF 6
ENDMDL
MODEL 5
REMARK VINA RESULT:      -6.3      1.892      2.626
REMARK  6 active torsions:
REMARK  status: ('A' for Active; 'I' for Inactive)
REMARK       I    between atoms: C_2  and  N_1 
REMARK    1  A    between atoms: C_3  and  N_1 
REMARK    2  A    between atoms: C_8  and  C_2 
REMARK    3  A    between atoms: C_4  and  C_9 
REMARK    4  A    between atoms: O_10  and  C_4 
REMARK    5  A    between atoms: O_11  and  C_5 
REMARK    6  A    between atoms: C_9  and  C_8 
ROOT
ATOM      1  N   UNL d   1     -47.522  13.448  22.420  0.00  0.00    -0.320 N 
ATOM      2  C   UNL d   1     -47.729  14.252  22.559  0.00  0.00     0.258 C 
ATOM      3  O   UNL d   1     -47.143  14.825  22.620  0.00  0.00    -0.267 OA
ATOM      4  H   UNL d   1     -46.734  13.232  22.345  0.00  0.00     0.169 HD
ENDROOT
BRANCH   1   5
ATOM      5  C   UNL d   1     -48.132  12.870  22.359  0.00  0.00     0.082 A 
ATOM      6  C   UNL d   1     -48.138  12.225  22.892  0.00  0.00     0.110 A 
ATOM      7  C   UNL d   1     -48.738  11.651  22.836  0.00  0.00     0.026 A 
ATOM      8  C   UNL d   1     -49.316  11.720  22.265  0.00  0.00     0.002 A 
ATOM      9  C   UNL d   1     -49.309  12.357  21.740  0.00  0.00     0.002 A 
ATOM     10  C   UNL d   1     -48.724  12.925  21.787  0.00  0.00     0.019 A 
BRANCH   6  11
ATOM     11  O   UNL d   1     -47.546  12.162  23.471  0.00  0.00    -0.327 OA
ATOM     12  C   UNL d   1     -47.273  11.417  23.698  0.00  0.00     0.181 C 
ENDBRANCH   6  11
ENDBRANCH   1   5
BRANCH   2  13
ATOM     13  C   UNL d   1     -48.523  14.467  22.634  0.00  0.00     0.067 C 
BRANCH  13  14
ATOM     14  C   UNL d   1     -48.722  15.221  22.904  0.00  0.00     0.072 C 
BRANCH  14  15
ATOM     15  C   UNL d   1     -49.504  15.473  22.884  0.00  0.00     0.178 C 
ATOM     16  O   UNL d   1     -49.966  15.443  23.567  0.00  0.00    -0.646 OA
BRANCH  15  17
ATOM     17  O   UNL d   1     -49.832  15.756  22.183  0.00  0.00    -0.773 OA
ATOM     18  H   UNL d   1     -50.500  15.388  21.867  0.00  0.00     0.167 HD
ENDBRANCH  15  17
ENDBRANCH  14  15
ENDBRANCH  13  14
ENDBRANCH   2  13
TORSDOF 6
ENDMDL
MODEL 6
REMARK VINA RESULT:      -6.3      1.434      2.160
REMARK  6 active torsions:
REMARK  status: ('A' for Active; 'I' for Inactive)
REMARK       I    between atoms: C_2  and  N_1 
REMARK    1  A    between atoms: C_3  and  N_1 
REMARK    2  A    between atoms: C_8  and  C_2 
REMARK    3  A    between atoms: C_4  and  C_9 
REMARK    4  A    between atoms: O_10  and  C_4 
REMARK    5  A    between atoms: O_11  and  C_5 
REMARK    6  A    between atoms: C_9  and  C_8 
ROOT
ATOM      1  N   UNL d   1     -47.452  14.209  22.597  0.00  0.00    -0.320 N 
ATOM      2  C   UNL d   1     -46.879  13.753  23.013  0.00  0.00     0.258 C 
ATOM      3  O   UNL d   1     -46.217  14.117  23.337  0.00  0.00    -0.267 OA
ATOM      4  H   UNL d   1     -47.353  15.020  22.515  0.00  0.00     0.169 HD
ENDROOT
BRANCH   1   5
ATOM      5  C   UNL d   1     -48.125  13.825  22.269  0.00  0.00     0.082 A 
ATOM      6  C   UNL d   1     -48.890  14.054  22.519  0.00  0.00     0.110 A 
ATOM      7  C   UNL d   1     -49.558  13.678  22.199  0.00  0.00     0.026 A 
ATOM      8  C   UNL d   1     -49.466  13.088  21.643  0.00  0.00     0.002 A 
ATOM      9  C   UNL d   1     -48.712  12.861  21.397  0.00  0.00     0.002 A 
ATOM     10  C   UNL d   1     -48.050  13.225  21.706  0.00  0.00     0.019 A 
BRANCH   6  11
ATOM     11  O   UNL d   1     -48.975  14.657  23.086  0.00  0.00    -0.327 OA
ATOM     12  C   UNL d   1     -49.678  15.088  23.122  0.00  0.00     0.181 C 
ENDBRANCH   6  11
ENDBRANCH   1   5
BRANCH   2  13
ATOM     13  C   UNL d   1     -46.980  12.937  23.095  0.00  0.00     0.067 C 
BRANCH  13  14
ATOM     14  C   UNL d   1     -46.579  12.530  23.690  0.00  0.00     0.072 C 
BRANCH  14  15
ATOM     15  C   UNL d   1     -46.406  11.732  23.597  0.00  0.00     0.178 C 
ATOM     16  O   UNL d   1     -46.998  11.166  23.698  0.00  0.00    -0.646 OA
BRANCH  15  17
ATOM     17  O   UNL d   1     -45.642  11.492  23.405  0.00  0.00    -0.773 OA
ATOM     18  H   UNL d   1     -45.303  11.743  22.696  0.00  0.00     0.167 HD
ENDBRANCH  15  17
ENDBRANCH  14  15
ENDBRANCH  13  14
ENDBRANCH   2  13
TORSDOF 6
ENDMDL
MODEL 7
REMARK VINA RESULT:      -6.2      1.487      3.590
REMARK  6 active torsions:
REMARK  status: ('A' for Active; 'I' for Inactive)
REMARK       I    between atoms: C_2  and  N_1 
REMARK    1  A    between atoms: C_3  and  N_1 
REMARK    2  A    between atoms: C_8  and  C_2 
REMARK    3  A    between atoms: C_4  and  C_9 
REMARK    4  A    between atoms: O_10  and  C_4 
REMARK    5  A    between atoms: O_11  and  C_5 
REMARK    6  A    between atoms: C_9  and  C_8 
ROOT
ATOM      1  N   UNL d   1     -47.336  13.963  22.987  0.00  0.00    -0.320 N 
ATOM      2  C   UNL d   1     -48.051  14.044  22.549  0.00  0.00     0.258 C 
ATOM      3  O   UNL d   1     -48.358  14.790  22.394  0.00  0.00    -0.267 OA
ATOM      4  H   UNL d   1     -46.943  14.629  23.261  0.00  0.00     0.169 HD
ENDROOT
BRANCH   1   5
ATOM      5  C   UNL d   1     -47.032  13.193  23.139  0.00  0.00     0.082 A 
ATOM      6  C   UNL d   1     -46.264  12.995  22.870  0.00  0.00     0.110 A 
ATOM      7  C   UNL d   1     -45.959  12.236  23.018  0.00  0.00     0.026 A 
ATOM      8  C   UNL d   1     -46.407  11.689  23.424  0.00  0.00     0.002 A 
ATOM      9  C   UNL d   1     -47.164  11.884  23.689  0.00  0.00     0.002 A 
ATOM     10  C   UNL d   1     -47.472  12.626  23.549  0.00  0.00     0.019 A 
BRANCH   6  11
ATOM     11  O   UNL d   1     -45.814  13.559  22.458  0.00  0.00    -0.327 OA
ATOM     12  C   UNL d   1     -45.067  13.356  22.172  0.00  0.00     0.181 C 
ENDBRANCH   6  11
ENDBRANCH   1   5
BRANCH   2  13
ATOM     13  C   UNL d   1     -48.446  13.372  22.274  0.00  0.00     0.067 C 
BRANCH  13  14
ATOM     14  C   UNL d   1     -49.118  13.452  21.804  0.00  0.00     0.072 C 
BRANCH  14  15
ATOM     15  C   UNL d   1     -49.443  12.795  21.433  0.00  0.00     0.178 C 
ATOM     16  O   UNL d   1     -50.145  12.465  21.716  0.00  0.00    -0.646 OA
BRANCH  15  17
ATOM     17  O   UNL d   1     -49.072  12.461  20.779  0.00  0.00    -0.773 OA
ATOM     18  H   UNL d   1     -48.555  11.826  20.883  0.00  0.00     0.167 HD
ENDBRANCH  15  17
ENDBRANCH  14  15
ENDBRANCH  13  14
ENDBRANCH   2  13
TORSDOF 6
ENDMDL
MODEL 8
REMARK VINA RESULT:      -5.9      2.013      3.618
REMARK  6 active torsions:
REMARK  status: ('A' for Active; 'I' for Inactive)
REMARK       I    between atoms: C_2  and  N_1 
REMARK    1  A    between atoms: C_3  and  N_1 
REMARK    2  A    between atoms: C_8  and  C_2 
REMARK    3  A    between atoms: C_4  and  C_9 
REMARK    4  A    between atoms: O_10  and  C_4 
REMARK    5  A    between atoms: O_11  and  C_5 
REMARK    6  A    between atoms: C_9  and  C_8 
ROOT
ATOM      1  N   UNL d   1     -49.427  13.919  21.515  0.00  0.00    -0.320 N 
ATOM      2  C   UNL d   1     -49.610  13.106  21.639  0.00  0.00     0.258 C 
ATOM      3  O   UNL d   1     -49.447  12.552  21.055  0.00  0.00    -0.267 OA
ATOM      4  H   UNL d   1     -49.084  14.161  20.810  0.00  0.00     0.169 HD
ENDROOT
BRANCH   1   5
ATOM      5  C   UNL d   1     -49.599  14.477  22.121  0.00  0.00     0.082 A 
ATOM      6  C   UNL d   1     -48.969  14.884  22.494  0.00  0.00     0.110 A 
ATOM      7  C   UNL d   1     -49.133  15.437  23.093  0.00  0.00     0.026 A 
ATOM      8  C   UNL d   1     -49.905  15.579  23.315  0.00  0.00     0.002 A 
ATOM      9  C   UNL d   1     -50.525  15.178  22.948  0.00  0.00     0.002 A 
ATOM     10  C   UNL d   1     -50.374  14.634  22.359  0.00  0.00     0.019 A 
BRANCH   6  11
ATOM     11  O   UNL d   1     -48.186  14.733  22.261  0.00  0.00    -0.327 OA
ATOM     12  C   UNL d   1     -47.574  15.202  22.555  0.00  0.00     0.181 C 
ENDBRANCH   6  11
ENDBRANCH   1   5
BRANCH   2  13
ATOM     13  C   UNL d   1     -49.954  12.865  22.351  0.00  0.00     0.067 C 
BRANCH  13  14
ATOM     14  C   UNL d   1     -50.144  12.070  22.468  0.00  0.00     0.072 C 
BRANCH  14  15
ATOM     15  C   UNL d   1     -50.185  11.765  23.230  0.00  0.00     0.178 C 
ATOM     16  O   UNL d   1     -50.888  11.817  23.659  0.00  0.00    -0.646 OA
BRANCH  15  17
ATOM     17  O   UNL d   1     -49.527  11.405  23.570  0.00  0.00    -0.773 OA
ATOM     18  H   UNL d   1     -49.552  11.174  24.361  0.00  0.00     0.167 HD
ENDBRANCH  15  17
ENDBRANCH  14  15
ENDBRANCH  13  14
ENDBRANCH   2  13
TORSDOF 6
ENDMDL
