MODEL 1
REMARK VINA RESULT:      12.1      0.000      0.000
REMARK  1 active torsions:
REMARK  status: ('A' for Active; 'I' for Inactive)
REMARK    1  A    between atoms: C_6  and  C_2 
ROOT
ATOM      1  N   UNL d   1     -55.125-102.711 -37.545  0.00  0.00    -0.220 NA
ATOM      2  C   UNL d   1     -54.897-102.099 -38.029  0.00  0.00     0.182 A 
ATOM      3  O   UNL d   1     -54.715-101.453 -37.631  0.00  0.00    -0.288 OA
ATOM      4  C   UNL d   1     -55.072-102.397 -36.784  0.00  0.00     0.106 A 
ATOM      5  C   UNL d   1     -54.816-101.614 -36.838  0.00  0.00     0.119 A 
ATOM      6  C   UNL d   1     -55.230-102.746 -36.052  0.00  0.00     0.021 A 
ATOM      7  C   UNL d   1     -54.719-101.180 -36.159  0.00  0.00     0.026 A 
ATOM      8  C   UNL d   1     -54.869-101.500 -35.409  0.00  0.00     0.002 A 
ATOM      9  C   UNL d   1     -55.133-102.310 -35.354  0.00  0.00     0.002 A 
ENDROOT
BRANCH   2  10
ATOM     10  C   UNL d   1     -54.855-102.127 -38.849  0.00  0.00     0.041 A 
ATOM     11  C   UNL d   1     -54.909-102.850 -39.226  0.00  0.00     0.005 A 
ATOM     12  C   UNL d   1     -54.865-102.874 -40.064  0.00  0.00     0.021 A 
ATOM     13  C   UNL d   1     -54.771-102.190 -40.497  0.00  0.00     0.103 A 
ATOM     14  C   UNL d   1     -54.717-101.452 -40.102  0.00  0.00     0.021 A 
ATOM     15  N   UNL d   1     -54.733-102.256 -41.304  0.00  0.00    -0.148 N 
ATOM     16  C   UNL d   1     -54.761-101.437 -39.276  0.00  0.00     0.005 A 
ENDBRANCH   2  10
TORSDOF 1
ENDMDL
