MODEL 1
REMARK VINA RESULT:      -8.5      0.000      0.000
REMARK  2 active torsions:
REMARK  status: ('A' for Active; 'I' for Inactive)
REMARK       I    between atoms: C_3  and  N_1 
REMARK    1  A    between atoms: C_6  and  C_3 
REMARK    2  A    between atoms: O_16  and  C_11 
ROOT
ATOM      1  N   UNL d   1     -48.863  13.414  22.416  0.00  0.00    -0.175 N 
ATOM      2  N   UNL d   1     -48.863  12.717  21.979  0.00  0.00    -0.057 NA
ATOM      3  C   UNL d   1     -48.265  13.669  22.923  0.00  0.00     0.282 C 
ATOM      4  N   UNL d   1     -49.560  12.675  21.549  0.00  0.00    -0.129 NA
ATOM      5  C   UNL d   1     -49.579  13.806  22.246  0.00  0.00     0.107 A 
ATOM      6  C   UNL d   1     -50.003  13.358  21.720  0.00  0.00     0.122 A 
ATOM      7  O   UNL d   1     -48.345  14.381  23.322  0.00  0.00    -0.265 OA
ATOM      8  C   UNL d   1     -49.887  14.521  22.515  0.00  0.00     0.021 A 
ATOM      9  C   UNL d   1     -50.751  13.616  21.448  0.00  0.00     0.022 A 
ATOM     10  C   UNL d   1     -50.621  14.790  22.258  0.00  0.00     0.002 A 
ATOM     11  C   UNL d   1     -51.063  14.333  21.716  0.00  0.00     0.002 A 
ENDROOT
BRANCH   3  12
ATOM     12  C   UNL d   1     -47.591  13.208  23.025  0.00  0.00     0.059 A 
ATOM     13  C   UNL d   1     -46.892  13.397  22.641  0.00  0.00     0.013 A 
ATOM     14  C   UNL d   1     -46.211  12.938  22.739  0.00  0.00     0.057 A 
ATOM     15 BR   UNL d   1     -45.512  13.134  22.351  0.00  0.00    -0.047 Br
ATOM     16  C   UNL d   1     -46.234  12.274  23.233  0.00  0.00     0.100 A 
ATOM     17  C   UNL d   1     -46.935  12.079  23.622  0.00  0.00     0.025 A 
ATOM     18  C   UNL d   1     -47.611  12.546  23.516  0.00  0.00     0.007 A 
BRANCH  16  19
ATOM     19  O   UNL d   1     -45.561  11.796  23.348  0.00  0.00    -0.328 OA
ATOM     20  C   UNL d   1     -45.633  11.047  23.698  0.00  0.00     0.181 C 
ENDBRANCH  16  19
ENDBRANCH   3  12
TORSDOF 2
ENDMDL
MODEL 2
REMARK VINA RESULT:      -7.4      1.756      4.181
REMARK  2 active torsions:
REMARK  status: ('A' for Active; 'I' for Inactive)
REMARK       I    between atoms: C_3  and  N_1 
REMARK    1  A    between atoms: C_6  and  C_3 
REMARK    2  A    between atoms: O_16  and  C_11 
ROOT
ATOM      1  N   UNL d   1     -47.873  13.076  23.063  0.00  0.00    -0.175 N 
ATOM      2  N   UNL d   1     -47.557  13.746  22.703  0.00  0.00    -0.057 NA
ATOM      3  C   UNL d   1     -48.664  12.962  23.265  0.00  0.00     0.282 C 
ATOM      4  N   UNL d   1     -46.752  13.633  22.600  0.00  0.00    -0.129 NA
ATOM      5  C   UNL d   1     -47.243  12.544  23.180  0.00  0.00     0.107 A 
ATOM      6  C   UNL d   1     -46.561  12.881  22.899  0.00  0.00     0.122 A 
ATOM      7  O   UNL d   1     -48.897  12.261  23.622  0.00  0.00    -0.265 OA
ATOM      8  C   UNL d   1     -47.219  11.790  23.512  0.00  0.00     0.021 A 
ATOM      9  C   UNL d   1     -45.834  12.470  22.944  0.00  0.00     0.022 A 
ATOM     10  C   UNL d   1     -46.512  11.371  23.564  0.00  0.00     0.002 A 
ATOM     11  C   UNL d   1     -45.807  11.713  23.276  0.00  0.00     0.002 A 
ENDROOT
BRANCH   3  12
ATOM     12  C   UNL d   1     -49.216  13.552  23.106  0.00  0.00     0.059 A 
ATOM     13  C   UNL d   1     -49.734  13.482  22.475  0.00  0.00     0.013 A 
ATOM     14  C   UNL d   1     -50.291  14.072  22.312  0.00  0.00     0.057 A 
ATOM     15 BR   UNL d   1     -50.809  13.995  21.675  0.00  0.00    -0.047 Br
ATOM     16  C   UNL d   1     -50.327  14.744  22.792  0.00  0.00     0.100 A 
ATOM     17  C   UNL d   1     -49.807  14.820  23.428  0.00  0.00     0.025 A 
ATOM     18  C   UNL d   1     -49.253  14.223  23.584  0.00  0.00     0.007 A 
BRANCH  16  19
ATOM     19  O   UNL d   1     -50.879  15.351  22.646  0.00  0.00    -0.328 OA
ATOM     20  C   UNL d   1     -51.062  15.904  23.238  0.00  0.00     0.181 C 
ENDBRANCH  16  19
ENDBRANCH   3  12
TORSDOF 2
ENDMDL
MODEL 3
REMARK VINA RESULT:      -6.6      8.678     10.091
REMARK  2 active torsions:
REMARK  status: ('A' for Active; 'I' for Inactive)
REMARK       I    between atoms: C_3  and  N_1 
REMARK    1  A    between atoms: C_6  and  C_3 
REMARK    2  A    between atoms: O_16  and  C_11 
ROOT
ATOM      1  N   UNL d   1     -39.790  14.755  19.057  0.00  0.00    -0.175 N 
ATOM      2  N   UNL d   1     -39.075  15.162  19.051  0.00  0.00    -0.057 NA
ATOM      3  C   UNL d   1     -40.036  14.199  18.501  0.00  0.00     0.282 C 
ATOM      4  N   UNL d   1     -39.052  15.661  19.702  0.00  0.00    -0.129 NA
ATOM      5  C   UNL d   1     -40.211  15.013  19.728  0.00  0.00     0.107 A 
ATOM      6  C   UNL d   1     -39.763  15.564  20.121  0.00  0.00     0.122 A 
ATOM      7  O   UNL d   1     -40.768  13.837  18.580  0.00  0.00    -0.265 OA
ATOM      8  C   UNL d   1     -40.952  14.806  20.022  0.00  0.00     0.021 A 
ATOM      9  C   UNL d   1     -40.048  15.922  20.821  0.00  0.00     0.022 A 
ATOM     10  C   UNL d   1     -41.248  15.148  20.709  0.00  0.00     0.002 A 
ATOM     11  C   UNL d   1     -40.792  15.715  21.118  0.00  0.00     0.002 A 
ENDROOT
BRANCH   3  12
ATOM     12  C   UNL d   1     -39.545  14.009  17.868  0.00  0.00     0.059 A 
ATOM     13  C   UNL d   1     -39.046  13.360  17.904  0.00  0.00     0.013 A 
ATOM     14  C   UNL d   1     -38.550  13.165  17.272  0.00  0.00     0.057 A 
ATOM     15 BR   UNL d   1     -38.051  12.510  17.316  0.00  0.00    -0.047 Br
ATOM     16  C   UNL d   1     -38.556  13.632  16.589  0.00  0.00     0.100 A 
ATOM     17  C   UNL d   1     -39.056  14.286  16.546  0.00  0.00     0.025 A 
ATOM     18  C   UNL d   1     -39.549  14.473  17.186  0.00  0.00     0.007 A 
BRANCH  16  19
ATOM     19  O   UNL d   1     -38.065  13.454  15.939  0.00  0.00    -0.328 OA
ATOM     20  C   UNL d   1     -38.004  13.983  15.302  0.00  0.00     0.181 C 
ENDBRANCH  16  19
ENDBRANCH   3  12
TORSDOF 2
ENDMDL
MODEL 4
REMARK VINA RESULT:      -5.9      8.891     10.462
REMARK  2 active torsions:
REMARK  status: ('A' for Active; 'I' for Inactive)
REMARK       I    between atoms: C_3  and  N_1 
REMARK    1  A    between atoms: C_6  and  C_3 
REMARK    2  A    between atoms: O_16  and  C_11 
ROOT
ATOM      1  N   UNL d   1     -39.099  14.645  17.647  0.00  0.00    -0.175 N 
ATOM      2  N   UNL d   1     -38.926  15.437  17.783  0.00  0.00    -0.057 NA
ATOM      3  C   UNL d   1     -39.539  14.153  18.140  0.00  0.00     0.282 C 
ATOM      4  N   UNL d   1     -38.476  15.719  17.158  0.00  0.00    -0.129 NA
ATOM      5  C   UNL d   1     -38.745  14.440  16.921  0.00  0.00     0.107 A 
ATOM      6  C   UNL d   1     -38.366  15.093  16.623  0.00  0.00     0.122 A 
ATOM      7  O   UNL d   1     -39.666  13.370  17.929  0.00  0.00    -0.265 OA
ATOM      8  C   UNL d   1     -38.728  13.731  16.501  0.00  0.00     0.021 A 
ATOM      9  C   UNL d   1     -37.958  15.051  15.893  0.00  0.00     0.022 A 
ATOM     10  C   UNL d   1     -38.331  13.672  15.782  0.00  0.00     0.002 A 
ATOM     11  C   UNL d   1     -37.940  14.340  15.471  0.00  0.00     0.002 A 
ENDROOT
BRANCH   3  12
ATOM     12  C   UNL d   1     -39.850  14.450  18.842  0.00  0.00     0.059 A 
ATOM     13  C   UNL d   1     -39.488  14.293  19.560  0.00  0.00     0.013 A 
ATOM     14  C   UNL d   1     -39.796  14.589  20.269  0.00  0.00     0.057 A 
ATOM     15 BR   UNL d   1     -39.427  14.426  20.987  0.00  0.00    -0.047 Br
ATOM     16  C   UNL d   1     -40.481  15.053  20.255  0.00  0.00     0.100 A 
ATOM     17  C   UNL d   1     -40.849  15.214  19.535  0.00  0.00     0.025 A 
ATOM     18  C   UNL d   1     -40.533  14.913  18.831  0.00  0.00     0.007 A 
BRANCH  16  19
ATOM     19  O   UNL d   1     -40.809  15.361  20.956  0.00  0.00    -0.328 OA
ATOM     20  C   UNL d   1     -41.420  15.922  20.922  0.00  0.00     0.181 C 
ENDBRANCH  16  19
ENDBRANCH   3  12
TORSDOF 2
ENDMDL
MODEL 5
REMARK VINA RESULT:      -5.9      8.754      9.190
REMARK  2 active torsions:
REMARK  status: ('A' for Active; 'I' for Inactive)
REMARK       I    between atoms: C_3  and  N_1 
REMARK    1  A    between atoms: C_6  and  C_3 
REMARK    2  A    between atoms: O_16  and  C_11 
ROOT
ATOM      1  N   UNL d   1     -40.092  15.104  19.061  0.00  0.00    -0.175 N 
ATOM      2  N   UNL d   1     -39.485  14.566  18.923  0.00  0.00    -0.057 NA
ATOM      3  C   UNL d   1     -40.334  15.383  19.798  0.00  0.00     0.282 C 
ATOM      4  N   UNL d   1     -39.427  14.438  18.115  0.00  0.00    -0.129 NA
ATOM      5  C   UNL d   1     -40.410  15.307  18.318  0.00  0.00     0.107 A 
ATOM      6  C   UNL d   1     -40.007  14.902  17.742  0.00  0.00     0.122 A 
ATOM      7  O   UNL d   1     -40.951  15.921  19.849  0.00  0.00    -0.265 OA
ATOM      8  C   UNL d   1     -41.023  15.815  18.107  0.00  0.00     0.021 A 
ATOM      9  C   UNL d   1     -40.208  14.998  16.936  0.00  0.00     0.022 A 
ATOM     10  C   UNL d   1     -41.234  15.921  17.318  0.00  0.00     0.002 A 
ATOM     11  C   UNL d   1     -40.822  15.508  16.721  0.00  0.00     0.002 A 
ENDROOT
BRANCH   3  12
ATOM     12  C   UNL d   1     -39.954  15.121  20.479  0.00  0.00     0.059 A 
ATOM     13  C   UNL d   1     -39.375  15.577  20.838  0.00  0.00     0.013 A 
ATOM     14  C   UNL d   1     -38.989  15.319  21.523  0.00  0.00     0.057 A 
ATOM     15 BR   UNL d   1     -38.409  15.783  21.878  0.00  0.00    -0.047 Br
ATOM     16  C   UNL d   1     -39.190  14.587  21.853  0.00  0.00     0.100 A 
ATOM     17  C   UNL d   1     -39.771  14.124  21.496  0.00  0.00     0.025 A 
ATOM     18  C   UNL d   1     -40.151  14.392  20.811  0.00  0.00     0.007 A 
BRANCH  16  19
ATOM     19  O   UNL d   1     -38.815  14.307  22.543  0.00  0.00    -0.328 OA
ATOM     20  C   UNL d   1     -38.957  13.535  22.814  0.00  0.00     0.181 C 
ENDBRANCH  16  19
ENDBRANCH   3  12
TORSDOF 2
ENDMDL
MODEL 6
REMARK VINA RESULT:      -5.6      8.895      9.893
REMARK  2 active torsions:
REMARK  status: ('A' for Active; 'I' for Inactive)
REMARK       I    between atoms: C_3  and  N_1 
REMARK    1  A    between atoms: C_6  and  C_3 
REMARK    2  A    between atoms: O_16  and  C_11 
ROOT
ATOM      1  N   UNL d   1     -39.427  15.078  20.390  0.00  0.00    -0.175 N 
ATOM      2  N   UNL d   1     -38.953  15.647  20.031  0.00  0.00    -0.057 NA
ATOM      3  C   UNL d   1     -40.041  14.662  20.030  0.00  0.00     0.282 C 
ATOM      4  N   UNL d   1     -38.411  15.922  20.582  0.00  0.00    -0.129 NA
ATOM      5  C   UNL d   1     -39.167  15.007  21.178  0.00  0.00     0.107 A 
ATOM      6  C   UNL d   1     -38.549  15.519  21.296  0.00  0.00     0.122 A 
ATOM      7  O   UNL d   1     -40.468  14.109  20.461  0.00  0.00    -0.265 OA
ATOM      8  C   UNL d   1     -39.426  14.531  21.798  0.00  0.00     0.021 A 
ATOM      9  C   UNL d   1     -38.174  15.568  22.042  0.00  0.00     0.022 A 
ATOM     10  C   UNL d   1     -39.069  14.565  22.539  0.00  0.00     0.002 A 
ATOM     11  C   UNL d   1     -38.433  15.091  22.667  0.00  0.00     0.002 A 
ENDROOT
BRANCH   3  12
ATOM     12  C   UNL d   1     -40.224  14.805  19.240  0.00  0.00     0.059 A 
ATOM     13  C   UNL d   1     -39.891  14.350  18.645  0.00  0.00     0.013 A 
ATOM     14  C   UNL d   1     -40.071  14.488  17.850  0.00  0.00     0.057 A 
ATOM     15 BR   UNL d   1     -39.733  14.026  17.256  0.00  0.00    -0.047 Br
ATOM     16  C   UNL d   1     -40.595  15.096  17.649  0.00  0.00     0.100 A 
ATOM     17  C   UNL d   1     -40.932  15.557  18.244  0.00  0.00     0.025 A 
ATOM     18  C   UNL d   1     -40.746  15.410  19.037  0.00  0.00     0.007 A 
BRANCH  16  19
ATOM     19  O   UNL d   1     -40.790  15.254  16.854  0.00  0.00    -0.328 OA
ATOM     20  C   UNL d   1     -41.244  15.921  16.658  0.00  0.00     0.181 C 
ENDBRANCH  16  19
ENDBRANCH   3  12
TORSDOF 2
ENDMDL
