MODEL 1
REMARK VINA RESULT:      56.9      0.000      0.000
REMARK  5 active torsions:
REMARK  status: ('A' for Active; 'I' for Inactive)
REMARK    1  A    between atoms: C_15  and  C_3 
REMARK    2  A    between atoms: S_9  and  C_4 
REMARK       I    between atoms: N_6  and  C_8 
REMARK    3  A    between atoms: C_16  and  N_7 
REMARK    4  A    between atoms: C_8  and  C_14 
REMARK    5  A    between atoms: C_14  and  S_9 
ROOT
ATOM      1  N   UNL d   1     -55.369-101.746 -42.801  0.00  0.00    -0.269 N 
ATOM      2  N   UNL d   1     -55.370-100.551 -43.940  0.00  0.00    -0.301 N 
ATOM      3  C   UNL d   1     -55.363-102.345 -42.225  0.00  0.00     0.272 C 
ATOM      4  C   UNL d   1     -54.725-101.235 -42.874  0.00  0.00     0.102 A 
ATOM      5  C   UNL d   1     -56.015-101.656 -43.301  0.00  0.00     0.102 A 
ATOM      6  C   UNL d   1     -56.022-101.058 -43.876  0.00  0.00     0.100 A 
ATOM      7  C   UNL d   1     -54.724-100.638 -43.443  0.00  0.00     0.100 A 
ATOM      8  O   UNL d   1     -56.002-102.855 -42.150  0.00  0.00    -0.266 OA
ENDROOT
BRANCH   3   9
ATOM      9  C   UNL d   1     -54.711-102.427 -41.730  0.00  0.00     0.100 C 
BRANCH   9  10
ATOM     10  S   UNL d   1     -54.771-102.866 -41.032  0.00  0.00    -0.036 SA
BRANCH  10  11
ATOM     11  C   UNL d   1     -54.868-102.485 -40.298  0.00  0.00     0.236 A 
ATOM     12  O   UNL d   1     -55.119-102.820 -39.599  0.00  0.00    -0.263 OA
ATOM     13  C   UNL d   1     -55.132-102.230 -39.017  0.00  0.00     0.205 A 
ATOM     14  N   UNL d   1     -54.885-101.531 -39.367  0.00  0.00    -0.120 NA
ATOM     15  N   UNL d   1     -54.720-101.688 -40.168  0.00  0.00    -0.114 NA
BRANCH  13  16
ATOM     16  C   UNL d   1     -55.346-102.300 -38.223  0.00  0.00     0.043 A 
ATOM     17  C   UNL d   1     -55.963-102.799 -38.009  0.00  0.00     0.004 A 
ATOM     18  C   UNL d   1     -56.178-102.868 -37.215  0.00  0.00     0.000 A 
ATOM     19  C   UNL d   1     -55.774-102.438 -36.639  0.00  0.00     0.000 A 
ATOM     20  C   UNL d   1     -55.155-101.937 -36.857  0.00  0.00     0.000 A 
ATOM     21  C   UNL d   1     -54.943-101.870 -37.648  0.00  0.00     0.004 A 
ENDBRANCH  13  16
ENDBRANCH  10  11
ENDBRANCH   9  10
ENDBRANCH   3   9
BRANCH   2  22
ATOM     22  C   UNL d   1     -55.377 -99.956 -44.512  0.00  0.00     0.064 A 
ATOM     23  C   UNL d   1     -54.729 -99.861 -45.006  0.00  0.00     0.018 A 
ATOM     24  C   UNL d   1     -54.727 -99.262 -45.587  0.00  0.00     0.002 A 
ATOM     25  C   UNL d   1     -55.378 -98.769 -45.659  0.00  0.00     0.000 A 
ATOM     26  C   UNL d   1     -56.034 -98.860 -45.163  0.00  0.00     0.002 A 
ATOM     27  C   UNL d   1     -56.027 -99.459 -44.588  0.00  0.00     0.018 A 
ENDBRANCH   2  22
TORSDOF 5
ENDMDL
