MODEL 1
REMARK VINA RESULT:      20.7      0.000      0.000
REMARK  1 active torsions:
REMARK  status: ('A' for Active; 'I' for Inactive)
REMARK    1  A    between atoms: C_7  and  C_2 
ROOT
ATOM      1  C   UNL d   1     -57.810 -98.779 -44.636  0.00  0.00     0.070 A 
ATOM      2  C   UNL d   1     -58.549 -98.772 -44.319  0.00  0.00     0.170 A 
ATOM      3  C   UNL d   1     -57.246 -98.769 -44.030  0.00  0.00     0.108 A 
ATOM      4  N   UNL d   1     -58.468 -98.757 -43.479  0.00  0.00    -0.142 NA
ATOM      5  N   UNL d   1     -57.656 -98.755 -43.315  0.00  0.00    -0.148 NA
ATOM      6  C   UNL d   1     -56.441 -98.774 -44.224  0.00  0.00     0.042 A 
ATOM      7  C   UNL d   1     -57.572 -98.794 -45.426  0.00  0.00     0.126 A 
ATOM      8  O   UNL d   1     -56.767 -98.799 -45.620  0.00  0.00    -0.305 OA
ATOM      9  C   UNL d   1     -56.203 -98.789 -45.014  0.00  0.00     0.102 A 
ATOM     10  C   UNL d   1     -55.876 -98.764 -43.618  0.00  0.00     0.004 A 
ATOM     11  C   UNL d   1     -55.398 -98.794 -45.208  0.00  0.00     0.025 A 
ATOM     12  C   UNL d   1     -55.082 -98.770 -43.816  0.00  0.00     0.000 A 
ATOM     13  C   UNL d   1     -54.844 -98.785 -44.605  0.00  0.00     0.002 A 
ENDROOT
BRANCH   2  14
ATOM     14  C   UNL d   1     -59.230 -98.778 -44.765  0.00  0.00     0.231 C 
ATOM     15  O   UNL d   1     -59.960 -98.796 -44.399  0.00  0.00    -0.643 OA
ATOM     16  O   UNL d   1     -59.185 -98.768 -45.590  0.00  0.00    -0.643 OA
ENDBRANCH   2  14
TORSDOF 1
ENDMDL
MODEL 2
REMARK VINA RESULT:      21.0      1.083      1.397
REMARK  1 active torsions:
REMARK  status: ('A' for Active; 'I' for Inactive)
REMARK    1  A    between atoms: C_7  and  C_2 
ROOT
ATOM      1  C   UNL d   1     -57.749 -98.760 -44.267  0.00  0.00     0.070 A 
ATOM      2  C   UNL d   1     -58.474 -98.760 -44.615  0.00  0.00     0.170 A 
ATOM      3  C   UNL d   1     -57.160 -98.760 -44.850  0.00  0.00     0.108 A 
ATOM      4  N   UNL d   1     -58.359 -98.761 -45.451  0.00  0.00    -0.142 NA
ATOM      5  N   UNL d   1     -57.541 -98.761 -45.581  0.00  0.00    -0.148 NA
ATOM      6  C   UNL d   1     -56.363 -98.760 -44.623  0.00  0.00     0.042 A 
ATOM      7  C   UNL d   1     -57.543 -98.758 -43.468  0.00  0.00     0.126 A 
ATOM      8  O   UNL d   1     -56.747 -98.758 -43.241  0.00  0.00    -0.305 OA
ATOM      9  C   UNL d   1     -56.158 -98.759 -43.824  0.00  0.00     0.102 A 
ATOM     10  C   UNL d   1     -55.775 -98.761 -45.206  0.00  0.00     0.004 A 
ATOM     11  C   UNL d   1     -55.362 -98.759 -43.597  0.00  0.00     0.025 A 
ATOM     12  C   UNL d   1     -54.989 -98.761 -44.976  0.00  0.00     0.000 A 
ATOM     13  C   UNL d   1     -54.784 -98.760 -44.177  0.00  0.00     0.002 A 
ENDROOT
BRANCH   2  14
ATOM     14  C   UNL d   1     -59.173 -98.759 -44.197  0.00  0.00     0.231 C 
ATOM     15  O   UNL d   1     -59.163 -98.759 -43.380  0.00  0.00    -0.643 OA
ATOM     16  O   UNL d   1     -59.895 -98.759 -44.598  0.00  0.00    -0.643 OA
ENDBRANCH   2  14
TORSDOF 1
ENDMDL
