MODEL 1
REMARK VINA RESULT:      -3.0      0.000      0.000
REMARK  5 active torsions:
REMARK  status: ('A' for Active; 'I' for Inactive)
REMARK    1  A    between atoms: N_2  and  S_1 
REMARK    2  A    between atoms: C_3  and  S_1 
REMARK    3  A    between atoms: C_6  and  C_4 
REMARK    4  A    between atoms: O_15  and  C_6 
REMARK    5  A    between atoms: C_18  and  O_15 
ROOT
ATOM      1  N   UNL d   1      31.439  16.228 -23.738  0.00  0.00    -0.229 N 
ATOM      2  C   UNL d   1      32.459  17.211 -23.628  0.00  0.00     0.082 A 
ATOM      3  C   UNL d   1      31.662  17.012 -23.689  0.00  0.00     0.097 A 
ATOM      4  C   UNL d   1      32.009  15.631 -23.727  0.00  0.00     0.092 A 
ATOM      5  C   UNL d   1      33.034  16.626 -23.616  0.00  0.00     0.008 A 
ATOM      6  C   UNL d   1      32.808  15.834 -23.666  0.00  0.00     0.020 A 
ENDROOT
BRANCH   1   7
ATOM      7  S   UNL d   1      30.642  16.029 -23.800  0.00  0.00     0.277 S 
ATOM      8  O   UNL d   1      30.670  16.170 -24.611  0.00  0.00    -0.199 OA
ATOM      9  O   UNL d   1      30.614  15.889 -22.986  0.00  0.00    -0.199 OA
BRANCH   7  10
ATOM     10  C   UNL d   1      29.843  15.830 -23.862  0.00  0.00     0.133 A 
ATOM     11  S   UNL d   1      29.223  15.744 -24.386  0.00  0.00    -0.074 SA
ATOM     12  C   UNL d   1      28.553  15.509 -23.961  0.00  0.00     0.036 A 
ATOM     13  C   UNL d   1      28.776  15.453 -23.164  0.00  0.00     0.008 A 
ATOM     14  C   UNL d   1      29.574  15.651 -23.103  0.00  0.00     0.020 A 
ENDBRANCH   7  10
ENDBRANCH   1   7
BRANCH   2  15
ATOM     15  C   UNL d   1      32.679  18.008 -23.578  0.00  0.00     0.302 C 
ATOM     16  O   UNL d   1      32.793  18.455 -24.259  0.00  0.00    -0.259 OA
BRANCH  15  17
ATOM     17  O   UNL d   1      32.785  18.356 -22.836  0.00  0.00    -0.271 OA
BRANCH  17  18
ATOM     18  C   UNL d   1      33.014  19.141 -22.779  0.00  0.00     0.126 C 
ATOM     19  C   UNL d   1      33.156  19.478 -22.039  0.00  0.00     0.029 C 
ENDBRANCH  17  18
ENDBRANCH  15  17
ENDBRANCH   2  15
TORSDOF 5
ENDMDL
MODEL 2
REMARK VINA RESULT:      -2.8      1.246      1.489
REMARK  5 active torsions:
REMARK  status: ('A' for Active; 'I' for Inactive)
REMARK    1  A    between atoms: N_2  and  S_1 
REMARK    2  A    between atoms: C_3  and  S_1 
REMARK    3  A    between atoms: C_6  and  C_4 
REMARK    4  A    between atoms: O_15  and  C_6 
REMARK    5  A    between atoms: C_18  and  O_15 
ROOT
ATOM      1  N   UNL d   1      31.503  17.492 -24.389  0.00  0.00    -0.229 N 
ATOM      2  C   UNL d   1      32.547  18.154 -23.689  0.00  0.00     0.082 A 
ATOM      3  C   UNL d   1      31.812  17.780 -23.691  0.00  0.00     0.097 A 
ATOM      4  C   UNL d   1      31.921  17.571 -25.095  0.00  0.00     0.092 A 
ATOM      5  C   UNL d   1      32.972  18.238 -24.386  0.00  0.00     0.008 A 
ATOM      6  C   UNL d   1      32.658  17.947 -25.091  0.00  0.00     0.020 A 
ENDROOT
BRANCH   1   7
ATOM      7  S   UNL d   1      30.768  17.118 -24.390  0.00  0.00     0.277 S 
ATOM      8  O   UNL d   1      30.412  17.820 -24.635  0.00  0.00    -0.199 OA
ATOM      9  O   UNL d   1      31.126  16.415 -24.145  0.00  0.00    -0.199 OA
BRANCH   7  10
ATOM     10  C   UNL d   1      30.032  16.744 -24.392  0.00  0.00     0.133 A 
ATOM     11  S   UNL d   1      29.662  16.016 -24.378  0.00  0.00    -0.074 SA
ATOM     12  C   UNL d   1      28.844  16.139 -24.394  0.00  0.00     0.036 A 
ATOM     13  C   UNL d   1      28.721  16.959 -24.418  0.00  0.00     0.008 A 
ATOM     14  C   UNL d   1      29.455  17.333 -24.417  0.00  0.00     0.020 A 
ENDBRANCH   7  10
ENDBRANCH   1   7
BRANCH   2  15
ATOM     15  C   UNL d   1      32.856  18.445 -22.977  0.00  0.00     0.302 C 
ATOM     16  O   UNL d   1      33.240  17.943 -22.451  0.00  0.00    -0.259 OA
BRANCH  15  17
ATOM     17  O   UNL d   1      32.778  19.247 -22.797  0.00  0.00    -0.271 OA
BRANCH  17  18
ATOM     18  C   UNL d   1      33.095  19.545 -22.102  0.00  0.00     0.126 C 
ATOM     19  C   UNL d   1      32.957  20.330 -21.888  0.00  0.00     0.029 C 
ENDBRANCH  17  18
ENDBRANCH  15  17
ENDBRANCH   2  15
TORSDOF 5
ENDMDL
MODEL 3
REMARK VINA RESULT:      -2.7      1.331      3.809
REMARK  5 active torsions:
REMARK  status: ('A' for Active; 'I' for Inactive)
REMARK    1  A    between atoms: N_2  and  S_1 
REMARK    2  A    between atoms: C_3  and  S_1 
REMARK    3  A    between atoms: C_6  and  C_4 
REMARK    4  A    between atoms: O_15  and  C_6 
REMARK    5  A    between atoms: C_18  and  O_15 
ROOT
ATOM      1  N   UNL d   1      31.895  16.921 -23.874  0.00  0.00    -0.229 N 
ATOM      2  C   UNL d   1      30.729  16.121 -24.009  0.00  0.00     0.082 A 
ATOM      3  C   UNL d   1      31.101  16.855 -24.052  0.00  0.00     0.097 A 
ATOM      4  C   UNL d   1      32.329  16.256 -23.651  0.00  0.00     0.092 A 
ATOM      5  C   UNL d   1      31.151  15.453 -23.788  0.00  0.00     0.008 A 
ATOM      6  C   UNL d   1      31.953  15.521 -23.609  0.00  0.00     0.020 A 
ENDROOT
BRANCH   1   7
ATOM      7  S   UNL d   1      32.267  17.655 -23.917  0.00  0.00     0.277 S 
ATOM      8  O   UNL d   1      32.238  17.718 -23.095  0.00  0.00    -0.199 OA
ATOM      9  O   UNL d   1      32.295  17.593 -24.740  0.00  0.00    -0.199 OA
BRANCH   7  10
ATOM     10  C   UNL d   1      32.639  18.391 -23.960  0.00  0.00     0.133 A 
ATOM     11  S   UNL d   1      32.920  18.960 -24.474  0.00  0.00    -0.074 SA
ATOM     12  C   UNL d   1      33.241  19.579 -24.029  0.00  0.00     0.036 A 
ATOM     13  C   UNL d   1      33.150  19.377 -23.229  0.00  0.00     0.008 A 
ATOM     14  C   UNL d   1      32.779  18.643 -23.187  0.00  0.00     0.020 A 
ENDBRANCH   7  10
ENDBRANCH   1   7
BRANCH   2  15
ATOM     15  C   UNL d   1      29.923  16.060 -24.191  0.00  0.00     0.302 C 
ATOM     16  O   UNL d   1      29.677  15.734 -24.905  0.00  0.00    -0.259 OA
BRANCH  15  17
ATOM     17  O   UNL d   1      29.361  16.329 -23.648  0.00  0.00    -0.271 OA
BRANCH  17  18
ATOM     18  C   UNL d   1      28.562  16.232 -23.801  0.00  0.00     0.126 C 
ATOM     19  C   UNL d   1      28.000  16.549 -23.286  0.00  0.00     0.029 C 
ENDBRANCH  17  18
ENDBRANCH  15  17
ENDBRANCH   2  15
TORSDOF 5
ENDMDL
MODEL 4
REMARK VINA RESULT:      -2.0      5.395      7.709
REMARK  5 active torsions:
REMARK  status: ('A' for Active; 'I' for Inactive)
REMARK    1  A    between atoms: N_2  and  S_1 
REMARK    2  A    between atoms: C_3  and  S_1 
REMARK    3  A    between atoms: C_6  and  C_4 
REMARK    4  A    between atoms: O_15  and  C_6 
REMARK    5  A    between atoms: C_18  and  O_15 
ROOT
ATOM      1  N   UNL d   1      32.557  23.032 -20.020  0.00  0.00    -0.229 N 
ATOM      2  C   UNL d   1      32.680  22.357 -21.264  0.00  0.00     0.082 A 
ATOM      3  C   UNL d   1      32.804  22.383 -20.450  0.00  0.00     0.097 A 
ATOM      4  C   UNL d   1      32.183  23.663 -20.397  0.00  0.00     0.092 A 
ATOM      5  C   UNL d   1      32.310  22.979 -21.649  0.00  0.00     0.008 A 
ATOM      6  C   UNL d   1      32.061  23.634 -21.214  0.00  0.00     0.020 A 
ENDROOT
BRANCH   1   7
ATOM      7  S   UNL d   1      32.680  23.058 -19.206  0.00  0.00     0.277 S 
ATOM      8  O   UNL d   1      33.189  23.698 -19.304  0.00  0.00    -0.199 OA
ATOM      9  O   UNL d   1      32.170  22.416 -19.108  0.00  0.00    -0.199 OA
BRANCH   7  10
ATOM     10  C   UNL d   1      32.804  23.084 -18.390  0.00  0.00     0.133 A 
ATOM     11  S   UNL d   1      33.241  22.765 -17.778  0.00  0.00    -0.074 SA
ATOM     12  C   UNL d   1      33.004  23.126 -17.072  0.00  0.00     0.036 A 
ATOM     13  C   UNL d   1      32.412  23.674 -17.265  0.00  0.00     0.008 A 
ATOM     14  C   UNL d   1      32.288  23.648 -18.080  0.00  0.00     0.020 A 
ENDBRANCH   7  10
ENDBRANCH   1   7
BRANCH   2  15
ATOM     15  C   UNL d   1      32.933  21.695 -21.695  0.00  0.00     0.302 C 
ATOM     16  O   UNL d   1      33.231  21.780 -22.457  0.00  0.00    -0.259 OA
BRANCH  15  17
ATOM     17  O   UNL d   1      32.885  20.944 -21.354  0.00  0.00    -0.271 OA
BRANCH  17  18
ATOM     18  C   UNL d   1      33.184  20.293 -21.752  0.00  0.00     0.126 C 
ATOM     19  C   UNL d   1      33.098  19.537 -21.431  0.00  0.00     0.029 C 
ENDBRANCH  17  18
ENDBRANCH  15  17
ENDBRANCH   2  15
TORSDOF 5
ENDMDL
MODEL 5
REMARK VINA RESULT:      -1.9      2.478      4.507
REMARK  5 active torsions:
REMARK  status: ('A' for Active; 'I' for Inactive)
REMARK    1  A    between atoms: N_2  and  S_1 
REMARK    2  A    between atoms: C_3  and  S_1 
REMARK    3  A    between atoms: C_6  and  C_4 
REMARK    4  A    between atoms: O_15  and  C_6 
REMARK    5  A    between atoms: C_18  and  O_15 
ROOT
ATOM      1  N   UNL d   1      32.903  18.928 -22.729  0.00  0.00    -0.229 N 
ATOM      2  C   UNL d   1      32.403  18.004 -23.685  0.00  0.00     0.082 A 
ATOM      3  C   UNL d   1      32.488  18.778 -23.415  0.00  0.00     0.097 A 
ATOM      4  C   UNL d   1      33.241  18.307 -22.302  0.00  0.00     0.092 A 
ATOM      5  C   UNL d   1      32.734  17.380 -23.268  0.00  0.00     0.008 A 
ATOM      6  C   UNL d   1      33.154  17.532 -22.575  0.00  0.00     0.020 A 
ENDROOT
BRANCH   1   7
ATOM      7  S   UNL d   1      32.988  19.702 -22.459  0.00  0.00     0.277 S 
ATOM      8  O   UNL d   1      32.737  19.468 -21.710  0.00  0.00    -0.199 OA
ATOM      9  O   UNL d   1      33.240  19.935 -23.210  0.00  0.00    -0.199 OA
BRANCH   7  10
ATOM     10  C   UNL d   1      33.073  20.477 -22.189  0.00  0.00     0.133 A 
ATOM     11  S   UNL d   1      33.196  21.249 -22.426  0.00  0.00    -0.074 SA
ATOM     12  C   UNL d   1      33.211  21.730 -21.753  0.00  0.00     0.036 A 
ATOM     13  C   UNL d   1      33.095  21.235 -21.097  0.00  0.00     0.008 A 
ATOM     14  C   UNL d   1      33.010  20.461 -21.367  0.00  0.00     0.020 A 
ENDBRANCH   7  10
ENDBRANCH   1   7
BRANCH   2  15
ATOM     15  C   UNL d   1      31.979  17.858 -24.382  0.00  0.00     0.302 C 
ATOM     16  O   UNL d   1      32.373  17.744 -25.096  0.00  0.00    -0.259 OA
BRANCH  15  17
ATOM     17  O   UNL d   1      31.154  17.826 -24.359  0.00  0.00    -0.271 OA
BRANCH  17  18
ATOM     18  C   UNL d   1      30.731  17.629 -25.033  0.00  0.00     0.126 C 
ATOM     19  C   UNL d   1      29.906  17.592 -25.008  0.00  0.00     0.029 C 
ENDBRANCH  17  18
ENDBRANCH  15  17
ENDBRANCH   2  15
TORSDOF 5
ENDMDL
MODEL 6
REMARK VINA RESULT:      -1.3      1.757      2.731
REMARK  5 active torsions:
REMARK  status: ('A' for Active; 'I' for Inactive)
REMARK    1  A    between atoms: N_2  and  S_1 
REMARK    2  A    between atoms: C_3  and  S_1 
REMARK    3  A    between atoms: C_6  and  C_4 
REMARK    4  A    between atoms: O_15  and  C_6 
REMARK    5  A    between atoms: C_18  and  O_15 
ROOT
ATOM      1  N   UNL d   1      32.688  18.361 -24.235  0.00  0.00    -0.229 N 
ATOM      2  C   UNL d   1      33.071  19.597 -23.650  0.00  0.00     0.082 A 
ATOM      3  C   UNL d   1      32.800  18.823 -23.572  0.00  0.00     0.097 A 
ATOM      4  C   UNL d   1      32.845  18.664 -24.986  0.00  0.00     0.092 A 
ATOM      5  C   UNL d   1      33.230  19.909 -24.392  0.00  0.00     0.008 A 
ATOM      6  C   UNL d   1      33.117  19.441 -25.062  0.00  0.00     0.020 A 
ENDROOT
BRANCH   1   7
ATOM      7  S   UNL d   1      32.417  17.586 -24.157  0.00  0.00     0.277 S 
ATOM      8  O   UNL d   1      33.190  17.329 -24.034  0.00  0.00    -0.199 OA
ATOM      9  O   UNL d   1      31.643  17.845 -24.280  0.00  0.00    -0.199 OA
BRANCH   7  10
ATOM     10  C   UNL d   1      32.146  16.810 -24.078  0.00  0.00     0.133 A 
ATOM     11  S   UNL d   1      31.489  16.331 -24.150  0.00  0.00    -0.074 SA
ATOM     12  C   UNL d   1      31.708  15.558 -23.952  0.00  0.00     0.036 A 
ATOM     13  C   UNL d   1      32.514  15.575 -23.756  0.00  0.00     0.008 A 
ATOM     14  C   UNL d   1      32.784  16.349 -23.835  0.00  0.00     0.020 A 
ENDBRANCH   7  10
ENDBRANCH   1   7
BRANCH   2  15
ATOM     15  C   UNL d   1      33.183  20.062 -22.973  0.00  0.00     0.302 C 
ATOM     16  O   UNL d   1      33.238  20.881 -23.031  0.00  0.00    -0.259 OA
BRANCH  15  17
ATOM     17  O   UNL d   1      33.240  19.698 -22.234  0.00  0.00    -0.271 OA
BRANCH  17  18
ATOM     18  C   UNL d   1      33.144  20.139 -21.550  0.00  0.00     0.126 C 
ATOM     19  C   UNL d   1      33.210  19.777 -20.811  0.00  0.00     0.029 C 
ENDBRANCH  17  18
ENDBRANCH  15  17
ENDBRANCH   2  15
TORSDOF 5
ENDMDL
MODEL 7
REMARK VINA RESULT:      -1.3      4.216      6.631
REMARK  5 active torsions:
REMARK  status: ('A' for Active; 'I' for Inactive)
REMARK    1  A    between atoms: N_2  and  S_1 
REMARK    2  A    between atoms: C_3  and  S_1 
REMARK    3  A    between atoms: C_6  and  C_4 
REMARK    4  A    between atoms: O_15  and  C_6 
REMARK    5  A    between atoms: C_18  and  O_15 
ROOT
ATOM      1  N   UNL d   1      32.894  22.101 -21.390  0.00  0.00    -0.229 N 
ATOM      2  C   UNL d   1      33.031  20.843 -22.037  0.00  0.00     0.082 A 
ATOM      3  C   UNL d   1      32.874  21.285 -21.359  0.00  0.00     0.097 A 
ATOM      4  C   UNL d   1      33.072  22.487 -22.097  0.00  0.00     0.092 A 
ATOM      5  C   UNL d   1      33.209  21.217 -22.745  0.00  0.00     0.008 A 
ATOM      6  C   UNL d   1      33.229  22.041 -22.775  0.00  0.00     0.020 A 
ENDROOT
BRANCH   1   7
ATOM      7  S   UNL d   1      32.737  22.542 -20.712  0.00  0.00     0.277 S 
ATOM      8  O   UNL d   1      32.241  21.944 -20.437  0.00  0.00    -0.199 OA
ATOM      9  O   UNL d   1      33.234  23.142 -20.988  0.00  0.00    -0.199 OA
BRANCH   7  10
ATOM     10  C   UNL d   1      32.580  22.985 -20.033  0.00  0.00     0.133 A 
ATOM     11  S   UNL d   1      32.075  23.538 -19.708  0.00  0.00    -0.074 SA
ATOM     12  C   UNL d   1      32.326  23.700 -18.937  0.00  0.00     0.036 A 
ATOM     13  C   UNL d   1      32.997  23.233 -18.796  0.00  0.00     0.008 A 
ATOM     14  C   UNL d   1      33.154  22.791 -19.473  0.00  0.00     0.020 A 
ENDBRANCH   7  10
ENDBRANCH   1   7
BRANCH   2  15
ATOM     15  C   UNL d   1      33.008  20.015 -22.000  0.00  0.00     0.302 C 
ATOM     16  O   UNL d   1      33.219  19.621 -21.309  0.00  0.00    -0.259 OA
BRANCH  15  17
ATOM     17  O   UNL d   1      32.771  19.584 -22.663  0.00  0.00    -0.271 OA
BRANCH  17  18
ATOM     18  C   UNL d   1      33.035  18.815 -22.769  0.00  0.00     0.126 C 
ATOM     19  C   UNL d   1      32.715  18.347 -23.369  0.00  0.00     0.029 C 
ENDBRANCH  17  18
ENDBRANCH  15  17
ENDBRANCH   2  15
TORSDOF 5
ENDMDL
