MODEL 1
REMARK VINA RESULT:      76.5      0.000      0.000
REMARK  7 active torsions:
REMARK  status: ('A' for Active; 'I' for Inactive)
REMARK    1  A    between atoms: N_15  and  C_4 
REMARK    2  A    between atoms: C_17  and  N_5 
REMARK    3  A    between atoms: C_19  and  N_10 
REMARK    4  A    between atoms: C_11  and  S_16 
REMARK    5  A    between atoms: S_16  and  C_28 
REMARK    6  A    between atoms: C_27  and  C_17 
REMARK    7  A    between atoms: C_28  and  C_27 
ROOT
ATOM      1  C   UNL d   1     -54.909-101.374 -44.337  0.00  0.00     0.191 A 
ATOM      2  C   UNL d   1     -54.841-100.551 -44.354  0.00  0.00     0.174 A 
ATOM      3  N   UNL d   1     -54.907-101.634 -43.547  0.00  0.00    -0.042 NA
ATOM      4  C   UNL d   1     -54.836-100.945 -43.075  0.00  0.00     0.722 A 
ATOM      5  N   UNL d   1     -54.795-100.286 -43.554  0.00  0.00    -0.136 N 
ATOM      6  N   UNL d   1     -54.968-101.813 -45.061  0.00  0.00    -0.239 N 
ATOM      7  C   UNL d   1     -54.953-101.379 -45.801  0.00  0.00     0.358 A 
ATOM      8  N   UNL d   1     -54.884-100.556 -45.781  0.00  0.00    -0.152 NA
ATOM      9  C   UNL d   1     -54.827-100.141 -45.045  0.00  0.00     0.303 A 
ATOM     10  O   UNL d   1     -55.009-101.781 -46.537  0.00  0.00    -0.244 OA
ATOM     11  O   UNL d   1     -54.758 -99.305 -45.062  0.00  0.00    -0.263 OA
ATOM     12  C   UNL d   1     -55.037-102.637 -45.056  0.00  0.00     0.105 C 
ENDROOT
BRANCH   5  13
ATOM     13  C   UNL d   1     -54.724 -99.573 -43.167  0.00  0.00     0.072 C 
BRANCH  13  14
ATOM     14  C   UNL d   1     -55.377 -99.053 -43.159  0.00  0.00     0.052 C 
ATOM     15  C   UNL d   1     -55.354 -99.356 -43.926  0.00  0.00     0.007 C 
BRANCH  14  16
ATOM     16  C   UNL d   1     -55.829 -98.948 -43.841  0.00  0.00     0.071 C 
BRANCH  16  17
ATOM     17  S   UNL d   1     -56.642 -98.938 -43.805  0.00  0.00    -0.073 SA
BRANCH  17  18
ATOM     18  C   UNL d   1     -57.095 -98.871 -44.491  0.00  0.00     0.215 A 
ATOM     19  N   UNL d   1     -57.916 -98.813 -44.528  0.00  0.00    -0.186 N 
ATOM     20  N   UNL d   1     -58.137 -98.756 -45.316  0.00  0.00    -0.038 NA
ATOM     21  N   UNL d   1     -57.450 -98.779 -45.773  0.00  0.00    -0.022 NA
ATOM     22  N   UNL d   1     -56.806 -98.849 -45.261  0.00  0.00    -0.101 NA
BRANCH  19  23
ATOM     23  C   UNL d   1     -58.429 -98.812 -43.882  0.00  0.00     0.087 A 
ATOM     24  C   UNL d   1     -58.121 -98.768 -43.120  0.00  0.00     0.019 A 
ATOM     25  C   UNL d   1     -58.634 -98.768 -42.474  0.00  0.00     0.002 A 
ATOM     26  C   UNL d   1     -59.450 -98.811 -42.591  0.00  0.00     0.000 A 
ATOM     27  C   UNL d   1     -59.751 -98.855 -43.362  0.00  0.00     0.002 A 
ATOM     28  C   UNL d   1     -59.238 -98.855 -44.009  0.00  0.00     0.019 A 
ENDBRANCH  19  23
ENDBRANCH  17  18
ENDBRANCH  16  17
ENDBRANCH  14  16
ENDBRANCH  13  14
ENDBRANCH   5  13
BRANCH   4  29
ATOM     29  N   UNL d   1     -54.810-100.931 -42.249  0.00  0.00    -0.136 N 
ATOM     30  C   UNL d   1     -54.758-100.204 -41.852  0.00  0.00     0.117 A 
ATOM     31  C   UNL d   1     -54.733-100.202 -41.026  0.00  0.00     0.100 A 
ATOM     32  N   UNL d   1     -54.759-100.912 -40.597  0.00  0.00    -0.299 N 
ATOM     33  C   UNL d   1     -54.810-101.627 -41.006  0.00  0.00     0.100 A 
ATOM     34  C   UNL d   1     -54.733-100.898 -39.770  0.00  0.00     0.100 C 
ATOM     35  C   UNL d   1     -54.836-101.642 -41.828  0.00  0.00     0.117 A 
ENDBRANCH   4  29
TORSDOF 7
ENDMDL
