MODEL 1
REMARK VINA RESULT:      -4.3      0.000      0.000
REMARK  9 active torsions:
REMARK  status: ('A' for Active; 'I' for Inactive)
REMARK    1  A    between atoms: S_10  and  C_3 
REMARK    2  A    between atoms: C_17  and  N_5 
REMARK    3  A    between atoms: C_12  and  S_10 
REMARK    4  A    between atoms: C_11  and  C_12 
REMARK       I    between atoms: N_13  and  C_11 
REMARK    5  A    between atoms: C_26  and  C_12 
REMARK    6  A    between atoms: C_23  and  N_13 
REMARK    7  A    between atoms: C_15  and  C_23 
REMARK    8  A    between atoms: C_22  and  C_17 
REMARK    9  A    between atoms: C_30  and  C_26 
ROOT
ATOM      1  C   UNL d   1     -48.646  12.386  22.704  0.00  0.00     0.081 A 
ATOM      2  C   UNL d   1     -48.310  12.991  22.252  0.00  0.00     0.117 A 
ATOM      3  C   UNL d   1     -47.018  12.650  22.766  0.00  0.00     0.182 A 
ATOM      4  N   UNL d   1     -47.502  13.123  22.282  0.00  0.00    -0.215 NA
ATOM      5  N   UNL d   1     -47.359  12.046  23.217  0.00  0.00    -0.253 N 
ATOM      6  C   UNL d   1     -48.175  11.913  23.186  0.00  0.00     0.268 A 
ATOM      7  S   UNL d   1     -48.912  13.361  21.834  0.00  0.00    -0.068 SA
ATOM      8  C   UNL d   1     -49.459  12.382  22.565  0.00  0.00     0.013 A 
ATOM      9  C   UNL d   1     -49.619  12.988  22.025  0.00  0.00     0.031 A 
ATOM     10  O   UNL d   1     -48.511  11.309  23.638  0.00  0.00    -0.267 OA
ATOM     11  C   UNL d   1     -50.170  12.015  22.750  0.00  0.00     0.001 A 
ATOM     12  C   UNL d   1     -50.432  12.990  21.880  0.00  0.00     0.006 A 
ATOM     13  C   UNL d   1     -50.776  12.386  22.331  0.00  0.00     0.001 A 
ENDROOT
BRANCH   3  14
ATOM     14  S   UNL d   1     -46.210  12.785  22.794  0.00  0.00    -0.045 SA
BRANCH  14  15
ATOM     15  C   UNL d   1     -45.856  13.296  22.256  0.00  0.00     0.093 C 
BRANCH  15  16
ATOM     16  C   UNL d   1     -45.313  13.006  21.697  0.00  0.00     0.285 C 
ATOM     17  N   UNL d   1     -44.506  13.050  21.844  0.00  0.00    -0.204 NA
ATOM     18  O   UNL d   1     -45.592  12.675  20.997  0.00  0.00    -0.265 OA
BRANCH  17  19
ATOM     19  C   UNL d   1     -43.969  12.764  21.294  0.00  0.00     0.127 C 
BRANCH  19  20
ATOM     20  C   UNL d   1     -43.170  12.949  21.358  0.00  0.00     0.119 A 
ATOM     21  O   UNL d   1     -42.640  12.633  21.894  0.00  0.00    -0.304 OA
ATOM     22  C   UNL d   1     -41.904  12.974  21.763  0.00  0.00     0.123 A 
ATOM     23  C   UNL d   1     -41.977  13.509  21.137  0.00  0.00     0.029 A 
ATOM     24  C   UNL d   1     -42.761  13.499  20.880  0.00  0.00     0.028 A 
ENDBRANCH  19  20
ENDBRANCH  17  19
ENDBRANCH  15  16
BRANCH  15  25
ATOM     25  C   UNL d   1     -46.036  14.100  22.266  0.00  0.00     0.057 C 
BRANCH  25  26
ATOM     26  C   UNL d   1     -45.694  14.581  22.844  0.00  0.00     0.235 C 
ATOM     27  O   UNL d   1     -45.912  15.378  22.893  0.00  0.00    -0.283 OA
ENDBRANCH  25  26
ENDBRANCH  15  25
ENDBRANCH  14  15
ENDBRANCH   3  14
BRANCH   5  28
ATOM     28  C   UNL d   1     -46.882  11.576  23.698  0.00  0.00     0.085 C 
BRANCH  28  29
ATOM     29  C   UNL d   1     -46.717  10.795  23.482  0.00  0.00     0.019 C 
ATOM     30  C   UNL d   1     -45.998  10.451  23.697  0.00  0.00     0.002 C 
ENDBRANCH  28  29
ENDBRANCH   5  28
TORSDOF 9
ENDMDL
MODEL 2
REMARK VINA RESULT:      -4.0      1.389      2.222
REMARK  9 active torsions:
REMARK  status: ('A' for Active; 'I' for Inactive)
REMARK    1  A    between atoms: S_10  and  C_3 
REMARK    2  A    between atoms: C_17  and  N_5 
REMARK    3  A    between atoms: C_12  and  S_10 
REMARK    4  A    between atoms: C_11  and  C_12 
REMARK       I    between atoms: N_13  and  C_11 
REMARK    5  A    between atoms: C_26  and  C_12 
REMARK    6  A    between atoms: C_23  and  N_13 
REMARK    7  A    between atoms: C_15  and  C_23 
REMARK    8  A    between atoms: C_22  and  C_17 
REMARK    9  A    between atoms: C_30  and  C_26 
ROOT
ATOM      1  C   UNL d   1     -49.013  12.902  23.343  0.00  0.00     0.081 A 
ATOM      2  C   UNL d   1     -48.529  12.240  23.447  0.00  0.00     0.117 A 
ATOM      3  C   UNL d   1     -47.374  13.055  23.217  0.00  0.00     0.182 A 
ATOM      4  N   UNL d   1     -47.715  12.315  23.385  0.00  0.00    -0.215 NA
ATOM      5  N   UNL d   1     -47.862  13.714  23.113  0.00  0.00    -0.253 N 
ATOM      6  C   UNL d   1     -48.683  13.639  23.176  0.00  0.00     0.268 A 
ATOM      7  S   UNL d   1     -49.011  11.595  23.605  0.00  0.00    -0.068 SA
ATOM      8  C   UNL d   1     -49.797  12.665  23.436  0.00  0.00     0.013 A 
ATOM      9  C   UNL d   1     -49.791  11.854  23.598  0.00  0.00     0.031 A 
ATOM     10  O   UNL d   1     -49.167  14.300  23.071  0.00  0.00    -0.267 OA
ATOM     11  C   UNL d   1     -50.579  12.915  23.431  0.00  0.00     0.001 A 
ATOM     12  C   UNL d   1     -50.573  11.609  23.693  0.00  0.00     0.006 A 
ATOM     13  C   UNL d   1     -51.064  12.267  23.590  0.00  0.00     0.001 A 
ENDROOT
BRANCH   3  14
ATOM     14  S   UNL d   1     -46.559  13.125  23.155  0.00  0.00    -0.045 SA
BRANCH  14  15
ATOM     15  C   UNL d   1     -46.104  12.482  22.924  0.00  0.00     0.093 C 
BRANCH  15  16
ATOM     16  C   UNL d   1     -45.695  12.497  22.199  0.00  0.00     0.285 C 
ATOM     17  N   UNL d   1     -44.916  12.757  22.169  0.00  0.00    -0.204 NA
ATOM     18  O   UNL d   1     -46.079  12.249  21.514  0.00  0.00    -0.265 OA
BRANCH  17  19
ATOM     19  C   UNL d   1     -44.513  12.772  21.456  0.00  0.00     0.127 C 
BRANCH  19  20
ATOM     20  C   UNL d   1     -43.703  12.917  21.440  0.00  0.00     0.119 A 
ATOM     21  O   UNL d   1     -43.109  12.358  21.486  0.00  0.00    -0.304 OA
ATOM     22  C   UNL d   1     -42.385  12.744  21.450  0.00  0.00     0.123 A 
ATOM     23  C   UNL d   1     -42.530  13.555  21.380  0.00  0.00     0.029 A 
ATOM     24  C   UNL d   1     -43.347  13.670  21.373  0.00  0.00     0.028 A 
ENDBRANCH  19  20
ENDBRANCH  17  19
ENDBRANCH  15  16
BRANCH  15  25
ATOM     25  C   UNL d   1     -46.047  11.817  23.406  0.00  0.00     0.057 C 
BRANCH  25  26
ATOM     26  C   UNL d   1     -45.301  11.503  23.571  0.00  0.00     0.235 C 
ATOM     27  O   UNL d   1     -45.219  10.689  23.698  0.00  0.00    -0.283 OA
ENDBRANCH  25  26
ENDBRANCH  15  25
ENDBRANCH  14  15
ENDBRANCH   3  14
BRANCH   5  28
ATOM     28  C   UNL d   1     -47.527  14.448  22.946  0.00  0.00     0.085 C 
BRANCH  28  29
ATOM     29  C   UNL d   1     -48.006  15.079  22.709  0.00  0.00     0.019 C 
ATOM     30  C   UNL d   1     -47.714  15.642  22.180  0.00  0.00     0.002 C 
ENDBRANCH  28  29
ENDBRANCH   5  28
TORSDOF 9
ENDMDL
MODEL 3
REMARK VINA RESULT:      -3.3      2.000      2.610
REMARK  9 active torsions:
REMARK  status: ('A' for Active; 'I' for Inactive)
REMARK    1  A    between atoms: S_10  and  C_3 
REMARK    2  A    between atoms: C_17  and  N_5 
REMARK    3  A    between atoms: C_12  and  S_10 
REMARK    4  A    between atoms: C_11  and  C_12 
REMARK       I    between atoms: N_13  and  C_11 
REMARK    5  A    between atoms: C_26  and  C_12 
REMARK    6  A    between atoms: C_23  and  N_13 
REMARK    7  A    between atoms: C_15  and  C_23 
REMARK    8  A    between atoms: C_22  and  C_17 
REMARK    9  A    between atoms: C_30  and  C_26 
ROOT
ATOM      1  C   UNL d   1     -49.297  13.909  23.123  0.00  0.00     0.081 A 
ATOM      2  C   UNL d   1     -48.564  14.200  22.874  0.00  0.00     0.117 A 
ATOM      3  C   UNL d   1     -47.969  12.930  23.161  0.00  0.00     0.182 A 
ATOM      4  N   UNL d   1     -47.904  13.715  22.892  0.00  0.00    -0.215 NA
ATOM      5  N   UNL d   1     -48.704  12.644  23.409  0.00  0.00    -0.253 N 
ATOM      6  C   UNL d   1     -49.370  13.134  23.390  0.00  0.00     0.268 A 
ATOM      7  S   UNL d   1     -48.666  14.981  22.641  0.00  0.00    -0.068 SA
ATOM      8  C   UNL d   1     -49.853  14.513  23.044  0.00  0.00     0.013 A 
ATOM      9  C   UNL d   1     -49.458  15.175  22.746  0.00  0.00     0.031 A 
ATOM     10  O   UNL d   1     -50.102  12.843  23.639  0.00  0.00    -0.267 OA
ATOM     11  C   UNL d   1     -50.643  14.715  23.145  0.00  0.00     0.001 A 
ATOM     12  C   UNL d   1     -50.009  15.784  22.664  0.00  0.00     0.006 A 
ATOM     13  C   UNL d   1     -50.746  15.500  22.912  0.00  0.00     0.001 A 
ENDROOT
BRANCH   3  14
ATOM     14  S   UNL d   1     -47.306  12.448  23.177  0.00  0.00    -0.045 SA
BRANCH  14  15
ATOM     15  C   UNL d   1     -46.687  12.575  22.652  0.00  0.00     0.093 C 
BRANCH  15  16
ATOM     16  C   UNL d   1     -45.899  12.480  22.903  0.00  0.00     0.285 C 
ATOM     17  N   UNL d   1     -45.595  11.728  23.035  0.00  0.00    -0.204 NA
ATOM     18  O   UNL d   1     -45.428  13.146  23.017  0.00  0.00    -0.265 OA
BRANCH  17  19
ATOM     19  C   UNL d   1     -44.820  11.632  23.282  0.00  0.00     0.127 C 
BRANCH  19  20
ATOM     20  C   UNL d   1     -44.516  10.879  23.414  0.00  0.00     0.119 A 
ATOM     21  O   UNL d   1     -44.945  10.208  23.597  0.00  0.00    -0.304 OA
ATOM     22  C   UNL d   1     -44.422   9.581  23.683  0.00  0.00     0.123 A 
ATOM     23  C   UNL d   1     -43.657   9.865  23.552  0.00  0.00     0.029 A 
ATOM     24  C   UNL d   1     -43.707  10.671  23.385  0.00  0.00     0.028 A 
ENDBRANCH  19  20
ENDBRANCH  17  19
ENDBRANCH  15  16
BRANCH  15  25
ATOM     25  C   UNL d   1     -46.839  12.798  21.874  0.00  0.00     0.057 C 
BRANCH  25  26
ATOM     26  C   UNL d   1     -46.398  12.458  21.265  0.00  0.00     0.235 C 
ATOM     27  O   UNL d   1     -46.388  12.816  20.518  0.00  0.00    -0.283 OA
ENDBRANCH  25  26
ENDBRANCH  15  25
ENDBRANCH  14  15
ENDBRANCH   3  14
BRANCH   5  28
ATOM     28  C   UNL d   1     -48.771  11.867  23.675  0.00  0.00     0.085 C 
BRANCH  28  29
ATOM     29  C   UNL d   1     -49.272  11.336  23.287  0.00  0.00     0.019 C 
ATOM     30  C   UNL d   1     -49.477  10.623  23.648  0.00  0.00     0.002 C 
ENDBRANCH  28  29
ENDBRANCH   5  28
TORSDOF 9
ENDMDL
MODEL 4
REMARK VINA RESULT:      -2.9      1.151      5.068
REMARK  9 active torsions:
REMARK  status: ('A' for Active; 'I' for Inactive)
REMARK    1  A    between atoms: S_10  and  C_3 
REMARK    2  A    between atoms: C_17  and  N_5 
REMARK    3  A    between atoms: C_12  and  S_10 
REMARK    4  A    between atoms: C_11  and  C_12 
REMARK       I    between atoms: N_13  and  C_11 
REMARK    5  A    between atoms: C_26  and  C_12 
REMARK    6  A    between atoms: C_23  and  N_13 
REMARK    7  A    between atoms: C_15  and  C_23 
REMARK    8  A    between atoms: C_22  and  C_17 
REMARK    9  A    between atoms: C_30  and  C_26 
ROOT
ATOM      1  C   UNL d   1     -44.101  12.570  22.041  0.00  0.00     0.081 A 
ATOM      2  C   UNL d   1     -44.599  13.168  21.763  0.00  0.00     0.117 A 
ATOM      3  C   UNL d   1     -45.690  12.587  22.485  0.00  0.00     0.182 A 
ATOM      4  N   UNL d   1     -45.388  13.177  21.982  0.00  0.00    -0.215 NA
ATOM      5  N   UNL d   1     -45.188  11.991  22.761  0.00  0.00    -0.253 N 
ATOM      6  C   UNL d   1     -44.391  11.981  22.538  0.00  0.00     0.268 A 
ATOM      7  S   UNL d   1     -44.157  13.667  21.284  0.00  0.00    -0.068 SA
ATOM      8  C   UNL d   1     -43.347  12.700  21.733  0.00  0.00     0.013 A 
ATOM      9  C   UNL d   1     -43.386  13.381  21.264  0.00  0.00     0.031 A 
ATOM     10  O   UNL d   1     -43.893  11.384  22.816  0.00  0.00    -0.267 OA
ATOM     11  C   UNL d   1     -42.575  12.421  21.708  0.00  0.00     0.001 A 
ATOM     12  C   UNL d   1     -42.634  13.517  20.953  0.00  0.00     0.006 A 
ATOM     13  C   UNL d   1     -42.129  12.921  21.227  0.00  0.00     0.001 A 
ENDROOT
BRANCH   3  14
ATOM     14  S   UNL d   1     -46.481  12.600  22.703  0.00  0.00    -0.045 SA
BRANCH  14  15
ATOM     15  C   UNL d   1     -46.992  13.155  22.378  0.00  0.00     0.093 C 
BRANCH  15  16
ATOM     16  C   UNL d   1     -47.670  12.908  21.964  0.00  0.00     0.285 C 
ATOM     17  N   UNL d   1     -48.393  12.853  22.351  0.00  0.00    -0.204 NA
ATOM     18  O   UNL d   1     -47.609  12.720  21.164  0.00  0.00    -0.265 OA
BRANCH  17  19
ATOM     19  C   UNL d   1     -49.062  12.610  21.944  0.00  0.00     0.127 C 
BRANCH  19  20
ATOM     20  C   UNL d   1     -49.773  12.498  22.344  0.00  0.00     0.119 A 
ATOM     21  O   UNL d   1     -49.935  11.913  22.890  0.00  0.00    -0.304 OA
ATOM     22  C   UNL d   1     -50.709  12.008  23.150  0.00  0.00     0.123 A 
ATOM     23  C   UNL d   1     -51.032  12.661  22.759  0.00  0.00     0.029 A 
ATOM     24  C   UNL d   1     -50.456  12.971  22.257  0.00  0.00     0.028 A 
ENDBRANCH  19  20
ENDBRANCH  17  19
ENDBRANCH  15  16
BRANCH  15  25
ATOM     25  C   UNL d   1     -46.838  13.960  22.458  0.00  0.00     0.057 C 
BRANCH  25  26
ATOM     26  C   UNL d   1     -47.190  14.376  23.078  0.00  0.00     0.235 C 
ATOM     27  O   UNL d   1     -47.124  15.201  23.106  0.00  0.00    -0.283 OA
ENDBRANCH  25  26
ENDBRANCH  15  25
ENDBRANCH  14  15
ENDBRANCH   3  14
BRANCH   5  28
ATOM     28  C   UNL d   1     -45.484  11.405  23.258  0.00  0.00     0.085 C 
BRANCH  28  29
ATOM     29  C   UNL d   1     -45.152  10.647  23.251  0.00  0.00     0.019 C 
ATOM     30  C   UNL d   1     -45.531  10.028  23.645  0.00  0.00     0.002 C 
ENDBRANCH  28  29
ENDBRANCH   5  28
TORSDOF 9
ENDMDL
MODEL 5
REMARK VINA RESULT:      -2.8      6.203      8.202
REMARK  9 active torsions:
REMARK  status: ('A' for Active; 'I' for Inactive)
REMARK    1  A    between atoms: S_10  and  C_3 
REMARK    2  A    between atoms: C_17  and  N_5 
REMARK    3  A    between atoms: C_12  and  S_10 
REMARK    4  A    between atoms: C_11  and  C_12 
REMARK       I    between atoms: N_13  and  C_11 
REMARK    5  A    between atoms: C_26  and  C_12 
REMARK    6  A    between atoms: C_23  and  N_13 
REMARK    7  A    between atoms: C_15  and  C_23 
REMARK    8  A    between atoms: C_22  and  C_17 
REMARK    9  A    between atoms: C_30  and  C_26 
ROOT
ATOM      1  C   UNL d   1     -40.482  15.089  17.524  0.00  0.00     0.081 A 
ATOM      2  C   UNL d   1     -41.067  15.062  18.107  0.00  0.00     0.117 A 
ATOM      3  C   UNL d   1     -40.119  14.507  19.025  0.00  0.00     0.182 A 
ATOM      4  N   UNL d   1     -40.888  14.774  18.853  0.00  0.00    -0.215 NA
ATOM      5  N   UNL d   1     -39.537  14.536  18.437  0.00  0.00    -0.253 N 
ATOM      6  C   UNL d   1     -39.718  14.827  17.685  0.00  0.00     0.268 A 
ATOM      7  S   UNL d   1     -41.763  15.357  17.785  0.00  0.00    -0.068 SA
ATOM      8  C   UNL d   1     -40.818  15.402  16.838  0.00  0.00     0.013 A 
ATOM      9  C   UNL d   1     -41.611  15.566  17.004  0.00  0.00     0.031 A 
ATOM     10  O   UNL d   1     -39.135  14.854  17.102  0.00  0.00    -0.267 OA
ATOM     11  C   UNL d   1     -40.675  15.613  16.057  0.00  0.00     0.001 A 
ATOM     12  C   UNL d   1     -41.954  15.879  16.322  0.00  0.00     0.006 A 
ATOM     13  C   UNL d   1     -41.373  15.909  15.732  0.00  0.00     0.001 A 
ENDROOT
BRANCH   3  14
ATOM     14  S   UNL d   1     -39.943  14.219  19.772  0.00  0.00    -0.045 SA
BRANCH  14  15
ATOM     15  C   UNL d   1     -40.359  14.486  20.428  0.00  0.00     0.093 C 
BRANCH  15  16
ATOM     16  C   UNL d   1     -39.952  14.794  21.085  0.00  0.00     0.285 C 
ATOM     17  N   UNL d   1     -39.384  14.341  21.469  0.00  0.00    -0.204 NA
ATOM     18  O   UNL d   1     -40.124  15.556  21.347  0.00  0.00    -0.265 OA
BRANCH  17  19
ATOM     19  C   UNL d   1     -38.982  14.643  22.116  0.00  0.00     0.127 C 
BRANCH  19  20
ATOM     20  C   UNL d   1     -38.576  14.139  22.624  0.00  0.00     0.119 A 
ATOM     21  O   UNL d   1     -38.352  14.302  23.393  0.00  0.00    -0.304 OA
ATOM     22  C   UNL d   1     -37.960  13.646  23.694  0.00  0.00     0.123 A 
ATOM     23  C   UNL d   1     -37.940  13.067  23.105  0.00  0.00     0.029 A 
ATOM     24  C   UNL d   1     -38.321  13.365  22.437  0.00  0.00     0.028 A 
ENDBRANCH  19  20
ENDBRANCH  17  19
ENDBRANCH  15  16
BRANCH  15  25
ATOM     25  C   UNL d   1     -41.182  14.452  20.442  0.00  0.00     0.057 C 
BRANCH  25  26
ATOM     26  C   UNL d   1     -41.559  14.106  21.090  0.00  0.00     0.235 C 
ATOM     27  O   UNL d   1     -42.376  14.198  21.184  0.00  0.00    -0.283 OA
ENDBRANCH  25  26
ENDBRANCH  15  25
ENDBRANCH  14  15
ENDBRANCH   3  14
BRANCH   5  28
ATOM     28  C   UNL d   1     -38.774  14.273  18.605  0.00  0.00     0.085 C 
BRANCH  28  29
ATOM     29  C   UNL d   1     -38.411  13.715  18.115  0.00  0.00     0.019 C 
ATOM     30  C   UNL d   1     -38.103  13.021  18.439  0.00  0.00     0.002 C 
ENDBRANCH  28  29
ENDBRANCH   5  28
TORSDOF 9
ENDMDL
MODEL 6
REMARK VINA RESULT:      -2.2      5.294      7.609
REMARK  9 active torsions:
REMARK  status: ('A' for Active; 'I' for Inactive)
REMARK    1  A    between atoms: S_10  and  C_3 
REMARK    2  A    between atoms: C_17  and  N_5 
REMARK    3  A    between atoms: C_12  and  S_10 
REMARK    4  A    between atoms: C_11  and  C_12 
REMARK       I    between atoms: N_13  and  C_11 
REMARK    5  A    between atoms: C_26  and  C_12 
REMARK    6  A    between atoms: C_23  and  N_13 
REMARK    7  A    between atoms: C_15  and  C_23 
REMARK    8  A    between atoms: C_22  and  C_17 
REMARK    9  A    between atoms: C_30  and  C_26 
ROOT
ATOM      1  C   UNL d   1     -41.216  14.016  20.931  0.00  0.00     0.081 A 
ATOM      2  C   UNL d   1     -41.296  14.074  20.110  0.00  0.00     0.117 A 
ATOM      3  C   UNL d   1     -40.076  14.820  20.048  0.00  0.00     0.182 A 
ATOM      4  N   UNL d   1     -40.732  14.473  19.671  0.00  0.00    -0.215 NA
ATOM      5  N   UNL d   1     -40.000  14.759  20.870  0.00  0.00    -0.253 N 
ATOM      6  C   UNL d   1     -40.571  14.356  21.312  0.00  0.00     0.268 A 
ATOM      7  S   UNL d   1     -41.986  13.685  19.893  0.00  0.00    -0.068 SA
ATOM      8  C   UNL d   1     -41.859  13.589  21.222  0.00  0.00     0.013 A 
ATOM      9  C   UNL d   1     -42.333  13.386  20.576  0.00  0.00     0.031 A 
ATOM     10  O   UNL d   1     -40.490  14.298  22.132  0.00  0.00    -0.267 OA
ATOM     11  C   UNL d   1     -42.212  13.287  21.899  0.00  0.00     0.001 A 
ATOM     12  C   UNL d   1     -42.979  12.958  20.861  0.00  0.00     0.006 A 
ATOM     13  C   UNL d   1     -42.905  12.895  21.683  0.00  0.00     0.001 A 
ENDROOT
BRANCH   3  14
ATOM     14  S   UNL d   1     -39.513  15.219  19.606  0.00  0.00    -0.045 SA
BRANCH  14  15
ATOM     15  C   UNL d   1     -39.373  15.006  18.824  0.00  0.00     0.093 C 
BRANCH  15  16
ATOM     16  C   UNL d   1     -38.656  14.642  18.612  0.00  0.00     0.285 C 
ATOM     17  N   UNL d   1     -38.652  13.873  18.322  0.00  0.00    -0.204 NA
ATOM     18  O   UNL d   1     -37.950  15.059  18.695  0.00  0.00    -0.265 OA
BRANCH  17  19
ATOM     19  C   UNL d   1     -37.946  13.513  18.112  0.00  0.00     0.127 C 
BRANCH  19  20
ATOM     20  C   UNL d   1     -37.947  12.757  17.787  0.00  0.00     0.119 A 
ATOM     21  O   UNL d   1     -37.940  12.571  16.991  0.00  0.00    -0.304 OA
ATOM     22  C   UNL d   1     -37.943  11.754  16.915  0.00  0.00     0.123 A 
ATOM     23  C   UNL d   1     -37.952  11.426  17.674  0.00  0.00     0.029 A 
ATOM     24  C   UNL d   1     -37.954  12.043  18.221  0.00  0.00     0.028 A 
ENDBRANCH  19  20
ENDBRANCH  17  19
ENDBRANCH  15  16
BRANCH  15  25
ATOM     25  C   UNL d   1     -39.940  15.151  18.245  0.00  0.00     0.057 C 
BRANCH  25  26
ATOM     26  C   UNL d   1     -39.826  15.779  17.721  0.00  0.00     0.235 C 
ATOM     27  O   UNL d   1     -40.387  15.922  17.128  0.00  0.00    -0.283 OA
ENDBRANCH  25  26
ENDBRANCH  15  25
ENDBRANCH  14  15
ENDBRANCH   3  14
BRANCH   5  28
ATOM     28  C   UNL d   1     -39.352  15.102  21.246  0.00  0.00     0.085 C 
BRANCH  28  29
ATOM     29  C   UNL d   1     -39.095  14.811  21.976  0.00  0.00     0.019 C 
ATOM     30  C   UNL d   1     -38.369  15.055  22.284  0.00  0.00     0.002 C 
ENDBRANCH  28  29
ENDBRANCH   5  28
TORSDOF 9
ENDMDL
