MODEL 1
REMARK VINA RESULT:       9.1      0.000      0.000
REMARK  7 active torsions:
REMARK  status: ('A' for Active; 'I' for Inactive)
REMARK    1  A    between atoms: C_3  and  C_1 
REMARK    2  A    between atoms: O_13  and  C_1 
REMARK       I    between atoms: C_2  and  N_7 
REMARK    3  A    between atoms: C_4  and  C_2 
REMARK    4  A    between atoms: C_6  and  C_4 
REMARK    5  A    between atoms: C_5  and  C_6 
REMARK    6  A    between atoms: O_14  and  C_5 
REMARK    7  A    between atoms: N_7  and  C_9 
ROOT
ATOM      1  C   UNL d   1      13.061  13.330  -4.400  0.00  0.00     0.063 A 
ATOM      2  C   UNL d   1      13.158  13.175  -3.592  0.00  0.00     0.023 A 
ATOM      3  C   UNL d   1      13.158  12.398  -3.325  0.00  0.00     0.059 A 
ATOM      4  C   UNL d   1      12.964  12.711  -4.937  0.00  0.00     0.006 A 
ATOM      5  C   UNL d   1      12.965  11.938  -4.667  0.00  0.00     0.002 A 
ATOM      6  C   UNL d   1      13.062  11.779  -3.862  0.00  0.00     0.017 A 
ENDROOT
BRANCH   3   7
ATOM      7  N   UNL d   1      13.254  12.234  -2.524  0.00  0.00    -0.321 N 
ATOM      8  C   UNL d   1      13.960  11.939  -2.245  0.00  0.00     0.258 C 
ATOM      9  O   UNL d   1      14.572  11.807  -2.775  0.00  0.00    -0.267 OA
ATOM     10  H   UNL d   1      12.637  12.370  -2.003  0.00  0.00     0.169 HD
BRANCH   8  11
ATOM     11  C   UNL d   1      14.049  11.779  -1.454  0.00  0.00     0.067 C 
BRANCH  11  12
ATOM     12  C   UNL d   1      14.686  12.091  -1.047  0.00  0.00     0.072 C 
BRANCH  12  13
ATOM     13  C   UNL d   1      14.566  12.537  -0.363  0.00  0.00     0.178 C 
ATOM     14  O   UNL d   1      15.203  12.931  -0.019  0.00  0.00    -0.646 OA
BRANCH  13  15
ATOM     15  O   UNL d   1      13.816  12.591  -0.022  0.00  0.00    -0.773 OA
ATOM     16  H   UNL d   1      13.731  12.449   0.790  0.00  0.00     0.167 HD
ENDBRANCH  13  15
ENDBRANCH  12  13
ENDBRANCH  11  12
ENDBRANCH   8  11
ENDBRANCH   3   7
BRANCH   1  17
ATOM     17  C   UNL d   1      13.061  14.112  -4.664  0.00  0.00     0.178 C 
ATOM     18  O   UNL d   1      13.305  14.296  -5.431  0.00  0.00    -0.646 OA
BRANCH  17  19
ATOM     19  O   UNL d   1      12.815  14.713  -4.155  0.00  0.00    -0.773 OA
ATOM     20  H   UNL d   1      12.509  15.417  -4.458  0.00  0.00     0.167 HD
ENDBRANCH  17  19
ENDBRANCH   1  17
TORSDOF 7
ENDMDL
MODEL 2
REMARK VINA RESULT:      11.7      1.219      3.803
REMARK  7 active torsions:
REMARK  status: ('A' for Active; 'I' for Inactive)
REMARK    1  A    between atoms: C_3  and  C_1 
REMARK    2  A    between atoms: O_13  and  C_1 
REMARK       I    between atoms: C_2  and  N_7 
REMARK    3  A    between atoms: C_4  and  C_2 
REMARK    4  A    between atoms: C_6  and  C_4 
REMARK    5  A    between atoms: C_5  and  C_6 
REMARK    6  A    between atoms: O_14  and  C_5 
REMARK    7  A    between atoms: N_7  and  C_9 
ROOT
ATOM      1  C   UNL d   1      14.890  13.392  -0.578  0.00  0.00     0.063 A 
ATOM      2  C   UNL d   1      14.373  13.070  -1.141  0.00  0.00     0.023 A 
ATOM      3  C   UNL d   1      14.222  12.262  -1.137  0.00  0.00     0.059 A 
ATOM      4  C   UNL d   1      15.252  12.908  -0.016  0.00  0.00     0.006 A 
ATOM      5  C   UNL d   1      15.098  12.104  -0.016  0.00  0.00     0.002 A 
ATOM      6  C   UNL d   1      14.584  11.779  -0.574  0.00  0.00     0.017 A 
ENDROOT
BRANCH   3   7
ATOM      7  N   UNL d   1      13.710  11.933  -1.691  0.00  0.00    -0.321 N 
ATOM      8  C   UNL d   1      13.792  12.108  -2.482  0.00  0.00     0.258 C 
ATOM      9  O   UNL d   1      14.391  12.616  -2.716  0.00  0.00    -0.267 OA
ATOM     10  H   UNL d   1      13.114  11.427  -1.447  0.00  0.00     0.169 HD
BRANCH   8  11
ATOM     11  C   UNL d   1      13.284  11.781  -3.025  0.00  0.00     0.067 C 
BRANCH  11  12
ATOM     12  C   UNL d   1      13.483  11.781  -3.818  0.00  0.00     0.072 C 
BRANCH  12  13
ATOM     13  C   UNL d   1      13.293  12.427  -4.296  0.00  0.00     0.178 C 
ATOM     14  O   UNL d   1      12.774  13.001  -4.014  0.00  0.00    -0.646 OA
BRANCH  13  15
ATOM     15  O   UNL d   1      13.619  12.501  -5.051  0.00  0.00    -0.773 OA
ATOM     16  H   UNL d   1      14.424  12.676  -5.128  0.00  0.00     0.167 HD
ENDBRANCH  13  15
ENDBRANCH  12  13
ENDBRANCH  11  12
ENDBRANCH   8  11
ENDBRANCH   3   7
BRANCH   1  17
ATOM     17  C   UNL d   1      15.040  14.204  -0.586  0.00  0.00     0.178 C 
ATOM     18  O   UNL d   1      15.540  14.543  -0.025  0.00  0.00    -0.646 OA
BRANCH  17  19
ATOM     19  O   UNL d   1      14.684  14.677  -1.161  0.00  0.00    -0.773 OA
ATOM     20  H   UNL d   1      13.976  14.443  -1.514  0.00  0.00     0.167 HD
ENDBRANCH  17  19
ENDBRANCH   1  17
TORSDOF 7
ENDMDL
MODEL 3
REMARK VINA RESULT:      11.8      2.364      3.899
REMARK  7 active torsions:
REMARK  status: ('A' for Active; 'I' for Inactive)
REMARK    1  A    between atoms: C_3  and  C_1 
REMARK    2  A    between atoms: O_13  and  C_1 
REMARK       I    between atoms: C_2  and  N_7 
REMARK    3  A    between atoms: C_4  and  C_2 
REMARK    4  A    between atoms: C_6  and  C_4 
REMARK    5  A    between atoms: C_5  and  C_6 
REMARK    6  A    between atoms: O_14  and  C_5 
REMARK    7  A    between atoms: N_7  and  C_9 
ROOT
ATOM      1  C   UNL d   1      14.270  12.267  -1.476  0.00  0.00     0.063 A 
ATOM      2  C   UNL d   1      14.651  13.002  -1.440  0.00  0.00     0.023 A 
ATOM      3  C   UNL d   1      14.994  13.245  -0.734  0.00  0.00     0.059 A 
ATOM      4  C   UNL d   1      14.233  11.779  -0.811  0.00  0.00     0.006 A 
ATOM      5  C   UNL d   1      14.577  12.027  -0.110  0.00  0.00     0.002 A 
ATOM      6  C   UNL d   1      14.957  12.758  -0.069  0.00  0.00     0.017 A 
ENDROOT
BRANCH   3   7
ATOM      7  N   UNL d   1      15.375  13.974  -0.688  0.00  0.00    -0.321 N 
ATOM      8  C   UNL d   1      15.011  14.607  -0.328  0.00  0.00     0.258 C 
ATOM      9  O   UNL d   1      14.261  14.508  -0.014  0.00  0.00    -0.267 OA
ATOM     10  H   UNL d   1      16.125  14.063  -1.005  0.00  0.00     0.169 HD
BRANCH   8  11
ATOM     11  C   UNL d   1      15.391  15.324  -0.286  0.00  0.00     0.067 C 
BRANCH  11  12
ATOM     12  C   UNL d   1      14.979  16.012  -0.442  0.00  0.00     0.072 C 
BRANCH  12  13
ATOM     13  C   UNL d   1      15.299  16.588  -0.938  0.00  0.00     0.178 C 
ATOM     14  O   UNL d   1      14.984  16.695  -1.692  0.00  0.00    -0.646 OA
BRANCH  13  15
ATOM     15  O   UNL d   1      15.932  17.055  -0.687  0.00  0.00    -0.773 OA
ATOM     16  H   UNL d   1      15.776  17.777  -0.313  0.00  0.00     0.167 HD
ENDBRANCH  13  15
ENDBRANCH  12  13
ENDBRANCH  11  12
ENDBRANCH   8  11
ENDBRANCH   3   7
BRANCH   1  17
ATOM     17  C   UNL d   1      13.926  12.025  -2.187  0.00  0.00     0.178 C 
ATOM     18  O   UNL d   1      13.106  11.971  -2.259  0.00  0.00    -0.646 OA
BRANCH  17  19
ATOM     19  O   UNL d   1      14.409  11.838  -2.829  0.00  0.00    -0.773 OA
ATOM     20  H   UNL d   1      15.228  11.798  -2.737  0.00  0.00     0.167 HD
ENDBRANCH  17  19
ENDBRANCH   1  17
TORSDOF 7
ENDMDL
