MODEL 1
REMARK VINA RESULT:      -4.8      0.000      0.000
REMARK  3 active torsions:
REMARK  status: ('A' for Active; 'I' for Inactive)
REMARK    1  A    between atoms: C_8  and  C_1 
REMARK       I    between atoms: C_5  and  N_7 
REMARK    2  A    between atoms: C_10  and  C_5 
REMARK    3  A    between atoms: N_7  and  C_15 
ROOT
ATOM      1  C   UNL d   1      56.602   0.054  32.206  0.00  0.00     0.024 A 
ATOM      2  C   UNL d   1      56.815  -0.712  32.021  0.00  0.00     0.004 A 
ATOM      3  C   UNL d   1      56.831   0.681  31.725  0.00  0.00     0.004 A 
ATOM      4  C   UNL d   1      57.498  -0.235  30.857  0.00  0.00     0.085 A 
ATOM      5  C   UNL d   1      57.280   0.540  31.047  0.00  0.00     0.019 A 
ATOM      6  C   UNL d   1      57.265  -0.860  31.345  0.00  0.00     0.019 A 
ENDROOT
BRANCH   1   7
ATOM      7  C   UNL d   1      56.150   0.200  32.887  0.00  0.00     0.112 A 
ATOM      8  S   UNL d   1      56.452   0.287  33.662  0.00  0.00    -0.047 SA
ATOM      9  C   UNL d   1      55.807   0.425  34.170  0.00  0.00     0.130 A 
ATOM     10  N   UNL d   1      55.764   0.552  34.985  0.00  0.00    -0.236 NA
ATOM     11  C   UNL d   1      55.111   0.425  33.713  0.00  0.00     0.106 A 
ATOM     12  C   UNL d   1      55.030   0.677  35.346  0.00  0.00     0.100 A 
ATOM     13  C   UNL d   1      54.332   0.676  34.884  0.00  0.00     0.022 A 
ATOM     14  C   UNL d   1      54.380   0.549  34.072  0.00  0.00     0.023 A 
ATOM     15  N   UNL d   1      55.336   0.283  32.914  0.00  0.00    -0.237 NA
ENDBRANCH   1   7
BRANCH   4  16
ATOM     16  N   UNL d   1      57.949  -0.384  30.178  0.00  0.00    -0.206 NA
ATOM     17  C   UNL d   1      58.767  -0.288  30.203  0.00  0.00     0.302 C 
ATOM     18  O   UNL d   1      59.141  -0.045  30.895  0.00  0.00    -0.263 OA
BRANCH  17  19
ATOM     19  C   UNL d   1      59.214  -0.436  29.531  0.00  0.00     0.158 A 
ATOM     20  O   UNL d   1      59.350  -1.175  29.186  0.00  0.00    -0.300 OA
ATOM     21  C   UNL d   1      59.825  -1.058  28.526  0.00  0.00     0.123 A 
ATOM     22  C   UNL d   1      59.988  -0.248  28.456  0.00  0.00     0.029 A 
ATOM     23  C   UNL d   1      59.611   0.139  29.076  0.00  0.00     0.032 A 
ENDBRANCH  17  19
ENDBRANCH   4  16
TORSDOF 3
ENDMDL
MODEL 2
REMARK VINA RESULT:      -4.6      1.740      5.554
REMARK  3 active torsions:
REMARK  status: ('A' for Active; 'I' for Inactive)
REMARK    1  A    between atoms: C_8  and  C_1 
REMARK       I    between atoms: C_5  and  N_7 
REMARK    2  A    between atoms: C_10  and  C_5 
REMARK    3  A    between atoms: N_7  and  C_15 
ROOT
ATOM      1  C   UNL d   1      57.611  -0.338  30.879  0.00  0.00     0.024 A 
ATOM      2  C   UNL d   1      57.421   0.440  31.037  0.00  0.00     0.004 A 
ATOM      3  C   UNL d   1      57.231  -0.951  31.276  0.00  0.00     0.004 A 
ATOM      4  C   UNL d   1      56.458   0.005  32.002  0.00  0.00     0.085 A 
ATOM      5  C   UNL d   1      56.652  -0.783  31.840  0.00  0.00     0.019 A 
ATOM      6  C   UNL d   1      56.844   0.616  31.600  0.00  0.00     0.019 A 
ENDROOT
BRANCH   1   7
ATOM      7  C   UNL d   1      58.192  -0.511  30.313  0.00  0.00     0.112 A 
ATOM      8  S   UNL d   1      58.349  -1.267  29.992  0.00  0.00    -0.047 SA
ATOM      9  C   UNL d   1      58.973  -1.185  29.447  0.00  0.00     0.130 A 
ATOM     10  N   UNL d   1      59.361  -1.733  28.966  0.00  0.00    -0.236 NA
ATOM     11  C   UNL d   1      59.201  -0.384  29.430  0.00  0.00     0.106 A 
ATOM     12  C   UNL d   1      59.975  -1.487  28.469  0.00  0.00     0.100 A 
ATOM     13  C   UNL d   1      60.201  -0.681  28.455  0.00  0.00     0.022 A 
ATOM     14  C   UNL d   1      59.812  -0.138  28.936  0.00  0.00     0.023 A 
ATOM     15  N   UNL d   1      58.707   0.028  29.974  0.00  0.00    -0.237 NA
ENDBRANCH   1   7
BRANCH   4  16
ATOM     16  N   UNL d   1      55.878   0.182  32.568  0.00  0.00    -0.206 NA
ATOM     17  C   UNL d   1      56.086   0.227  33.363  0.00  0.00     0.302 C 
ATOM     18  O   UNL d   1      56.863   0.100  33.604  0.00  0.00    -0.263 OA
BRANCH  17  19
ATOM     19  C   UNL d   1      55.511   0.402  33.923  0.00  0.00     0.158 A 
ATOM     20  O   UNL d   1      54.706   0.521  33.778  0.00  0.00    -0.300 OA
ATOM     21  C   UNL d   1      54.345   0.681  34.499  0.00  0.00     0.123 A 
ATOM     22  C   UNL d   1      54.921   0.664  35.095  0.00  0.00     0.029 A 
ATOM     23  C   UNL d   1      55.643   0.491  34.742  0.00  0.00     0.032 A 
ENDBRANCH  17  19
ENDBRANCH   4  16
TORSDOF 3
ENDMDL
