MODEL 1
REMARK VINA RESULT:      -3.4      0.000      0.000
REMARK  5 active torsions:
REMARK  status: ('A' for Active; 'I' for Inactive)
REMARK    1  A    between atoms: C_7  and  N_2 
REMARK    2  A    between atoms: C_14  and  C_7 
REMARK    3  A    between atoms: O_10  and  C_9 
REMARK    4  A    between atoms: C_11  and  O_10 
REMARK    5  A    between atoms: C_13  and  C_11 
ROOT
ATOM      1  C   UNL d   1      31.072  16.417 -24.737  0.00  0.00     0.265 A 
ATOM      2  N   UNL d   1      30.388  16.871 -24.652  0.00  0.00    -0.272 N 
ATOM      3  C   UNL d   1      31.791  16.707 -24.468  0.00  0.00     0.059 A 
ATOM      4  C   UNL d   1      31.832  17.451 -24.114  0.00  0.00     0.029 A 
ATOM      5  C   UNL d   1      31.152  17.905 -24.028  0.00  0.00     0.021 A 
ATOM      6  C   UNL d   1      30.428  17.615 -24.298  0.00  0.00     0.083 A 
ATOM      7  O   UNL d   1      31.032  15.673 -25.091  0.00  0.00    -0.267 OA
ATOM      8  C   UNL d   1      32.556  17.741 -23.844  0.00  0.00     0.100 A 
ATOM      9  C   UNL d   1      32.476  16.254 -24.553  0.00  0.00     0.005 A 
ATOM     10  C   UNL d   1      33.200  16.543 -24.283  0.00  0.00     0.002 A 
ATOM     11  C   UNL d   1      33.240  17.287 -23.929  0.00  0.00     0.025 A 
ENDROOT
BRANCH   8  12
ATOM     12  O   UNL d   1      32.596  18.485 -23.489  0.00  0.00    -0.305 OA
BRANCH  12  13
ATOM     13  C   UNL d   1      33.197  18.652 -22.949  0.00  0.00     0.122 C 
BRANCH  13  14
ATOM     14  C   UNL d   1      33.205  19.376 -22.552  0.00  0.00     0.025 A 
ATOM     15  C   UNL d   1      33.185  20.082 -22.980  0.00  0.00     0.004 A 
ATOM     16  C   UNL d   1      33.193  20.805 -22.583  0.00  0.00     0.030 A 
ATOM     17  C   UNL d   1      33.221  20.822 -21.759  0.00  0.00     0.140 A 
ATOM     18  C   UNL d   1      33.241  20.117 -21.331  0.00  0.00     0.030 A 
ATOM     19  F   UNL d   1      33.229  21.546 -21.362  0.00  0.00    -0.204 F 
ATOM     20  C   UNL d   1      33.233  19.394 -21.727  0.00  0.00     0.004 A 
ENDBRANCH  13  14
ENDBRANCH  12  13
ENDBRANCH   8  12
BRANCH   2  21
ATOM     21  C   UNL d   1      29.658  16.574 -24.926  0.00  0.00     0.083 C 
BRANCH  21  22
ATOM     22  C   UNL d   1      29.041  16.433 -24.398  0.00  0.00     0.018 A 
ATOM     23  C   UNL d   1      28.553  17.055 -24.165  0.00  0.00     0.002 A 
ATOM     24  C   UNL d   1      27.936  16.914 -23.636  0.00  0.00     0.000 A 
ATOM     25  C   UNL d   1      27.809  16.153 -23.342  0.00  0.00     0.000 A 
ATOM     26  C   UNL d   1      28.299  15.537 -23.578  0.00  0.00     0.000 A 
ATOM     27  C   UNL d   1      28.916  15.678 -24.107  0.00  0.00     0.002 A 
ENDBRANCH  21  22
ENDBRANCH   2  21
TORSDOF 5
ENDMDL
MODEL 2
REMARK VINA RESULT:      -1.2      3.070      5.667
REMARK  5 active torsions:
REMARK  status: ('A' for Active; 'I' for Inactive)
REMARK    1  A    between atoms: C_7  and  N_2 
REMARK    2  A    between atoms: C_14  and  C_7 
REMARK    3  A    between atoms: O_10  and  C_9 
REMARK    4  A    between atoms: C_11  and  O_10 
REMARK    5  A    between atoms: C_13  and  C_11 
ROOT
ATOM      1  C   UNL d   1      33.237  22.137 -23.187  0.00  0.00     0.265 A 
ATOM      2  N   UNL d   1      33.235  22.003 -22.373  0.00  0.00    -0.272 N 
ATOM      3  C   UNL d   1      33.238  21.501 -23.706  0.00  0.00     0.059 A 
ATOM      4  C   UNL d   1      33.238  20.729 -23.416  0.00  0.00     0.029 A 
ATOM      5  C   UNL d   1      33.236  20.593 -22.606  0.00  0.00     0.021 A 
ATOM      6  C   UNL d   1      33.235  21.231 -22.082  0.00  0.00     0.083 A 
ATOM      7  O   UNL d   1      33.237  22.909 -23.478  0.00  0.00    -0.267 OA
ATOM      8  C   UNL d   1      33.239  20.091 -23.939  0.00  0.00     0.100 A 
ATOM      9  C   UNL d   1      33.240  21.635 -24.521  0.00  0.00     0.005 A 
ATOM     10  C   UNL d   1      33.241  20.998 -25.045  0.00  0.00     0.002 A 
ATOM     11  C   UNL d   1      33.241  20.226 -24.754  0.00  0.00     0.025 A 
ENDROOT
BRANCH   8  12
ATOM     12  O   UNL d   1      33.239  19.319 -23.649  0.00  0.00    -0.305 OA
BRANCH  12  13
ATOM     13  C   UNL d   1      32.908  18.710 -24.097  0.00  0.00     0.122 C 
BRANCH  13  14
ATOM     14  C   UNL d   1      32.963  17.929 -23.836  0.00  0.00     0.025 A 
ATOM     15  C   UNL d   1      33.184  17.769 -23.056  0.00  0.00     0.004 A 
ATOM     16  C   UNL d   1      33.238  16.989 -22.795  0.00  0.00     0.030 A 
ATOM     17  C   UNL d   1      33.072  16.368 -23.313  0.00  0.00     0.140 A 
ATOM     18  C   UNL d   1      32.852  16.527 -24.092  0.00  0.00     0.030 A 
ATOM     19  F   UNL d   1      33.127  15.588 -23.051  0.00  0.00    -0.204 F 
ATOM     20  C   UNL d   1      32.797  17.308 -24.353  0.00  0.00     0.004 A 
ENDBRANCH  13  14
ENDBRANCH  12  13
ENDBRANCH   8  12
BRANCH   2  21
ATOM     21  C   UNL d   1      33.234  22.651 -21.847  0.00  0.00     0.083 C 
BRANCH  21  22
ATOM     22  C   UNL d   1      32.756  22.641 -21.175  0.00  0.00     0.018 A 
ATOM     23  C   UNL d   1      32.879  22.069 -20.595  0.00  0.00     0.002 A 
ATOM     24  C   UNL d   1      32.401  22.059 -19.923  0.00  0.00     0.000 A 
ATOM     25  C   UNL d   1      31.802  22.621 -19.834  0.00  0.00     0.000 A 
ATOM     26  C   UNL d   1      31.685  23.188 -20.415  0.00  0.00     0.000 A 
ATOM     27  C   UNL d   1      32.163  23.198 -21.088  0.00  0.00     0.002 A 
ENDBRANCH  21  22
ENDBRANCH   2  21
TORSDOF 5
ENDMDL
