MODEL 1
REMARK VINA RESULT:      -9.2      0.000      0.000
REMARK  5 active torsions:
REMARK  status: ('A' for Active; 'I' for Inactive)
REMARK    1  A    between atoms: C_2  and  S_1 
REMARK    2  A    between atoms: N_4  and  S_1 
REMARK    3  A    between atoms: C_10  and  C_9 
REMARK       I    between atoms: N_15  and  C_10 
REMARK    4  A    between atoms: C_24  and  N_15 
REMARK    5  A    between atoms: C_16  and  C_24 
ROOT
ATOM      1  N   UNL d   1     -50.123  12.666  22.485  0.00  0.00    -0.229 N 
ATOM      2  C   UNL d   1     -49.013  12.015  23.097  0.00  0.00     0.076 A 
ATOM      3  C   UNL d   1     -49.309  12.517  22.534  0.00  0.00     0.096 A 
ATOM      4  C   UNL d   1     -50.626  12.300  23.010  0.00  0.00     0.092 A 
ATOM      5  C   UNL d   1     -49.541  11.635  23.644  0.00  0.00     0.008 A 
ATOM      6  C   UNL d   1     -50.349  11.791  23.584  0.00  0.00     0.020 A 
ENDROOT
BRANCH   1   7
ATOM      7  S   UNL d   1     -50.412  13.184  21.901  0.00  0.00     0.273 S 
ATOM      8  O   UNL d   1     -50.700  13.699  21.326  0.00  0.00    -0.200 OA
ATOM      9  O   UNL d   1     -50.339  12.591  21.328  0.00  0.00    -0.200 OA
BRANCH   7  10
ATOM     10  C   UNL d   1     -50.488  13.782  22.471  0.00  0.00     0.125 A 
ATOM     11  C   UNL d   1     -50.079  14.489  22.398  0.00  0.00     0.142 A 
ATOM     12  C   UNL d   1     -50.160  15.082  22.971  0.00  0.00     0.131 A 
ATOM     13  N   UNL d   1     -49.555  14.753  21.816  0.00  0.00    -0.101 NA
ATOM     14  N   UNL d   1     -49.684  15.715  22.741  0.00  0.00    -0.102 NA
ATOM     15  C   UNL d   1     -50.646  14.968  23.610  0.00  0.00     0.023 A 
ATOM     16  O   UNL d   1     -49.314  15.515  22.037  0.00  0.00    -0.106 OA
ATOM     17  C   UNL d   1     -51.064  14.263  23.698  0.00  0.00     0.002 A 
ATOM     18  C   UNL d   1     -50.984  13.667  23.123  0.00  0.00     0.015 A 
ENDBRANCH   7  10
ENDBRANCH   1   7
BRANCH   2  19
ATOM     19  C   UNL d   1     -48.210  11.859  23.156  0.00  0.00     0.281 C 
ATOM     20  N   UNL d   1     -47.661  12.471  23.188  0.00  0.00    -0.204 NA
ATOM     21  O   UNL d   1     -47.958  11.070  23.184  0.00  0.00    -0.265 OA
BRANCH  20  22
ATOM     22  C   UNL d   1     -46.834  12.296  23.249  0.00  0.00     0.127 C 
BRANCH  22  23
ATOM     23  C   UNL d   1     -46.266  12.849  22.951  0.00  0.00     0.119 A 
ATOM     24  O   UNL d   1     -46.272  13.663  23.084  0.00  0.00    -0.304 OA
ATOM     25  C   UNL d   1     -45.621  13.991  22.693  0.00  0.00     0.123 A 
ATOM     26  C   UNL d   1     -45.216  13.379  22.319  0.00  0.00     0.029 A 
ATOM     27  C   UNL d   1     -45.618  12.672  22.481  0.00  0.00     0.028 A 
ENDBRANCH  22  23
ENDBRANCH  20  22
ENDBRANCH   2  19
TORSDOF 5
ENDMDL
MODEL 2
REMARK VINA RESULT:      -9.1      1.547      2.686
REMARK  5 active torsions:
REMARK  status: ('A' for Active; 'I' for Inactive)
REMARK    1  A    between atoms: C_2  and  S_1 
REMARK    2  A    between atoms: N_4  and  S_1 
REMARK    3  A    between atoms: C_10  and  C_9 
REMARK       I    between atoms: N_15  and  C_10 
REMARK    4  A    between atoms: C_24  and  N_15 
REMARK    5  A    between atoms: C_16  and  C_24 
ROOT
ATOM      1  N   UNL d   1     -48.286  13.426  22.003  0.00  0.00    -0.229 N 
ATOM      2  C   UNL d   1     -47.017  13.566  22.637  0.00  0.00     0.076 A 
ATOM      3  C   UNL d   1     -47.563  13.106  22.252  0.00  0.00     0.096 A 
ATOM      4  C   UNL d   1     -48.445  14.212  22.149  0.00  0.00     0.092 A 
ATOM      5  C   UNL d   1     -47.186  14.385  22.787  0.00  0.00     0.008 A 
ATOM      6  C   UNL d   1     -47.909  14.691  22.534  0.00  0.00     0.020 A 
ENDROOT
BRANCH   1   7
ATOM      7  S   UNL d   1     -48.837  12.943  21.610  0.00  0.00     0.273 S 
ATOM      8  O   UNL d   1     -49.385  12.463  21.222  0.00  0.00    -0.200 OA
ATOM      9  O   UNL d   1     -48.372  12.956  20.926  0.00  0.00    -0.200 OA
BRANCH   7  10
ATOM     10  C   UNL d   1     -49.309  12.925  22.292  0.00  0.00     0.125 A 
ATOM     11  C   UNL d   1     -49.412  12.230  22.716  0.00  0.00     0.142 A 
ATOM     12  C   UNL d   1     -49.884  12.221  23.396  0.00  0.00     0.131 A 
ATOM     13  N   UNL d   1     -49.113  11.470  22.590  0.00  0.00    -0.101 NA
ATOM     14  N   UNL d   1     -49.877  11.450  23.692  0.00  0.00    -0.102 NA
ATOM     15  C   UNL d   1     -50.250  12.899  23.650  0.00  0.00     0.023 A 
ATOM     16  O   UNL d   1     -49.406  10.992  23.200  0.00  0.00    -0.106 OA
ATOM     17  C   UNL d   1     -50.156  13.605  23.234  0.00  0.00     0.002 A 
ATOM     18  C   UNL d   1     -49.682  13.616  22.551  0.00  0.00     0.015 A 
ENDBRANCH   7  10
ENDBRANCH   1   7
BRANCH   2  19
ATOM     19  C   UNL d   1     -46.299  13.261  22.889  0.00  0.00     0.281 C 
ATOM     20  N   UNL d   1     -45.693  13.110  22.354  0.00  0.00    -0.204 NA
ATOM     21  O   UNL d   1     -46.192  13.107  23.696  0.00  0.00    -0.265 OA
BRANCH  20  22
ATOM     22  C   UNL d   1     -44.954  12.796  22.628  0.00  0.00     0.127 C 
BRANCH  22  23
ATOM     23  C   UNL d   1     -44.301  12.736  22.092  0.00  0.00     0.119 A 
ATOM     24  O   UNL d   1     -43.711  12.160  22.114  0.00  0.00    -0.304 OA
ATOM     25  C   UNL d   1     -43.185  12.307  21.494  0.00  0.00     0.123 A 
ATOM     26  C   UNL d   1     -43.452  12.974  21.090  0.00  0.00     0.029 A 
ATOM     27  C   UNL d   1     -44.144  13.238  21.463  0.00  0.00     0.028 A 
ENDBRANCH  22  23
ENDBRANCH  20  22
ENDBRANCH   2  19
TORSDOF 5
ENDMDL
MODEL 3
REMARK VINA RESULT:      -8.8      1.037      1.543
REMARK  5 active torsions:
REMARK  status: ('A' for Active; 'I' for Inactive)
REMARK    1  A    between atoms: C_2  and  S_1 
REMARK    2  A    between atoms: N_4  and  S_1 
REMARK    3  A    between atoms: C_10  and  C_9 
REMARK       I    between atoms: N_15  and  C_10 
REMARK    4  A    between atoms: C_24  and  N_15 
REMARK    5  A    between atoms: C_16  and  C_24 
ROOT
ATOM      1  N   UNL d   1     -48.973  12.816  22.211  0.00  0.00    -0.229 N 
ATOM      2  C   UNL d   1     -47.661  12.916  22.758  0.00  0.00     0.076 A 
ATOM      3  C   UNL d   1     -48.242  13.202  22.271  0.00  0.00     0.096 A 
ATOM      4  C   UNL d   1     -49.103  12.141  22.648  0.00  0.00     0.092 A 
ATOM      5  C   UNL d   1     -47.800  12.212  23.213  0.00  0.00     0.008 A 
ATOM      6  C   UNL d   1     -48.531  11.836  23.144  0.00  0.00     0.020 A 
ENDROOT
BRANCH   1   7
ATOM      7  S   UNL d   1     -49.560  13.121  21.707  0.00  0.00     0.273 S 
ATOM      8  O   UNL d   1     -50.144  13.425  21.210  0.00  0.00    -0.200 OA
ATOM      9  O   UNL d   1     -49.167  12.811  21.048  0.00  0.00    -0.200 OA
BRANCH   7  10
ATOM     10  C   UNL d   1     -49.960  13.435  22.363  0.00  0.00     0.125 A 
ATOM     11  C   UNL d   1     -50.063  14.244  22.447  0.00  0.00     0.142 A 
ATOM     12  C   UNL d   1     -50.463  14.549  23.105  0.00  0.00     0.131 A 
ATOM     13  N   UNL d   1     -49.827  14.873  21.966  0.00  0.00    -0.101 NA
ATOM     14  N   UNL d   1     -50.474  15.371  23.030  0.00  0.00    -0.102 NA
ATOM     15  C   UNL d   1     -50.757  14.050  23.673  0.00  0.00     0.023 A 
ATOM     16  O   UNL d   1     -50.086  15.569  22.334  0.00  0.00    -0.106 OA
ATOM     17  C   UNL d   1     -50.661  13.233  23.602  0.00  0.00     0.002 A 
ATOM     18  C   UNL d   1     -50.260  12.926  22.941  0.00  0.00     0.015 A 
ENDBRANCH   7  10
ENDBRANCH   1   7
BRANCH   2  19
ATOM     19  C   UNL d   1     -46.933  13.289  22.826  0.00  0.00     0.281 C 
ATOM     20  N   UNL d   1     -46.278  13.016  22.412  0.00  0.00    -0.204 NA
ATOM     21  O   UNL d   1     -46.869  13.949  23.323  0.00  0.00    -0.265 OA
BRANCH  20  22
ATOM     22  C   UNL d   1     -45.531  13.411  22.492  0.00  0.00     0.127 C 
BRANCH  22  23
ATOM     23  C   UNL d   1     -44.832  13.051  22.178  0.00  0.00     0.119 A 
ATOM     24  O   UNL d   1     -44.466  12.373  22.473  0.00  0.00    -0.304 OA
ATOM     25  C   UNL d   1     -43.804  12.215  22.005  0.00  0.00     0.123 A 
ATOM     26  C   UNL d   1     -43.762  12.795  21.422  0.00  0.00     0.029 A 
ATOM     27  C   UNL d   1     -44.401  13.312  21.532  0.00  0.00     0.028 A 
ENDBRANCH  22  23
ENDBRANCH  20  22
ENDBRANCH   2  19
TORSDOF 5
ENDMDL
MODEL 4
REMARK VINA RESULT:      -8.4      1.538      2.693
REMARK  5 active torsions:
REMARK  status: ('A' for Active; 'I' for Inactive)
REMARK    1  A    between atoms: C_2  and  S_1 
REMARK    2  A    between atoms: N_4  and  S_1 
REMARK    3  A    between atoms: C_10  and  C_9 
REMARK       I    between atoms: N_15  and  C_10 
REMARK    4  A    between atoms: C_24  and  N_15 
REMARK    5  A    between atoms: C_16  and  C_24 
ROOT
ATOM      1  N   UNL d   1     -48.459  13.451  21.988  0.00  0.00    -0.229 N 
ATOM      2  C   UNL d   1     -47.198  13.649  22.622  0.00  0.00     0.076 A 
ATOM      3  C   UNL d   1     -47.729  13.161  22.251  0.00  0.00     0.096 A 
ATOM      4  C   UNL d   1     -48.641  14.237  22.106  0.00  0.00     0.092 A 
ATOM      5  C   UNL d   1     -47.391  14.468  22.743  0.00  0.00     0.008 A 
ATOM      6  C   UNL d   1     -48.121  14.744  22.477  0.00  0.00     0.020 A 
ENDROOT
BRANCH   1   7
ATOM      7  S   UNL d   1     -48.994  12.939  21.609  0.00  0.00     0.273 S 
ATOM      8  O   UNL d   1     -49.526  12.431  21.236  0.00  0.00    -0.200 OA
ATOM      9  O   UNL d   1     -48.511  12.919  20.938  0.00  0.00    -0.200 OA
BRANCH   7  10
ATOM     10  C   UNL d   1     -49.484  12.954  22.279  0.00  0.00     0.125 A 
ATOM     11  C   UNL d   1     -49.622  12.274  22.716  0.00  0.00     0.142 A 
ATOM     12  C   UNL d   1     -50.112  12.298  23.384  0.00  0.00     0.131 A 
ATOM     13  N   UNL d   1     -49.348  11.501  22.617  0.00  0.00    -0.101 NA
ATOM     14  N   UNL d   1     -50.140  11.535  23.698  0.00  0.00    -0.102 NA
ATOM     15  C   UNL d   1     -50.459  12.995  23.611  0.00  0.00     0.023 A 
ATOM     16  O   UNL d   1     -49.673  11.049  23.230  0.00  0.00    -0.106 OA
ATOM     17  C   UNL d   1     -50.329  13.687  23.182  0.00  0.00     0.002 A 
ATOM     18  C   UNL d   1     -49.838  13.664  22.511  0.00  0.00     0.015 A 
ENDBRANCH   7  10
ENDBRANCH   1   7
BRANCH   2  19
ATOM     19  C   UNL d   1     -46.472  13.375  22.887  0.00  0.00     0.281 C 
ATOM     20  N   UNL d   1     -46.385  12.603  23.158  0.00  0.00    -0.204 NA
ATOM     21  O   UNL d   1     -45.823  13.891  22.877  0.00  0.00    -0.265 OA
BRANCH  20  22
ATOM     22  C   UNL d   1     -45.628  12.333  23.429  0.00  0.00     0.127 C 
BRANCH  22  23
ATOM     23  C   UNL d   1     -45.492  11.502  23.526  0.00  0.00     0.119 A 
ATOM     24  O   UNL d   1     -44.756  11.143  23.622  0.00  0.00    -0.304 OA
ATOM     25  C   UNL d   1     -44.875  10.329  23.698  0.00  0.00     0.123 A 
ATOM     26  C   UNL d   1     -45.685  10.187  23.648  0.00  0.00     0.029 A 
ATOM     27  C   UNL d   1     -46.065  10.917  23.542  0.00  0.00     0.028 A 
ENDBRANCH  22  23
ENDBRANCH  20  22
ENDBRANCH   2  19
TORSDOF 5
ENDMDL
MODEL 5
REMARK VINA RESULT:      -7.1      9.594     10.684
REMARK  5 active torsions:
REMARK  status: ('A' for Active; 'I' for Inactive)
REMARK    1  A    between atoms: C_2  and  S_1 
REMARK    2  A    between atoms: N_4  and  S_1 
REMARK    3  A    between atoms: C_10  and  C_9 
REMARK       I    between atoms: N_15  and  C_10 
REMARK    4  A    between atoms: C_24  and  N_15 
REMARK    5  A    between atoms: C_16  and  C_24 
ROOT
ATOM      1  N   UNL d   1     -40.320  14.722  18.739  0.00  0.00    -0.229 N 
ATOM      2  C   UNL d   1     -39.551  15.157  19.857  0.00  0.00     0.076 A 
ATOM      3  C   UNL d   1     -39.687  14.620  19.265  0.00  0.00     0.096 A 
ATOM      4  C   UNL d   1     -40.806  15.370  18.821  0.00  0.00     0.092 A 
ATOM      5  C   UNL d   1     -40.061  15.832  19.941  0.00  0.00     0.008 A 
ATOM      6  C   UNL d   1     -40.686  15.922  19.410  0.00  0.00     0.020 A 
ENDROOT
BRANCH   1   7
ATOM      7  S   UNL d   1     -40.447  14.163  18.135  0.00  0.00     0.273 S 
ATOM      8  O   UNL d   1     -40.573  13.611  17.536  0.00  0.00    -0.200 OA
ATOM      9  O   UNL d   1     -40.817  13.656  18.674  0.00  0.00    -0.200 OA
BRANCH   7  10
ATOM     10  C   UNL d   1     -40.078  14.668  17.590  0.00  0.00     0.125 A 
ATOM     11  C   UNL d   1     -39.392  14.440  17.202  0.00  0.00     0.142 A 
ATOM     12  C   UNL d   1     -39.030  14.950  16.659  0.00  0.00     0.131 A 
ATOM     13  N   UNL d   1     -38.950  13.744  17.247  0.00  0.00    -0.101 NA
ATOM     14  N   UNL d   1     -38.360  14.565  16.367  0.00  0.00    -0.102 NA
ATOM     15  C   UNL d   1     -39.350  15.679  16.505  0.00  0.00     0.023 A 
ATOM     16  O   UNL d   1     -38.311  13.829  16.726  0.00  0.00    -0.106 OA
ATOM     17  C   UNL d   1     -40.039  15.922  16.888  0.00  0.00     0.002 A 
ATOM     18  C   UNL d   1     -40.404  15.411  17.433  0.00  0.00     0.015 A 
ENDBRANCH   7  10
ENDBRANCH   1   7
BRANCH   2  19
ATOM     19  C   UNL d   1     -38.930  15.068  20.385  0.00  0.00     0.281 C 
ATOM     20  N   UNL d   1     -39.012  14.609  21.062  0.00  0.00    -0.204 NA
ATOM     21  O   UNL d   1     -38.213  15.452  20.224  0.00  0.00    -0.265 OA
BRANCH  20  22
ATOM     22  C   UNL d   1     -38.361  14.525  21.599  0.00  0.00     0.127 C 
BRANCH  22  23
ATOM     23  C   UNL d   1     -38.494  14.198  22.369  0.00  0.00     0.119 A 
ATOM     24  O   UNL d   1     -38.476  14.616  23.079  0.00  0.00    -0.304 OA
ATOM     25  C   UNL d   1     -38.634  14.085  23.693  0.00  0.00     0.123 A 
ATOM     26  C   UNL d   1     -38.749  13.341  23.360  0.00  0.00     0.029 A 
ATOM     27  C   UNL d   1     -38.661  13.413  22.538  0.00  0.00     0.028 A 
ENDBRANCH  22  23
ENDBRANCH  20  22
ENDBRANCH   2  19
TORSDOF 5
ENDMDL
MODEL 6
REMARK VINA RESULT:      -6.6      8.851     10.442
REMARK  5 active torsions:
REMARK  status: ('A' for Active; 'I' for Inactive)
REMARK    1  A    between atoms: C_2  and  S_1 
REMARK    2  A    between atoms: N_4  and  S_1 
REMARK    3  A    between atoms: C_10  and  C_9 
REMARK       I    between atoms: N_15  and  C_10 
REMARK    4  A    between atoms: C_24  and  N_15 
REMARK    5  A    between atoms: C_16  and  C_24 
ROOT
ATOM      1  N   UNL d   1     -40.697  14.700  20.399  0.00  0.00    -0.229 N 
ATOM      2  C   UNL d   1     -40.568  14.739  18.980  0.00  0.00     0.076 A 
ATOM      3  C   UNL d   1     -40.529  14.328  19.678  0.00  0.00     0.096 A 
ATOM      4  C   UNL d   1     -40.902  15.489  20.401  0.00  0.00     0.092 A 
ATOM      5  C   UNL d   1     -40.782  15.561  18.986  0.00  0.00     0.008 A 
ATOM      6  C   UNL d   1     -40.947  15.920  19.710  0.00  0.00     0.020 A 
ENDROOT
BRANCH   1   7
ATOM      7  S   UNL d   1     -40.653  14.266  21.107  0.00  0.00     0.273 S 
ATOM      8  O   UNL d   1     -40.607  13.837  21.810  0.00  0.00    -0.200 OA
ATOM      9  O   UNL d   1     -41.358  13.875  20.920  0.00  0.00    -0.200 OA
BRANCH   7  10
ATOM     10  C   UNL d   1     -39.946  14.654  21.301  0.00  0.00     0.125 A 
ATOM     11  C   UNL d   1     -39.243  14.238  21.376  0.00  0.00     0.142 A 
ATOM     12  C   UNL d   1     -38.541  14.633  21.571  0.00  0.00     0.131 A 
ATOM     13  N   UNL d   1     -39.078  13.433  21.290  0.00  0.00    -0.101 NA
ATOM     14  N   UNL d   1     -37.940  14.068  21.604  0.00  0.00    -0.102 NA
ATOM     15  C   UNL d   1     -38.543  15.435  21.688  0.00  0.00     0.023 A 
ATOM     16  O   UNL d   1     -38.268  13.336  21.432  0.00  0.00    -0.106 OA
ATOM     17  C   UNL d   1     -39.242  15.867  21.617  0.00  0.00     0.002 A 
ATOM     18  C   UNL d   1     -39.947  15.472  21.422  0.00  0.00     0.015 A 
ENDBRANCH   7  10
ENDBRANCH   1   7
BRANCH   2  19
ATOM     19  C   UNL d   1     -40.404  14.382  18.260  0.00  0.00     0.281 C 
ATOM     20  N   UNL d   1     -39.726  14.573  17.837  0.00  0.00    -0.204 NA
ATOM     21  O   UNL d   1     -40.938  13.822  17.963  0.00  0.00    -0.265 OA
BRANCH  20  22
ATOM     22  C   UNL d   1     -39.569  14.197  17.094  0.00  0.00     0.127 C 
BRANCH  22  23
ATOM     23  C   UNL d   1     -38.931  14.475  16.611  0.00  0.00     0.119 A 
ATOM     24  O   UNL d   1     -38.620  15.239  16.617  0.00  0.00    -0.304 OA
ATOM     25  C   UNL d   1     -38.007  15.270  16.063  0.00  0.00     0.123 A 
ATOM     26  C   UNL d   1     -37.941  14.526  15.716  0.00  0.00     0.029 A 
ATOM     27  C   UNL d   1     -38.515  14.035  16.058  0.00  0.00     0.028 A 
ENDBRANCH  22  23
ENDBRANCH  20  22
ENDBRANCH   2  19
TORSDOF 5
ENDMDL
MODEL 7
REMARK VINA RESULT:      -6.3      1.708      2.989
REMARK  5 active torsions:
REMARK  status: ('A' for Active; 'I' for Inactive)
REMARK    1  A    between atoms: C_2  and  S_1 
REMARK    2  A    between atoms: N_4  and  S_1 
REMARK    3  A    between atoms: C_10  and  C_9 
REMARK       I    between atoms: N_15  and  C_10 
REMARK    4  A    between atoms: C_24  and  N_15 
REMARK    5  A    between atoms: C_16  and  C_24 
ROOT
ATOM      1  N   UNL d   1     -47.519  13.310  23.091  0.00  0.00    -0.229 N 
ATOM      2  C   UNL d   1     -46.329  12.876  22.439  0.00  0.00     0.076 A 
ATOM      3  C   UNL d   1     -46.986  13.351  22.458  0.00  0.00     0.096 A 
ATOM      4  C   UNL d   1     -47.377  12.786  23.698  0.00  0.00     0.092 A 
ATOM      5  C   UNL d   1     -46.184  12.330  23.074  0.00  0.00     0.008 A 
ATOM      6  C   UNL d   1     -46.723  12.299  23.698  0.00  0.00     0.020 A 
ENDROOT
BRANCH   1   7
ATOM      7  S   UNL d   1     -48.189  13.804  23.097  0.00  0.00     0.273 S 
ATOM      8  O   UNL d   1     -48.855  14.290  23.103  0.00  0.00    -0.200 OA
ATOM      9  O   UNL d   1     -47.712  14.463  23.248  0.00  0.00    -0.200 OA
BRANCH   7  10
ATOM     10  C   UNL d   1     -48.674  13.147  22.947  0.00  0.00     0.125 A 
ATOM     11  C   UNL d   1     -49.131  13.107  22.267  0.00  0.00     0.142 A 
ATOM     12  C   UNL d   1     -49.612  12.448  22.124  0.00  0.00     0.131 A 
ATOM     13  N   UNL d   1     -49.216  13.638  21.640  0.00  0.00    -0.101 NA
ATOM     14  N   UNL d   1     -49.997  12.574  21.404  0.00  0.00    -0.102 NA
ATOM     15  C   UNL d   1     -49.636  11.836  22.655  0.00  0.00     0.023 A 
ATOM     16  O   UNL d   1     -49.755  13.300  21.109  0.00  0.00    -0.106 OA
ATOM     17  C   UNL d   1     -49.182  11.862  23.344  0.00  0.00     0.002 A 
ATOM     18  C   UNL d   1     -48.698  12.523  23.489  0.00  0.00     0.015 A 
ENDBRANCH   7  10
ENDBRANCH   1   7
BRANCH   2  19
ATOM     19  C   UNL d   1     -45.793  12.907  21.819  0.00  0.00     0.281 C 
ATOM     20  N   UNL d   1     -44.983  12.921  21.959  0.00  0.00    -0.204 NA
ATOM     21  O   UNL d   1     -46.083  12.923  21.042  0.00  0.00    -0.265 OA
BRANCH  20  22
ATOM     22  C   UNL d   1     -44.440  12.952  21.309  0.00  0.00     0.127 C 
BRANCH  22  23
ATOM     23  C   UNL d   1     -43.613  12.834  21.448  0.00  0.00     0.119 A 
ATOM     24  O   UNL d   1     -43.278  12.181  21.826  0.00  0.00    -0.304 OA
ATOM     25  C   UNL d   1     -42.458  12.290  21.844  0.00  0.00     0.123 A 
ATOM     26  C   UNL d   1     -42.290  13.009  21.478  0.00  0.00     0.029 A 
ATOM     27  C   UNL d   1     -43.009  13.344  21.234  0.00  0.00     0.028 A 
ENDBRANCH  22  23
ENDBRANCH  20  22
ENDBRANCH   2  19
TORSDOF 5
ENDMDL
