MODEL 1
REMARK VINA RESULT:     109.5      0.000      0.000
REMARK  6 active torsions:
REMARK  status: ('A' for Active; 'I' for Inactive)
REMARK    1  A    between atoms: S_2  and  N_1 
REMARK    2  A    between atoms: C_11  and  S_2 
REMARK    3  A    between atoms: C_6  and  C_4 
REMARK    4  A    between atoms: C_12  and  C_5 
REMARK    5  A    between atoms: O_14  and  C_8 
REMARK    6  A    between atoms: O_16  and  C_13 
ROOT
ATOM      1  N   UNL d   1      59.763  48.922  51.158  0.00  0.00    -0.152 N 
ATOM      2  N   UNL d   1      58.975  49.207  51.197  0.00  0.00    -0.155 NA
ATOM      3  C   UNL d   1      59.811  48.331  50.582  0.00  0.00     0.098 A 
ATOM      4  C   UNL d   1      58.534  48.788  50.641  0.00  0.00     0.104 A 
ATOM      5  C   UNL d   1      59.058  48.252  50.268  0.00  0.00     0.041 A 
ENDROOT
BRANCH   3   6
ATOM      6  C   UNL d   1      60.486  47.907  50.368  0.00  0.00     0.043 A 
ATOM      7  C   UNL d   1      60.548  47.107  50.561  0.00  0.00     0.118 A 
ATOM      8  C   UNL d   1      61.222  46.682  50.347  0.00  0.00     0.116 A 
ATOM      9  C   UNL d   1      61.812  47.072  49.946  0.00  0.00     0.026 A 
ATOM     10  C   UNL d   1      61.774  47.863  49.742  0.00  0.00     0.002 A 
ATOM     11  C   UNL d   1      61.100  48.288  49.957  0.00  0.00     0.004 A 
BRANCH   7  12
ATOM     12  O   UNL d   1      59.937  46.732  50.969  0.00  0.00    -0.326 OA
ATOM     13  C   UNL d   1      60.110  46.150  51.526  0.00  0.00     0.181 C 
ENDBRANCH   7  12
BRANCH   8  14
ATOM     14  O   UNL d   1      61.263  45.897  50.547  0.00  0.00    -0.326 OA
ATOM     15  C   UNL d   1      61.945  45.460  50.501  0.00  0.00     0.181 C 
ENDBRANCH   8  14
ENDBRANCH   3   6
BRANCH   1  16
ATOM     16  S   UNL d   1      60.388  49.199  51.630  0.00  0.00     0.286 S 
ATOM     17  O   UNL d   1      61.021  49.707  51.481  0.00  0.00    -0.198 OA
ATOM     18  O   UNL d   1      60.363  48.901  52.403  0.00  0.00    -0.198 OA
BRANCH  16  19
ATOM     19  C   UNL d   1      60.930  49.371  52.229  0.00  0.00     0.105 A 
ATOM     20  C   UNL d   1      60.659  49.494  52.971  0.00  0.00     0.013 A 
ATOM     21  C   UNL d   1      61.201  49.666  53.574  0.00  0.00     0.001 A 
ATOM     22  C   UNL d   1      62.007  49.708  53.402  0.00  0.00     0.000 A 
ATOM     23  C   UNL d   1      62.270  49.577  52.627  0.00  0.00     0.001 A 
ATOM     24  C   UNL d   1      61.735  49.412  52.057  0.00  0.00     0.013 A 
ENDBRANCH  16  19
ENDBRANCH   1  16
BRANCH   4  25
ATOM     25  C   UNL d   1      57.747  48.890  50.498  0.00  0.00     0.019 A 
ATOM     26  C   UNL d   1      57.487  49.581  50.121  0.00  0.00     0.002 A 
ATOM     27  C   UNL d   1      56.684  49.708  49.964  0.00  0.00     0.000 A 
ATOM     28  C   UNL d   1      56.143  49.141  50.186  0.00  0.00     0.000 A 
ATOM     29  C   UNL d   1      56.382  48.441  50.566  0.00  0.00     0.000 A 
ATOM     30  C   UNL d   1      57.208  48.328  50.718  0.00  0.00     0.002 A 
ENDBRANCH   4  25
TORSDOF 6
ENDMDL
