MODEL 1
REMARK VINA RESULT:      -0.8      0.000      0.000
REMARK  4 active torsions:
REMARK  status: ('A' for Active; 'I' for Inactive)
REMARK    1  A    between atoms: N_2  and  S_1 
REMARK    2  A    between atoms: C_4  and  S_1 
REMARK    3  A    between atoms: C_11  and  C_3 
REMARK    4  A    between atoms: O_17  and  C_9 
ROOT
ATOM      1  S   UNL d   1     -41.598-121.982 -52.319  0.00  0.00     0.273 S 
ATOM      2  O   UNL d   1     -42.078-121.387 -52.644  0.00  0.00    -0.200 OA
ATOM      3  O   UNL d   1     -41.123-122.571 -51.997  0.00  0.00    -0.200 OA
ENDROOT
BRANCH   1   4
ATOM      4  N   UNL d   1     -41.491-121.526 -51.643  0.00  0.00    -0.213 N 
ATOM      5  C   UNL d   1     -41.724-121.726 -50.880  0.00  0.00     0.157 A 
ATOM      6  N   UNL d   1     -41.509-121.112 -50.374  0.00  0.00    -0.224 NA
ATOM      7  C   UNL d   1     -41.137-120.524 -50.829  0.00  0.00     0.120 A 
ATOM      8  C   UNL d   1     -41.126-120.781 -51.613  0.00  0.00     0.114 A 
BRANCH   5   9
ATOM      9  C   UNL d   1     -42.109-122.424 -50.660  0.00  0.00     0.035 A 
ATOM     10  C   UNL d   1     -41.676-123.077 -50.415  0.00  0.00     0.003 A 
ATOM     11  C   UNL d   1     -42.056-123.778 -50.194  0.00  0.00     0.000 A 
ATOM     12  C   UNL d   1     -42.890-123.817 -50.223  0.00  0.00     0.000 A 
ATOM     13  C   UNL d   1     -43.323-123.165 -50.468  0.00  0.00     0.000 A 
ATOM     14  C   UNL d   1     -42.939-122.467 -50.688  0.00  0.00     0.003 A 
ENDBRANCH   5   9
ENDBRANCH   1   4
BRANCH   1  15
ATOM     15  C   UNL d   1     -41.706-122.443 -53.002  0.00  0.00     0.106 A 
ATOM     16  C   UNL d   1     -42.209-122.178 -53.607  0.00  0.00     0.039 A 
ATOM     17  C   UNL d   1     -42.316-122.634 -54.283  0.00  0.00     0.122 A 
ATOM     18  C   UNL d   1     -41.921-123.358 -54.357  0.00  0.00     0.162 A 
ATOM     19  C   UNL d   1     -41.422-123.623 -53.757  0.00  0.00     0.032 A 
ATOM     20  F   UNL d   1     -42.029-123.815 -55.033  0.00  0.00    -0.202 F 
ATOM     21  C   UNL d   1     -41.317-123.164 -53.083  0.00  0.00     0.015 A 
BRANCH  17  22
ATOM     22  O   UNL d   1     -42.815-122.369 -54.882  0.00  0.00    -0.326 OA
ATOM     23  C   UNL d   1     -42.512-121.926 -55.504  0.00  0.00     0.181 C 
ENDBRANCH  17  22
ENDBRANCH   1  15
TORSDOF 4
ENDMDL
MODEL 2
REMARK VINA RESULT:       0.3      1.564      2.315
REMARK  4 active torsions:
REMARK  status: ('A' for Active; 'I' for Inactive)
REMARK    1  A    between atoms: N_2  and  S_1 
REMARK    2  A    between atoms: C_4  and  S_1 
REMARK    3  A    between atoms: C_11  and  C_3 
REMARK    4  A    between atoms: O_17  and  C_9 
ROOT
ATOM      1  S   UNL d   1     -41.603-122.999 -50.280  0.00  0.00     0.273 S 
ATOM      2  O   UNL d   1     -41.526-122.171 -50.289  0.00  0.00    -0.200 OA
ATOM      3  O   UNL d   1     -41.678-123.817 -50.272  0.00  0.00    -0.200 OA
ENDROOT
BRANCH   1   4
ATOM      4  N   UNL d   1     -41.722-122.979 -49.467  0.00  0.00    -0.213 N 
ATOM      5  C   UNL d   1     -42.449-122.996 -49.082  0.00  0.00     0.157 A 
ATOM      6  N   UNL d   1     -42.313-122.967 -48.269  0.00  0.00    -0.224 NA
ATOM      7  C   UNL d   1     -41.491-122.932 -48.150  0.00  0.00     0.120 A 
ATOM      8  C   UNL d   1     -41.127-122.939 -48.890  0.00  0.00     0.114 A 
BRANCH   5   9
ATOM      9  C   UNL d   1     -43.189-123.036 -49.450  0.00  0.00     0.035 A 
ATOM     10  C   UNL d   1     -43.562-122.351 -49.705  0.00  0.00     0.003 A 
ATOM     11  C   UNL d   1     -44.302-122.386 -50.074  0.00  0.00     0.000 A 
ATOM     12  C   UNL d   1     -44.670-123.128 -50.185  0.00  0.00     0.000 A 
ATOM     13  C   UNL d   1     -44.297-123.813 -49.929  0.00  0.00     0.000 A 
ATOM     14  C   UNL d   1     -43.557-123.773 -49.561  0.00  0.00     0.003 A 
ENDBRANCH   5   9
ENDBRANCH   1   4
BRANCH   1  15
ATOM     15  C   UNL d   1     -41.482-123.018 -51.102  0.00  0.00     0.106 A 
ATOM     16  C   UNL d   1     -41.484-122.312 -51.540  0.00  0.00     0.039 A 
ATOM     17  C   UNL d   1     -41.365-122.331 -52.353  0.00  0.00     0.122 A 
ATOM     18  C   UNL d   1     -41.243-123.056 -52.733  0.00  0.00     0.162 A 
ATOM     19  C   UNL d   1     -41.240-123.758 -52.301  0.00  0.00     0.032 A 
ATOM     20  F   UNL d   1     -41.123-123.076 -53.548  0.00  0.00    -0.202 F 
ATOM     21  C   UNL d   1     -41.360-123.734 -51.488  0.00  0.00     0.015 A 
BRANCH  17  22
ATOM     22  O   UNL d   1     -41.367-121.630 -52.785  0.00  0.00    -0.326 OA
ATOM     23  C   UNL d   1     -41.962-121.486 -53.333  0.00  0.00     0.181 C 
ENDBRANCH  17  22
ENDBRANCH   1  15
TORSDOF 4
ENDMDL
MODEL 3
REMARK VINA RESULT:       1.9      2.299      3.378
REMARK  4 active torsions:
REMARK  status: ('A' for Active; 'I' for Inactive)
REMARK    1  A    between atoms: N_2  and  S_1 
REMARK    2  A    between atoms: C_4  and  S_1 
REMARK    3  A    between atoms: C_11  and  C_3 
REMARK    4  A    between atoms: O_17  and  C_9 
ROOT
ATOM      1  S   UNL d   1     -43.041-122.778 -49.909  0.00  0.00     0.273 S 
ATOM      2  O   UNL d   1     -43.097-122.095 -49.440  0.00  0.00    -0.200 OA
ATOM      3  O   UNL d   1     -42.985-123.454 -50.373  0.00  0.00    -0.200 OA
ENDROOT
BRANCH   1   4
ATOM      4  N   UNL d   1     -43.518-123.183 -49.376  0.00  0.00    -0.213 N 
ATOM      5  C   UNL d   1     -43.309-123.412 -48.613  0.00  0.00     0.157 A 
ATOM      6  N   UNL d   1     -43.952-123.803 -48.275  0.00  0.00    -0.224 NA
ATOM      7  C   UNL d   1     -44.566-123.817 -48.835  0.00  0.00     0.120 A 
ATOM      8  C   UNL d   1     -44.297-123.434 -49.514  0.00  0.00     0.114 A 
BRANCH   5   9
ATOM      9  C   UNL d   1     -42.580-123.272 -48.250  0.00  0.00     0.035 A 
ATOM     10  C   UNL d   1     -41.911-123.682 -48.491  0.00  0.00     0.003 A 
ATOM     11  C   UNL d   1     -41.179-123.546 -48.131  0.00  0.00     0.000 A 
ATOM     12  C   UNL d   1     -41.124-122.983 -47.516  0.00  0.00     0.000 A 
ATOM     13  C   UNL d   1     -41.792-122.572 -47.275  0.00  0.00     0.000 A 
ATOM     14  C   UNL d   1     -42.522-122.712 -47.638  0.00  0.00     0.003 A 
ENDBRANCH   5   9
ENDBRANCH   1   4
BRANCH   1  15
ATOM     15  C   UNL d   1     -42.559-122.369 -50.448  0.00  0.00     0.106 A 
ATOM     16  C   UNL d   1     -42.089-122.789 -50.989  0.00  0.00     0.039 A 
ATOM     17  C   UNL d   1     -41.612-122.384 -51.522  0.00  0.00     0.122 A 
ATOM     18  C   UNL d   1     -41.602-121.556 -51.517  0.00  0.00     0.162 A 
ATOM     19  C   UNL d   1     -42.067-121.137 -50.981  0.00  0.00     0.032 A 
ATOM     20  F   UNL d   1     -41.124-121.150 -52.050  0.00  0.00    -0.202 F 
ATOM     21  C   UNL d   1     -42.543-121.546 -50.450  0.00  0.00     0.015 A 
BRANCH  17  22
ATOM     22  O   UNL d   1     -41.147-122.803 -52.057  0.00  0.00    -0.326 OA
ATOM     23  C   UNL d   1     -41.493-123.157 -52.713  0.00  0.00     0.181 C 
ENDBRANCH  17  22
ENDBRANCH   1  15
TORSDOF 4
ENDMDL
