MODEL 1
REMARK VINA RESULT:      -4.9      0.000      0.000
REMARK  5 active torsions:
REMARK  status: ('A' for Active; 'I' for Inactive)
REMARK    1  A    between atoms: C_2  and  C_1 
REMARK    2  A    between atoms: N_5  and  C_2 
REMARK    3  A    between atoms: C_12  and  C_4 
REMARK    4  A    between atoms: C_24  and  N_9 
REMARK    5  A    between atoms: C_19  and  C_24 
ROOT
ATOM      1  N   UNL d   1      59.861  -5.226  28.465  0.00  0.00    -0.191 NA
ATOM      2  C   UNL d   1      59.904  -4.402  28.462  0.00  0.00     0.103 C 
ATOM      3  C   UNL d   1      59.947  -3.581  28.455  0.00  0.00     0.097 C 
ENDROOT
BRANCH   3   4
ATOM      4  C   UNL d   1      60.002  -3.170  29.163  0.00  0.00     0.091 C 
BRANCH   4   5
ATOM      5  N   UNL d   1      59.639  -2.431  29.244  0.00  0.00    -0.299 N 
ATOM      6  C   UNL d   1      58.820  -2.371  29.187  0.00  0.00     0.100 A 
ATOM      7  C   UNL d   1      58.455  -1.636  29.267  0.00  0.00     0.100 A 
ATOM      8  N   UNL d   1      58.910  -0.962  29.405  0.00  0.00    -0.291 N 
ATOM      9  C   UNL d   1      59.732  -1.017  29.463  0.00  0.00     0.100 A 
ATOM     10  C   UNL d   1      60.094  -1.757  29.381  0.00  0.00     0.100 A 
BRANCH   8  11
ATOM     11  C   UNL d   1      58.544  -0.234  29.484  0.00  0.00     0.143 C 
ATOM     12  S   UNL d   1      58.465   0.263  28.831  0.00  0.00    -0.057 SA
BRANCH  11  13
ATOM     13  C   UNL d   1      58.251   0.007  30.217  0.00  0.00     0.126 A 
ATOM     14  O   UNL d   1      57.578  -0.281  30.593  0.00  0.00    -0.305 OA
ATOM     15  C   UNL d   1      57.491   0.114  31.315  0.00  0.00     0.100 A 
ATOM     16  C   UNL d   1      58.118   0.649  31.382  0.00  0.00     0.027 A 
ATOM     17  C   UNL d   1      58.586   0.582  30.704  0.00  0.00     0.029 A 
BRANCH  15  18
ATOM     18  C   UNL d   1      56.891  -0.002  31.869  0.00  0.00     0.023 A 
ATOM     19  C   UNL d   1      56.567   0.641  32.259  0.00  0.00     0.003 A 
ATOM     20  C   UNL d   1      55.969   0.529  32.812  0.00  0.00     0.011 A 
ATOM     21  C   UNL d   1      55.692  -0.240  32.975  0.00  0.00     0.058 A 
ATOM     22  C   UNL d   1      56.026  -0.888  32.576  0.00  0.00     0.011 A 
ATOM     23 CL   UNL d   1      55.093  -0.358  33.528  0.00  0.00    -0.082 Cl
ATOM     24  C   UNL d   1      56.626  -0.765  32.023  0.00  0.00     0.003 A 
ENDBRANCH  15  18
ENDBRANCH  11  13
ENDBRANCH   8  11
ENDBRANCH   4   5
ENDBRANCH   3   4
TORSDOF 5
ENDMDL
MODEL 2
REMARK VINA RESULT:      -4.0      2.402      5.120
REMARK  5 active torsions:
REMARK  status: ('A' for Active; 'I' for Inactive)
REMARK    1  A    between atoms: C_2  and  C_1 
REMARK    2  A    between atoms: N_5  and  C_2 
REMARK    3  A    between atoms: C_12  and  C_4 
REMARK    4  A    between atoms: C_24  and  N_9 
REMARK    5  A    between atoms: C_19  and  C_24 
ROOT
ATOM      1  N   UNL d   1      55.267   0.132  34.171  0.00  0.00    -0.191 NA
ATOM      2  C   UNL d   1      55.786   0.344  33.565  0.00  0.00     0.103 C 
ATOM      3  C   UNL d   1      56.301   0.559  32.961  0.00  0.00     0.097 C 
ENDROOT
BRANCH   3   4
ATOM      4  C   UNL d   1      56.949   0.085  32.791  0.00  0.00     0.091 C 
BRANCH   4   5
ATOM      5  N   UNL d   1      57.293   0.105  32.038  0.00  0.00    -0.299 N 
ATOM      6  C   UNL d   1      57.881   0.658  31.874  0.00  0.00     0.100 A 
ATOM      7  C   UNL d   1      58.225   0.681  31.125  0.00  0.00     0.100 A 
ATOM      8  N   UNL d   1      57.981   0.150  30.542  0.00  0.00    -0.291 N 
ATOM      9  C   UNL d   1      57.392  -0.405  30.703  0.00  0.00     0.100 A 
ATOM     10  C   UNL d   1      57.048  -0.425  31.456  0.00  0.00     0.100 A 
BRANCH   8  11
ATOM     11  C   UNL d   1      58.326   0.176  29.800  0.00  0.00     0.143 C 
ATOM     12  S   UNL d   1      58.024   0.679  29.221  0.00  0.00    -0.057 SA
BRANCH  11  13
ATOM     13  C   UNL d   1      58.977  -0.301  29.627  0.00  0.00     0.126 A 
ATOM     14  O   UNL d   1      58.958  -1.102  29.435  0.00  0.00    -0.305 OA
ATOM     15  C   UNL d   1      59.733  -1.359  29.304  0.00  0.00     0.100 A 
ATOM     16  C   UNL d   1      60.232  -0.708  29.417  0.00  0.00     0.027 A 
ATOM     17  C   UNL d   1      59.764  -0.057  29.615  0.00  0.00     0.029 A 
BRANCH  15  18
ATOM     18  C   UNL d   1      59.970  -2.121  29.099  0.00  0.00     0.023 A 
ATOM     19  C   UNL d   1      59.407  -2.692  28.932  0.00  0.00     0.003 A 
ATOM     20  C   UNL d   1      59.640  -3.454  28.727  0.00  0.00     0.011 A 
ATOM     21  C   UNL d   1      60.450  -3.644  28.690  0.00  0.00     0.058 A 
ATOM     22  C   UNL d   1      61.016  -3.061  28.861  0.00  0.00     0.011 A 
ATOM     23 CL   UNL d   1      60.689  -4.406  28.485  0.00  0.00    -0.082 Cl
ATOM     24  C   UNL d   1      60.772  -2.299  29.065  0.00  0.00     0.003 A 
ENDBRANCH  15  18
ENDBRANCH  11  13
ENDBRANCH   8  11
ENDBRANCH   4   5
ENDBRANCH   3   4
TORSDOF 5
ENDMDL
