MODEL 1
REMARK VINA RESULT:      40.6      0.000      0.000
REMARK  5 active torsions:
REMARK  status: ('A' for Active; 'I' for Inactive)
REMARK    1  A    between atoms: C_11  and  N_1 
REMARK    2  A    between atoms: C_5  and  C_3 
REMARK       I    between atoms: N_14  and  C_5 
REMARK    3  A    between atoms: N_7  and  C_18 
REMARK    4  A    between atoms: C_17  and  N_14 
REMARK    5  A    between atoms: C_18  and  C_17 
ROOT
ATOM      1  C   UNL d   1     -56.841 -98.759 -44.536  0.00  0.00     0.281 C 
ATOM      2  O   UNL d   1     -56.769 -98.759 -43.716  0.00  0.00    -0.265 OA
ATOM      3  N   UNL d   1     -56.166 -98.758 -45.001  0.00  0.00    -0.205 NA
ENDROOT
BRANCH   1   4
ATOM      4  C   UNL d   1     -57.593 -98.759 -44.886  0.00  0.00     0.080 A 
ATOM      5  C   UNL d   1     -57.750 -98.763 -45.696  0.00  0.00     0.088 A 
ATOM      6  N   UNL d   1     -58.570 -98.762 -45.790  0.00  0.00    -0.273 N 
ATOM      7  C   UNL d   1     -58.917 -98.758 -45.047  0.00  0.00     0.265 A 
ATOM      8  C   UNL d   1     -58.312 -98.756 -44.483  0.00  0.00     0.067 A 
ATOM      9  O   UNL d   1     -59.738 -98.756 -44.930  0.00  0.00    -0.267 OA
BRANCH   6  10
ATOM     10  C   UNL d   1     -58.973 -98.766 -46.511  0.00  0.00     0.067 A 
ATOM     11  C   UNL d   1     -59.794 -98.779 -46.601  0.00  0.00     0.018 A 
ATOM     12  C   UNL d   1     -59.958 -98.778 -47.409  0.00  0.00     0.002 A 
ATOM     13  C   UNL d   1     -59.236 -98.764 -47.809  0.00  0.00     0.002 A 
ATOM     14  C   UNL d   1     -58.630 -98.756 -47.263  0.00  0.00     0.018 A 
ENDBRANCH   6  10
ENDBRANCH   1   4
BRANCH   3  15
ATOM     15  C   UNL d   1     -55.423 -98.757 -44.654  0.00  0.00     0.121 C 
BRANCH  15  16
ATOM     16  C   UNL d   1     -54.831 -99.253 -44.931  0.00  0.00     0.101 C 
BRANCH  16  17
ATOM     17  N   UNL d   1     -54.808-100.041 -44.669  0.00  0.00    -0.301 N 
ATOM     18  C   UNL d   1     -54.783-100.200 -43.862  0.00  0.00     0.080 A 
ATOM     19  C   UNL d   1     -54.760-100.986 -43.607  0.00  0.00     0.018 A 
ATOM     20  C   UNL d   1     -54.735-101.156 -42.807  0.00  0.00     0.002 A 
ATOM     21  C   UNL d   1     -54.762-101.603 -44.152  0.00  0.00     0.003 A 
ATOM     22  C   UNL d   1     -54.712-101.931 -42.548  0.00  0.00     0.000 A 
ATOM     23  C   UNL d   1     -54.713-102.553 -43.093  0.00  0.00     0.000 A 
ATOM     24  C   UNL d   1     -54.739-102.388 -43.900  0.00  0.00     0.000 A 
ATOM     25  C   UNL d   1     -54.787-101.433 -44.961  0.00  0.00     0.019 A 
ATOM     26  C   UNL d   1     -54.810-100.647 -45.223  0.00  0.00     0.080 A 
ENDBRANCH  16  17
ENDBRANCH  15  16
ENDBRANCH   3  15
TORSDOF 5
ENDMDL
