MODEL 1
REMARK VINA RESULT:       3.5      0.000      0.000
REMARK  2 active torsions:
REMARK  status: ('A' for Active; 'I' for Inactive)
REMARK    1  A    between atoms: C_3  and  C_1 
REMARK       I    between atoms: C_2  and  N_4 
REMARK    2  A    between atoms: N_4  and  C_7 
ROOT
ATOM      1  C   UNL d   1     -51.344  25.260  33.327  0.00  0.00     0.073 A 
ATOM      2  C   UNL d   1     -51.992  24.745  33.325  0.00  0.00     0.024 A 
ATOM      3  C   UNL d   1     -51.869  23.930  33.317  0.00  0.00     0.100 A 
ATOM      4  C   UNL d   1     -50.578  24.959  33.320  0.00  0.00     0.004 A 
ATOM      5  C   UNL d   1     -50.455  24.143  33.312  0.00  0.00     0.002 A 
ATOM      6  C   UNL d   1     -51.099  23.628  33.311  0.00  0.00     0.020 A 
ENDROOT
BRANCH   1   7
ATOM      7  C   UNL d   1     -51.469  26.083  33.335  0.00  0.00     0.419 C 
ATOM      8  F   UNL d   1     -51.580  26.825  33.342  0.00  0.00    -0.166 F 
ATOM      9  F   UNL d   1     -50.886  26.719  33.353  0.00  0.00    -0.166 F 
ATOM     10  F   UNL d   1     -52.209  26.520  33.327  0.00  0.00    -0.166 F 
ENDBRANCH   1   7
BRANCH   3  11
ATOM     11  N   UNL d   1     -52.511  23.411  33.316  0.00  0.00    -0.056 NA
ATOM     12  C   UNL d   1     -53.276  23.704  33.355  0.00  0.00     0.787 C 
ATOM     13  N   UNL d   1     -53.918  23.190  33.354  0.00  0.00     0.064 N 
ATOM     14  N   UNL d   1     -53.398  24.518  33.396  0.00  0.00     0.064 N 
ENDBRANCH   3  11
TORSDOF 2
ENDMDL
MODEL 2
REMARK VINA RESULT:       5.3      2.267      3.006
REMARK  2 active torsions:
REMARK  status: ('A' for Active; 'I' for Inactive)
REMARK    1  A    between atoms: C_3  and  C_1 
REMARK       I    between atoms: C_2  and  N_4 
REMARK    2  A    between atoms: N_4  and  C_7 
ROOT
ATOM      1  C   UNL d   1     -52.151  24.091  33.560  0.00  0.00     0.073 A 
ATOM      2  C   UNL d   1     -52.013  24.904  33.500  0.00  0.00     0.024 A 
ATOM      3  C   UNL d   1     -51.246  25.182  33.374  0.00  0.00     0.100 A 
ATOM      4  C   UNL d   1     -51.526  23.560  33.494  0.00  0.00     0.004 A 
ATOM      5  C   UNL d   1     -50.760  23.838  33.367  0.00  0.00     0.002 A 
ATOM      6  C   UNL d   1     -50.619  24.647  33.307  0.00  0.00     0.020 A 
ENDROOT
BRANCH   1   7
ATOM      7  C   UNL d   1     -52.925  23.811  33.687  0.00  0.00     0.419 C 
ATOM      8  F   UNL d   1     -53.622  23.558  33.802  0.00  0.00    -0.166 F 
ATOM      9  F   UNL d   1     -53.660  24.055  33.307  0.00  0.00    -0.166 F 
ATOM     10  F   UNL d   1     -53.199  23.204  34.231  0.00  0.00    -0.166 F 
ENDBRANCH   1   7
BRANCH   3  11
ATOM     11  N   UNL d   1     -51.101  25.992  33.313  0.00  0.00    -0.056 NA
ATOM     12  C   UNL d   1     -50.342  26.283  33.419  0.00  0.00     0.787 C 
ATOM     13  N   UNL d   1     -50.194  27.090  33.360  0.00  0.00     0.064 N 
ATOM     14  N   UNL d   1     -49.726  25.761  33.587  0.00  0.00     0.064 N 
ENDBRANCH   3  11
TORSDOF 2
ENDMDL
