MODEL 1
REMARK VINA RESULT:      -4.4      0.000      0.000
REMARK  3 active torsions:
REMARK  status: ('A' for Active; 'I' for Inactive)
REMARK    1  A    between atoms: C_6  and  N_1 
REMARK    2  A    between atoms: C_7  and  C_6 
REMARK    3  A    between atoms: C_8  and  C_7 
ROOT
ATOM      1  N   UNL d   1      56.205  -0.136  32.701  0.00  0.00    -0.211 N 
ATOM      2  N   UNL d   1      55.299  -0.593  33.573  0.00  0.00    -0.206 NA
ATOM      3  C   UNL d   1      55.823  -0.812  32.971  0.00  0.00     0.166 A 
ATOM      4  N   UNL d   1      55.916   0.514  33.139  0.00  0.00    -0.144 NA
ATOM      5  C   UNL d   1      55.353   0.229  33.682  0.00  0.00     0.184 A 
ATOM      6  C   UNL d   1      55.935  -1.581  32.696  0.00  0.00     0.042 C 
ATOM      7  C   UNL d   1      54.931   0.682  34.223  0.00  0.00     0.044 C 
ENDROOT
BRANCH   1   8
ATOM      8  C   UNL d   1      56.777  -0.094  32.100  0.00  0.00     0.091 C 
ATOM      9  C   UNL d   1      56.864  -0.734  31.584  0.00  0.00     0.021 C 
BRANCH   8  10
ATOM     10  C   UNL d   1      57.250   0.573  32.018  0.00  0.00     0.089 C 
BRANCH  10  11
ATOM     11  C   UNL d   1      57.757   0.645  31.371  0.00  0.00     0.213 C 
ATOM     12  O   UNL d   1      57.450   0.680  30.608  0.00  0.00    -0.644 OA
ATOM     13  O   UNL d   1      58.575   0.681  31.490  0.00  0.00    -0.644 OA
ENDBRANCH  10  11
ENDBRANCH   8  10
ENDBRANCH   1   8
TORSDOF 3
ENDMDL
MODEL 2
REMARK VINA RESULT:      -4.0      1.976      3.184
REMARK  3 active torsions:
REMARK  status: ('A' for Active; 'I' for Inactive)
REMARK    1  A    between atoms: C_6  and  N_1 
REMARK    2  A    between atoms: C_7  and  C_6 
REMARK    3  A    between atoms: C_8  and  C_7 
ROOT
ATOM      1  N   UNL d   1      57.192   0.086  31.815  0.00  0.00    -0.211 N 
ATOM      2  N   UNL d   1      58.286   0.619  31.258  0.00  0.00    -0.206 NA
ATOM      3  C   UNL d   1      57.901   0.473  31.975  0.00  0.00     0.166 A 
ATOM      4  N   UNL d   1      57.135  -0.009  30.987  0.00  0.00    -0.144 NA
ATOM      5  C   UNL d   1      57.816   0.323  30.641  0.00  0.00     0.184 A 
ATOM      6  C   UNL d   1      58.186   0.682  32.719  0.00  0.00     0.042 C 
ATOM      7  C   UNL d   1      57.985   0.349  29.837  0.00  0.00     0.044 C 
ENDROOT
BRANCH   1   8
ATOM      8  C   UNL d   1      56.628  -0.168  32.368  0.00  0.00     0.091 C 
ATOM      9  C   UNL d   1      56.447   0.321  33.010  0.00  0.00     0.021 C 
BRANCH   8  10
ATOM     10  C   UNL d   1      56.254  -0.895  32.281  0.00  0.00     0.089 C 
BRANCH  10  11
ATOM     11  C   UNL d   1      55.793  -1.201  32.894  0.00  0.00     0.213 C 
ATOM     12  O   UNL d   1      55.122  -0.796  33.147  0.00  0.00    -0.644 OA
ATOM     13  O   UNL d   1      56.007  -1.914  33.254  0.00  0.00    -0.644 OA
ENDBRANCH  10  11
ENDBRANCH   8  10
ENDBRANCH   1   8
TORSDOF 3
ENDMDL
MODEL 3
REMARK VINA RESULT:      -4.0      1.330      1.949
REMARK  3 active torsions:
REMARK  status: ('A' for Active; 'I' for Inactive)
REMARK    1  A    between atoms: C_6  and  N_1 
REMARK    2  A    between atoms: C_7  and  C_6 
REMARK    3  A    between atoms: C_8  and  C_7 
ROOT
ATOM      1  N   UNL d   1      57.010  -0.313  31.782  0.00  0.00    -0.211 N 
ATOM      2  N   UNL d   1      56.614  -0.408  33.057  0.00  0.00    -0.206 NA
ATOM      3  C   UNL d   1      57.083   0.025  32.529  0.00  0.00     0.166 A 
ATOM      4  N   UNL d   1      56.490  -0.963  31.844  0.00  0.00    -0.144 NA
ATOM      5  C   UNL d   1      56.244  -1.021  32.637  0.00  0.00     0.184 A 
ATOM      6  C   UNL d   1      57.541   0.680  32.728  0.00  0.00     0.042 C 
ATOM      7  C   UNL d   1      55.729  -1.585  32.943  0.00  0.00     0.044 C 
ENDROOT
BRANCH   1   8
ATOM      8  C   UNL d   1      57.383  -0.060  31.085  0.00  0.00     0.091 C 
ATOM      9  C   UNL d   1      57.192   0.682  30.773  0.00  0.00     0.021 C 
BRANCH   8  10
ATOM     10  C   UNL d   1      57.934  -0.540  30.707  0.00  0.00     0.089 C 
BRANCH  10  11
ATOM     11  C   UNL d   1      58.235  -0.324  29.969  0.00  0.00     0.213 C 
ATOM     12  O   UNL d   1      58.902   0.157  29.921  0.00  0.00    -0.644 OA
ATOM     13  O   UNL d   1      57.867  -0.591  29.279  0.00  0.00    -0.644 OA
ENDBRANCH  10  11
ENDBRANCH   8  10
ENDBRANCH   1   8
TORSDOF 3
ENDMDL
MODEL 4
REMARK VINA RESULT:      -3.8      2.207      3.566
REMARK  3 active torsions:
REMARK  status: ('A' for Active; 'I' for Inactive)
REMARK    1  A    between atoms: C_6  and  N_1 
REMARK    2  A    between atoms: C_7  and  C_6 
REMARK    3  A    between atoms: C_8  and  C_7 
ROOT
ATOM      1  N   UNL d   1      57.460  -0.707  31.004  0.00  0.00    -0.211 N 
ATOM      2  N   UNL d   1      58.156  -0.515  29.877  0.00  0.00    -0.206 NA
ATOM      3  C   UNL d   1      57.753  -0.134  30.491  0.00  0.00     0.166 A 
ATOM      4  N   UNL d   1      57.682  -1.455  30.706  0.00  0.00    -0.144 NA
ATOM      5  C   UNL d   1      58.115  -1.335  30.006  0.00  0.00     0.184 A 
ATOM      6  C   UNL d   1      57.665   0.682  30.567  0.00  0.00     0.042 C 
ATOM      7  C   UNL d   1      58.440  -1.923  29.532  0.00  0.00     0.044 C 
ENDROOT
BRANCH   1   8
ATOM      8  C   UNL d   1      57.020  -0.576  31.696  0.00  0.00     0.091 C 
ATOM      9  C   UNL d   1      57.205   0.073  32.173  0.00  0.00     0.021 C 
BRANCH   8  10
ATOM     10  C   UNL d   1      56.408  -1.085  31.906  0.00  0.00     0.089 C 
BRANCH  10  11
ATOM     11  C   UNL d   1      56.057  -1.026  32.650  0.00  0.00     0.213 C 
ATOM     12  O   UNL d   1      56.247  -1.568  33.240  0.00  0.00    -0.644 OA
ATOM     13  O   UNL d   1      55.514  -0.421  32.804  0.00  0.00    -0.644 OA
ENDBRANCH  10  11
ENDBRANCH   8  10
ENDBRANCH   1   8
TORSDOF 3
ENDMDL
MODEL 5
REMARK VINA RESULT:      -3.8      8.671      9.536
REMARK  3 active torsions:
REMARK  status: ('A' for Active; 'I' for Inactive)
REMARK    1  A    between atoms: C_6  and  N_1 
REMARK    2  A    between atoms: C_7  and  C_6 
REMARK    3  A    between atoms: C_8  and  C_7 
ROOT
ATOM      1  N   UNL d   1      59.980  -8.463  35.285  0.00  0.00    -0.211 N 
ATOM      2  N   UNL d   1      59.389  -9.606  34.918  0.00  0.00    -0.206 NA
ATOM      3  C   UNL d   1      59.537  -9.101  35.557  0.00  0.00     0.166 A 
ATOM      4  N   UNL d   1      60.110  -8.571  34.467  0.00  0.00    -0.144 NA
ATOM      5  C   UNL d   1      59.741  -9.282  34.240  0.00  0.00     0.184 A 
ATOM      6  C   UNL d   1      59.280  -9.224  36.330  0.00  0.00     0.042 C 
ATOM      7  C   UNL d   1      59.732  -9.600  33.481  0.00  0.00     0.044 C 
ENDROOT
BRANCH   1   8
ATOM      8  C   UNL d   1      60.255  -7.821  35.734  0.00  0.00     0.091 C 
ATOM      9  C   UNL d   1      61.037  -7.824  36.002  0.00  0.00     0.021 C 
BRANCH   8  10
ATOM     10  C   UNL d   1      59.758  -7.190  35.912  0.00  0.00     0.089 C 
BRANCH  10  11
ATOM     11  C   UNL d   1      60.060  -6.423  35.956  0.00  0.00     0.213 C 
ATOM     12  O   UNL d   1      59.640  -5.795  35.630  0.00  0.00    -0.644 OA
ATOM     13  O   UNL d   1      60.785  -6.288  36.330  0.00  0.00    -0.644 OA
ENDBRANCH  10  11
ENDBRANCH   8  10
ENDBRANCH   1   8
TORSDOF 3
ENDMDL
MODEL 6
REMARK VINA RESULT:      -3.4      9.049      9.787
REMARK  3 active torsions:
REMARK  status: ('A' for Active; 'I' for Inactive)
REMARK    1  A    between atoms: C_6  and  N_1 
REMARK    2  A    between atoms: C_7  and  C_6 
REMARK    3  A    between atoms: C_8  and  C_7 
ROOT
ATOM      1  N   UNL d   1      59.895  -8.582  35.220  0.00  0.00    -0.211 N 
ATOM      2  N   UNL d   1      59.327  -8.095  36.330  0.00  0.00    -0.206 NA
ATOM      3  C   UNL d   1      59.487  -8.787  35.905  0.00  0.00     0.166 A 
ATOM      4  N   UNL d   1      59.990  -7.753  35.218  0.00  0.00    -0.144 NA
ATOM      5  C   UNL d   1      59.637  -7.451  35.908  0.00  0.00     0.184 A 
ATOM      6  C   UNL d   1      59.270  -9.548  36.137  0.00  0.00     0.042 C 
ATOM      7  C   UNL d   1      59.604  -6.658  36.127  0.00  0.00     0.044 C 
ENDROOT
BRANCH   1   8
ATOM      8  C   UNL d   1      60.167  -9.099  34.631  0.00  0.00     0.091 C 
ATOM      9  C   UNL d   1      60.756  -9.649  34.818  0.00  0.00     0.021 C 
BRANCH   8  10
ATOM     10  C   UNL d   1      59.857  -9.067  33.870  0.00  0.00     0.089 C 
BRANCH  10  11
ATOM     11  C   UNL d   1      60.242  -9.451  33.248  0.00  0.00     0.213 C 
ATOM     12  O   UNL d   1      59.804  -9.818  32.655  0.00  0.00    -0.644 OA
ATOM     13  O   UNL d   1      61.068  -9.466  33.222  0.00  0.00    -0.644 OA
ENDBRANCH  10  11
ENDBRANCH   8  10
ENDBRANCH   1   8
TORSDOF 3
ENDMDL
MODEL 7
REMARK VINA RESULT:      -3.0      3.127      4.129
REMARK  3 active torsions:
REMARK  status: ('A' for Active; 'I' for Inactive)
REMARK    1  A    between atoms: C_6  and  N_1 
REMARK    2  A    between atoms: C_7  and  C_6 
REMARK    3  A    between atoms: C_8  and  C_7 
ROOT
ATOM      1  N   UNL d   1      58.475  -0.558  29.783  0.00  0.00    -0.211 N 
ATOM      2  N   UNL d   1      58.402   0.605  30.440  0.00  0.00    -0.206 NA
ATOM      3  C   UNL d   1      58.826   0.181  29.870  0.00  0.00     0.166 A 
ATOM      4  N   UNL d   1      57.824  -0.595  30.304  0.00  0.00    -0.144 NA
ATOM      5  C   UNL d   1      57.779   0.129  30.712  0.00  0.00     0.184 A 
ATOM      6  C   UNL d   1      59.487   0.460  29.465  0.00  0.00     0.042 C 
ATOM      7  C   UNL d   1      57.218   0.329  31.280  0.00  0.00     0.044 C 
ENDROOT
BRANCH   1   8
ATOM      8  C   UNL d   1      58.716  -1.166  29.271  0.00  0.00     0.091 C 
ATOM      9  C   UNL d   1      58.634  -1.060  28.455  0.00  0.00     0.021 C 
BRANCH   8  10
ATOM     10  C   UNL d   1      59.032  -1.864  29.570  0.00  0.00     0.089 C 
BRANCH  10  11
ATOM     11  C   UNL d   1      59.064  -2.540  29.097  0.00  0.00     0.213 C 
ATOM     12  O   UNL d   1      59.740  -2.703  28.656  0.00  0.00    -0.644 OA
ATOM     13  O   UNL d   1      58.416  -3.054  29.068  0.00  0.00    -0.644 OA
ENDBRANCH  10  11
ENDBRANCH   8  10
ENDBRANCH   1   8
TORSDOF 3
ENDMDL
MODEL 8
REMARK VINA RESULT:      -2.7      3.774      4.999
REMARK  3 active torsions:
REMARK  status: ('A' for Active; 'I' for Inactive)
REMARK    1  A    between atoms: C_6  and  N_1 
REMARK    2  A    between atoms: C_7  and  C_6 
REMARK    3  A    between atoms: C_8  and  C_7 
ROOT
ATOM      1  N   UNL d   1      59.100  -1.523  29.028  0.00  0.00    -0.211 N 
ATOM      2  N   UNL d   1      59.897  -2.541  28.683  0.00  0.00    -0.206 NA
ATOM      3  C   UNL d   1      59.875  -1.729  28.844  0.00  0.00     0.166 A 
ATOM      4  N   UNL d   1      58.633  -2.213  28.980  0.00  0.00    -0.144 NA
ATOM      5  C   UNL d   1      59.129  -2.846  28.766  0.00  0.00     0.184 A 
ATOM      6  C   UNL d   1      60.524  -1.223  28.822  0.00  0.00     0.042 C 
ATOM      7  C   UNL d   1      58.897  -3.628  28.657  0.00  0.00     0.044 C 
ENDROOT
BRANCH   1   8
ATOM      8  C   UNL d   1      58.821  -0.767  29.226  0.00  0.00     0.091 C 
ATOM      9  C   UNL d   1      58.876  -0.159  28.668  0.00  0.00     0.021 C 
BRANCH   8  10
ATOM     10  C   UNL d   1      58.493  -0.622  29.967  0.00  0.00     0.089 C 
BRANCH  10  11
ATOM     11  C   UNL d   1      58.176   0.120  30.142  0.00  0.00     0.213 C 
ATOM     12  O   UNL d   1      57.403   0.300  29.924  0.00  0.00    -0.644 OA
ATOM     13  O   UNL d   1      58.637   0.682  30.538  0.00  0.00    -0.644 OA
ENDBRANCH  10  11
ENDBRANCH   8  10
ENDBRANCH   1   8
TORSDOF 3
ENDMDL
MODEL 9
REMARK VINA RESULT:      -2.4      3.017      4.467
REMARK  3 active torsions:
REMARK  status: ('A' for Active; 'I' for Inactive)
REMARK    1  A    between atoms: C_6  and  N_1 
REMARK    2  A    between atoms: C_7  and  C_6 
REMARK    3  A    between atoms: C_8  and  C_7 
ROOT
ATOM      1  N   UNL d   1      59.020   0.108  29.768  0.00  0.00    -0.211 N 
ATOM      2  N   UNL d   1      60.017  -0.246  28.949  0.00  0.00    -0.206 NA
ATOM      3  C   UNL d   1      59.208  -0.330  29.097  0.00  0.00     0.166 A 
ATOM      4  N   UNL d   1      59.721   0.470  30.041  0.00  0.00    -0.144 NA
ATOM      5  C   UNL d   1      60.341   0.250  29.531  0.00  0.00     0.184 A 
ATOM      6  C   UNL d   1      58.686  -0.779  28.644  0.00  0.00     0.042 C 
ATOM      7  C   UNL d   1      61.127   0.483  29.597  0.00  0.00     0.044 C 
ENDROOT
BRANCH   1   8
ATOM      8  C   UNL d   1      58.272   0.183  30.119  0.00  0.00     0.091 C 
ATOM      9  C   UNL d   1      57.712   0.682  29.769  0.00  0.00     0.021 C 
BRANCH   8  10
ATOM     10  C   UNL d   1      58.087  -0.230  30.805  0.00  0.00     0.089 C 
BRANCH  10  11
ATOM     11  C   UNL d   1      57.391  -0.063  31.216  0.00  0.00     0.213 C 
ATOM     12  O   UNL d   1      57.287   0.671  31.572  0.00  0.00    -0.644 OA
ATOM     13  O   UNL d   1      56.796  -0.636  31.268  0.00  0.00    -0.644 OA
ENDBRANCH  10  11
ENDBRANCH   8  10
ENDBRANCH   1   8
TORSDOF 3
ENDMDL
