MODEL 1
REMARK VINA RESULT:      -5.0      0.000      0.000
REMARK  6 active torsions:
REMARK  status: ('A' for Active; 'I' for Inactive)
REMARK    1  A    between atoms: N_4  and  C_1 
REMARK    2  A    between atoms: N_8  and  C_1 
REMARK       I    between atoms: C_2  and  N_3 
REMARK    3  A    between atoms: C_6  and  C_2 
REMARK    4  A    between atoms: N_3  and  N_4 
REMARK    5  A    between atoms: C_17  and  N_8 
REMARK    6  A    between atoms: C_11  and  C_17 
ROOT
ATOM      1  C   UNL d   1     -41.401-121.620 -51.404  0.00  0.00     0.297 C 
ATOM      2  N   UNL d   1     -41.280-121.823 -52.210  0.00  0.00    -0.103 NA
ATOM      3  O   UNL d   1     -41.168-120.882 -51.138  0.00  0.00    -0.264 OA
ENDROOT
BRANCH   1   4
ATOM      4  C   UNL d   1     -41.757-122.171 -50.881  0.00  0.00     0.059 A 
ATOM      5  C   UNL d   1     -41.296-122.757 -50.550  0.00  0.00     0.005 A 
ATOM      6  C   UNL d   1     -41.636-123.304 -50.034  0.00  0.00     0.007 A 
ATOM      7  C   UNL d   1     -42.434-123.256 -49.857  0.00  0.00     0.035 A 
ATOM      8  C   UNL d   1     -42.911-122.661 -50.191  0.00  0.00     0.007 A 
ATOM      9 BR   UNL d   1     -42.788-123.817 -49.327  0.00  0.00    -0.049 Br
ATOM     10  C   UNL d   1     -42.555-122.123 -50.704  0.00  0.00     0.005 A 
ENDBRANCH   1   4
BRANCH   2  11
ATOM     11  N   UNL d   1     -41.518-122.578 -52.482  0.00  0.00    -0.114 NA
BRANCH  11  12
ATOM     12  C   UNL d   1     -41.424-122.780 -53.262  0.00  0.00     0.241 C 
ATOM     13  S   UNL d   1     -41.146-123.534 -53.465  0.00  0.00    -0.035 SA
BRANCH  12  14
ATOM     14  N   UNL d   1     -41.607-122.230 -53.865  0.00  0.00    -0.215 NA
BRANCH  14  15
ATOM     15  C   UNL d   1     -41.907-122.501 -54.590  0.00  0.00     0.102 C 
BRANCH  15  16
ATOM     16  C   UNL d   1     -41.858-122.019 -55.257  0.00  0.00     0.021 C 
ATOM     17  C   UNL d   1     -42.507-121.923 -55.745  0.00  0.00     0.002 C 
ENDBRANCH  15  16
ENDBRANCH  14  15
ENDBRANCH  12  14
ENDBRANCH  11  12
ENDBRANCH   2  11
TORSDOF 6
ENDMDL
MODEL 2
REMARK VINA RESULT:      -2.9      1.895      3.992
REMARK  6 active torsions:
REMARK  status: ('A' for Active; 'I' for Inactive)
REMARK    1  A    between atoms: N_4  and  C_1 
REMARK    2  A    between atoms: N_8  and  C_1 
REMARK       I    between atoms: C_2  and  N_3 
REMARK    3  A    between atoms: C_6  and  C_2 
REMARK    4  A    between atoms: N_3  and  N_4 
REMARK    5  A    between atoms: C_17  and  N_8 
REMARK    6  A    between atoms: C_11  and  C_17 
ROOT
ATOM      1  C   UNL d   1     -41.400-121.571 -52.438  0.00  0.00     0.297 C 
ATOM      2  N   UNL d   1     -41.481-122.028 -51.738  0.00  0.00    -0.103 NA
ATOM      3  O   UNL d   1     -41.124-120.803 -52.384  0.00  0.00    -0.264 OA
ENDROOT
BRANCH   1   4
ATOM      4  C   UNL d   1     -41.599-121.903 -53.182  0.00  0.00     0.059 A 
ATOM      5  C   UNL d   1     -42.232-121.594 -53.596  0.00  0.00     0.005 A 
ATOM      6  C   UNL d   1     -42.436-121.914 -54.329  0.00  0.00     0.007 A 
ATOM      7  C   UNL d   1     -42.005-122.538 -54.637  0.00  0.00     0.035 A 
ATOM      8  C   UNL d   1     -41.359-122.858 -54.221  0.00  0.00     0.007 A 
ATOM      9 BR   UNL d   1     -42.213-122.869 -55.391  0.00  0.00    -0.049 Br
ATOM     10  C   UNL d   1     -41.168-122.527 -53.490  0.00  0.00     0.005 A 
ENDBRANCH   1   4
BRANCH   2  11
ATOM     11  N   UNL d   1     -41.763-122.814 -51.793  0.00  0.00    -0.114 NA
BRANCH  11  12
ATOM     12  C   UNL d   1     -41.775-123.291 -51.138  0.00  0.00     0.241 C 
ATOM     13  S   UNL d   1     -41.124-123.773 -50.961  0.00  0.00    -0.035 SA
BRANCH  12  14
ATOM     14  N   UNL d   1     -42.445-123.301 -50.635  0.00  0.00    -0.215 NA
BRANCH  14  15
ATOM     15  C   UNL d   1     -42.340-123.345 -49.814  0.00  0.00     0.102 C 
BRANCH  15  16
ATOM     16  C   UNL d   1     -42.993-123.464 -49.326  0.00  0.00     0.021 C 
ATOM     17  C   UNL d   1     -42.983-123.202 -48.552  0.00  0.00     0.002 C 
ENDBRANCH  15  16
ENDBRANCH  14  15
ENDBRANCH  12  14
ENDBRANCH  11  12
ENDBRANCH   2  11
TORSDOF 6
ENDMDL
MODEL 3
REMARK VINA RESULT:      -2.6      2.076      4.086
REMARK  6 active torsions:
REMARK  status: ('A' for Active; 'I' for Inactive)
REMARK    1  A    between atoms: N_4  and  C_1 
REMARK    2  A    between atoms: N_8  and  C_1 
REMARK       I    between atoms: C_2  and  N_3 
REMARK    3  A    between atoms: C_6  and  C_2 
REMARK    4  A    between atoms: N_3  and  N_4 
REMARK    5  A    between atoms: C_17  and  N_8 
REMARK    6  A    between atoms: C_11  and  C_17 
ROOT
ATOM      1  C   UNL d   1     -41.482-121.622 -51.507  0.00  0.00     0.297 C 
ATOM      2  N   UNL d   1     -41.824-121.890 -50.788  0.00  0.00    -0.103 NA
ATOM      3  O   UNL d   1     -41.124-120.887 -51.528  0.00  0.00    -0.264 OA
ENDROOT
BRANCH   1   4
ATOM      4  C   UNL d   1     -41.509-122.105 -52.191  0.00  0.00     0.059 A 
ATOM      5  C   UNL d   1     -41.123-122.825 -52.183  0.00  0.00     0.005 A 
ATOM      6  C   UNL d   1     -41.143-123.308 -52.852  0.00  0.00     0.007 A 
ATOM      7  C   UNL d   1     -41.550-123.064 -53.520  0.00  0.00     0.035 A 
ATOM      8  C   UNL d   1     -41.946-122.332 -53.536  0.00  0.00     0.007 A 
ATOM      9 BR   UNL d   1     -41.573-123.559 -54.210  0.00  0.00    -0.049 Br
ATOM     10  C   UNL d   1     -41.915-121.862 -52.859  0.00  0.00     0.005 A 
ENDBRANCH   1   4
BRANCH   2  11
ATOM     11  N   UNL d   1     -42.191-122.642 -50.766  0.00  0.00    -0.114 NA
BRANCH  11  12
ATOM     12  C   UNL d   1     -42.455-122.948 -50.063  0.00  0.00     0.241 C 
ATOM     13  S   UNL d   1     -43.178-123.352 -50.031  0.00  0.00    -0.035 SA
BRANCH  12  14
ATOM     14  N   UNL d   1     -42.001-122.858 -49.366  0.00  0.00    -0.215 NA
BRANCH  14  15
ATOM     15  C   UNL d   1     -42.060-123.423 -48.762  0.00  0.00     0.102 C 
BRANCH  15  16
ATOM     16  C   UNL d   1     -41.480-123.458 -48.178  0.00  0.00     0.021 C 
ATOM     17  C   UNL d   1     -41.665-123.724 -47.428  0.00  0.00     0.002 C 
ENDBRANCH  15  16
ENDBRANCH  14  15
ENDBRANCH  12  14
ENDBRANCH  11  12
ENDBRANCH   2  11
TORSDOF 6
ENDMDL
