MODEL 1
REMARK VINA RESULT:      -7.8      0.000      0.000
REMARK  5 active torsions:
REMARK  status: ('A' for Active; 'I' for Inactive)
REMARK    1  A    between atoms: N_7  and  C_1 
REMARK    2  A    between atoms: C_13  and  C_2 
REMARK    3  A    between atoms: N_4  and  C_9 
REMARK       I    between atoms: C_10  and  N_7 
REMARK       I    between atoms: C_15  and  N_8 
REMARK    4  A    between atoms: C_18  and  C_10 
REMARK    5  A    between atoms: O_27  and  C_13 
ROOT
ATOM      1  C   UNL d   1      51.377  33.815  52.902  0.00  0.00     0.119 A 
ATOM      2  C   UNL d   1      52.129  33.961  53.203  0.00  0.00     0.088 A 
ATOM      3  C   UNL d   1      52.013  32.643  53.018  0.00  0.00     0.049 A 
ATOM      4  C   UNL d   1      52.521  33.234  53.275  0.00  0.00     0.016 A 
ATOM      5  S   UNL d   1      51.302  32.996  52.786  0.00  0.00    -0.066 SA
ATOM      6  N   UNL d   1      53.012  31.657  53.293  0.00  0.00    -0.272 N 
ATOM      7  C   UNL d   1      52.267  31.846  53.030  0.00  0.00     0.089 A 
ATOM      8  C   UNL d   1      53.270  30.873  53.307  0.00  0.00     0.265 C 
ATOM      9  C   UNL d   1      53.285  33.043  53.545  0.00  0.00     0.020 A 
ATOM     10  C   UNL d   1      53.526  32.261  53.552  0.00  0.00     0.083 A 
ATOM     11  O   UNL d   1      52.762  30.276  53.050  0.00  0.00    -0.267 OA
ATOM     12  C   UNL d   1      54.021  30.679  53.572  0.00  0.00     0.066 C 
ENDROOT
BRANCH   1  13
ATOM     13  N   UNL d   1      50.793  34.381  52.741  0.00  0.00    -0.201 NA
ATOM     14  C   UNL d   1      50.001  34.146  52.687  0.00  0.00     0.280 C 
ATOM     15  O   UNL d   1      49.786  33.357  52.792  0.00  0.00    -0.265 OA
BRANCH  14  16
ATOM     16  C   UNL d   1      49.420  34.709  52.526  0.00  0.00     0.059 A 
ATOM     17  C   UNL d   1      49.013  35.058  53.146  0.00  0.00     0.022 A 
ATOM     18  C   UNL d   1      48.432  35.622  52.986  0.00  0.00     0.070 A 
ATOM     19  C   UNL d   1      48.258  35.836  52.205  0.00  0.00     0.018 A 
ATOM     20  C   UNL d   1      48.678  35.475  51.581  0.00  0.00     0.002 A 
ATOM     21  C   UNL d   1      49.259  34.912  51.741  0.00  0.00     0.005 A 
BRANCH  18  22
ATOM     22  N   UNL d   1      48.013  35.982  53.605  0.00  0.00    -0.242 N 
ATOM     23  C   UNL d   1      48.301  36.470  54.200  0.00  0.00     0.267 A 
ATOM     24  C   UNL d   1      47.669  36.689  54.684  0.00  0.00     0.066 A 
ATOM     25  O   UNL d   1      49.073  36.709  54.312  0.00  0.00    -0.267 OA
ATOM     26  C   UNL d   1      46.994  36.335  54.384  0.00  0.00     0.066 A 
ATOM     27  C   UNL d   1      47.196  35.882  53.699  0.00  0.00     0.267 A 
ATOM     28  O   UNL d   1      46.696  35.441  53.229  0.00  0.00    -0.267 OA
ENDBRANCH  18  22
ENDBRANCH  14  16
ENDBRANCH   1  13
BRANCH   2  29
ATOM     29  C   UNL d   1      52.430  34.699  53.396  0.00  0.00     0.298 C 
ATOM     30  O   UNL d   1      52.771  35.165  52.803  0.00  0.00    -0.259 OA
BRANCH  29  31
ATOM     31  O   UNL d   1      52.392  34.974  54.180  0.00  0.00    -0.296 OA
ATOM     32  C   UNL d   1      52.829  35.641  54.410  0.00  0.00     0.185 C 
ENDBRANCH  29  31
ENDBRANCH   2  29
TORSDOF 5
ENDMDL
MODEL 2
REMARK VINA RESULT:      -6.5      1.442      2.321
REMARK  5 active torsions:
REMARK  status: ('A' for Active; 'I' for Inactive)
REMARK    1  A    between atoms: N_7  and  C_1 
REMARK    2  A    between atoms: C_13  and  C_2 
REMARK    3  A    between atoms: N_4  and  C_9 
REMARK       I    between atoms: C_10  and  N_7 
REMARK       I    between atoms: C_15  and  N_8 
REMARK    4  A    between atoms: C_18  and  C_10 
REMARK    5  A    between atoms: O_27  and  C_13 
ROOT
ATOM      1  C   UNL d   1      51.901  33.632  53.357  0.00  0.00     0.119 A 
ATOM      2  C   UNL d   1      52.369  32.956  53.352  0.00  0.00     0.088 A 
ATOM      3  C   UNL d   1      53.013  33.893  54.055  0.00  0.00     0.049 A 
ATOM      4  C   UNL d   1      53.058  33.119  53.785  0.00  0.00     0.016 A 
ATOM      5  S   UNL d   1      52.299  34.216  53.793  0.00  0.00    -0.066 SA
ATOM      6  N   UNL d   1      54.288  33.752  54.688  0.00  0.00    -0.272 N 
ATOM      7  C   UNL d   1      53.639  34.208  54.512  0.00  0.00     0.089 A 
ATOM      8  C   UNL d   1      54.910  34.056  55.138  0.00  0.00     0.265 C 
ATOM      9  C   UNL d   1      53.722  32.649  53.965  0.00  0.00     0.020 A 
ATOM     10  C   UNL d   1      54.330  32.966  54.412  0.00  0.00     0.083 A 
ATOM     11  O   UNL d   1      54.868  34.833  55.411  0.00  0.00    -0.267 OA
ATOM     12  C   UNL d   1      55.566  33.599  55.318  0.00  0.00     0.066 C 
ENDROOT
BRANCH   1  13
ATOM     13  N   UNL d   1      51.162  33.721  52.992  0.00  0.00    -0.201 NA
ATOM     14  C   UNL d   1      50.824  34.475  52.933  0.00  0.00     0.280 C 
ATOM     15  O   UNL d   1      51.214  35.138  53.231  0.00  0.00    -0.265 OA
BRANCH  14  16
ATOM     16  C   UNL d   1      50.089  34.563  52.570  0.00  0.00     0.059 A 
ATOM     17  C   UNL d   1      49.548  35.096  52.877  0.00  0.00     0.022 A 
ATOM     18  C   UNL d   1      48.812  35.185  52.514  0.00  0.00     0.070 A 
ATOM     19  C   UNL d   1      48.617  34.739  51.844  0.00  0.00     0.018 A 
ATOM     20  C   UNL d   1      49.175  34.199  51.539  0.00  0.00     0.002 A 
ATOM     21  C   UNL d   1      49.911  34.110  51.902  0.00  0.00     0.005 A 
BRANCH  18  22
ATOM     22  N   UNL d   1      48.255  35.722  52.817  0.00  0.00    -0.242 N 
ATOM     23  C   UNL d   1      47.989  35.799  53.589  0.00  0.00     0.267 A 
ATOM     24  C   UNL d   1      47.436  36.412  53.613  0.00  0.00     0.066 A 
ATOM     25  O   UNL d   1      48.217  35.358  54.237  0.00  0.00    -0.267 OA
ATOM     26  C   UNL d   1      47.366  36.709  52.853  0.00  0.00     0.066 A 
ATOM     27  C   UNL d   1      47.880  36.281  52.335  0.00  0.00     0.267 A 
ATOM     28  O   UNL d   1      47.985  36.393  51.534  0.00  0.00    -0.267 OA
ENDBRANCH  18  22
ENDBRANCH  14  16
ENDBRANCH   1  13
BRANCH   2  29
ATOM     29  C   UNL d   1      52.182  32.248  52.983  0.00  0.00     0.298 C 
ATOM     30  O   UNL d   1      52.449  32.112  52.211  0.00  0.00    -0.259 OA
BRANCH  29  31
ATOM     31  O   UNL d   1      51.729  31.675  53.381  0.00  0.00    -0.296 OA
ATOM     32  C   UNL d   1      51.749  30.884  53.135  0.00  0.00     0.185 C 
ENDBRANCH  29  31
ENDBRANCH   2  29
TORSDOF 5
ENDMDL
MODEL 3
REMARK VINA RESULT:      -5.3      1.395      5.700
REMARK  5 active torsions:
REMARK  status: ('A' for Active; 'I' for Inactive)
REMARK    1  A    between atoms: N_7  and  C_1 
REMARK    2  A    between atoms: C_13  and  C_2 
REMARK    3  A    between atoms: N_4  and  C_9 
REMARK       I    between atoms: C_10  and  N_7 
REMARK       I    between atoms: C_15  and  N_8 
REMARK    4  A    between atoms: C_18  and  C_10 
REMARK    5  A    between atoms: O_27  and  C_13 
ROOT
ATOM      1  C   UNL d   1      49.166  35.218  52.899  0.00  0.00     0.119 A 
ATOM      2  C   UNL d   1      48.482  35.293  52.447  0.00  0.00     0.088 A 
ATOM      3  C   UNL d   1      48.202  35.717  53.683  0.00  0.00     0.049 A 
ATOM      4  C   UNL d   1      47.886  35.602  52.934  0.00  0.00     0.016 A 
ATOM      5  S   UNL d   1      48.995  35.481  53.668  0.00  0.00    -0.066 SA
ATOM      6  N   UNL d   1      46.943  36.214  54.145  0.00  0.00    -0.272 N 
ATOM      7  C   UNL d   1      47.720  36.027  54.292  0.00  0.00     0.089 A 
ATOM      8  C   UNL d   1      46.460  36.520  54.741  0.00  0.00     0.265 C 
ATOM      9  C   UNL d   1      47.091  35.793  52.781  0.00  0.00     0.020 A 
ATOM     10  C   UNL d   1      46.626  36.095  53.383  0.00  0.00     0.083 A 
ATOM     11  O   UNL d   1      46.774  36.636  55.495  0.00  0.00    -0.267 OA
ATOM     12  C   UNL d   1      45.676  36.709  54.596  0.00  0.00     0.066 C 
ENDROOT
BRANCH   1  13
ATOM     13  N   UNL d   1      49.899  34.932  52.638  0.00  0.00    -0.201 NA
ATOM     14  C   UNL d   1      50.434  34.619  53.188  0.00  0.00     0.280 C 
ATOM     15  O   UNL d   1      50.246  34.590  53.991  0.00  0.00    -0.265 OA
BRANCH  14  16
ATOM     16  C   UNL d   1      51.163  34.334  52.928  0.00  0.00     0.059 A 
ATOM     17  C   UNL d   1      51.649  33.932  53.452  0.00  0.00     0.022 A 
ATOM     18  C   UNL d   1      52.379  33.647  53.192  0.00  0.00     0.070 A 
ATOM     19  C   UNL d   1      52.622  33.763  52.409  0.00  0.00     0.018 A 
ATOM     20  C   UNL d   1      52.119  34.174  51.884  0.00  0.00     0.002 A 
ATOM     21  C   UNL d   1      51.390  34.459  52.143  0.00  0.00     0.005 A 
BRANCH  18  22
ATOM     22  N   UNL d   1      52.880  33.239  53.713  0.00  0.00    -0.242 N 
ATOM     23  C   UNL d   1      53.365  33.546  54.300  0.00  0.00     0.267 A 
ATOM     24  C   UNL d   1      53.755  32.919  54.669  0.00  0.00     0.066 A 
ATOM     25  O   UNL d   1      53.459  34.331  54.502  0.00  0.00    -0.267 OA
ATOM     26  C   UNL d   1      53.509  32.228  54.305  0.00  0.00     0.066 A 
ATOM     27  C   UNL d   1      52.953  32.414  53.696  0.00  0.00     0.267 A 
ATOM     28  O   UNL d   1      52.569  31.895  53.197  0.00  0.00    -0.267 OA
ENDBRANCH  18  22
ENDBRANCH  14  16
ENDBRANCH   1  13
BRANCH   2  29
ATOM     29  C   UNL d   1      48.410  35.095  51.655  0.00  0.00     0.298 C 
ATOM     30  O   UNL d   1      48.457  35.692  51.083  0.00  0.00    -0.259 OA
BRANCH  29  31
ATOM     31  O   UNL d   1      48.291  34.303  51.431  0.00  0.00    -0.296 OA
ATOM     32  C   UNL d   1      48.012  34.122  50.672  0.00  0.00     0.185 C 
ENDBRANCH  29  31
ENDBRANCH   2  29
TORSDOF 5
ENDMDL
