MODEL 1
REMARK VINA RESULT:      40.1      0.000      0.000
REMARK  2 active torsions:
REMARK  status: ('A' for Active; 'I' for Inactive)
REMARK    1  A    between atoms: C_10  and  C_5 
REMARK    2  A    between atoms: O_22  and  C_15 
ROOT
ATOM      1  C   UNL d   1     -52.629  24.493  33.321  0.00  0.00     0.120 A 
ATOM      2  C   UNL d   1     -52.323  25.259  33.350  0.00  0.00     0.058 A 
ATOM      3  N   UNL d   1     -53.451  24.553  33.307  0.00  0.00    -0.195 NA
ATOM      4  S   UNL d   1     -52.125  23.847  33.310  0.00  0.00    -0.072 SA
ATOM      5  C   UNL d   1     -51.515  25.375  33.368  0.00  0.00     0.005 A 
ATOM      6  C   UNL d   1     -51.316  23.964  33.329  0.00  0.00     0.009 A 
ATOM      7  C   UNL d   1     -51.006  24.730  33.358  0.00  0.00    -0.015 A 
ATOM      8  C   UNL d   1     -53.655  25.356  33.328  0.00  0.00     0.311 A 
ATOM      9  S   UNL d   1     -52.948  25.792  33.354  0.00  0.00    -0.024 SA
ATOM     10  C   UNL d   1     -50.189  24.845  33.376  0.00  0.00     0.045 A 
ATOM     11  C   UNL d   1     -50.809  23.315  33.318  0.00  0.00     0.050 A 
ATOM     12  C   UNL d   1     -50.740  24.134  33.344  0.00  0.00     0.018 A 
ATOM     13  O   UNL d   1     -54.420  25.674  33.324  0.00  0.00    -0.258 OA
ATOM     14  C   UNL d   1     -49.681  24.196  33.366  0.00  0.00    -0.026 A 
ATOM     15  C   UNL d   1     -49.991  23.430  33.337  0.00  0.00    -0.026 A 
ENDROOT
BRANCH   5  16
ATOM     16  C   UNL d   1     -51.209  26.133  33.397  0.00  0.00     0.002 A 
ATOM     17  C   UNL d   1     -50.408  26.249  33.510  0.00  0.00     0.028 A 
ATOM     18  C   UNL d   1     -50.098  27.010  33.539  0.00  0.00     0.133 A 
ATOM     19  C   UNL d   1     -50.598  27.665  33.454  0.00  0.00     0.218 A 
ATOM     20  C   UNL d   1     -51.412  27.546  33.339  0.00  0.00     0.044 A 
ATOM     21  O   UNL d   1     -50.292  28.430  33.483  0.00  0.00    -0.284 OA
ATOM     22  C   UNL d   1     -51.718  26.784  33.310  0.00  0.00     0.003 A 
BRANCH  18  23
ATOM     23  O   UNL d   1     -49.288  27.125  33.654  0.00  0.00    -0.325 OA
ATOM     24  C   UNL d   1     -49.017  27.527  34.323  0.00  0.00     0.181 C 
ENDBRANCH  18  23
ENDBRANCH   5  16
TORSDOF 2
ENDMDL
