MODEL 1
REMARK VINA RESULT:      84.0      0.000      0.000
REMARK  4 active torsions:
REMARK  status: ('A' for Active; 'I' for Inactive)
REMARK    1  A    between atoms: C_2  and  C_1 
REMARK    2  A    between atoms: N_8  and  C_3 
REMARK    3  A    between atoms: C_15  and  N_8 
REMARK    4  A    between atoms: O_18  and  C_16 
ROOT
ATOM      1  C   UNL d   1      58.653  49.488  52.423  0.00  0.00     0.077 A 
ATOM      2  C   UNL d   1      58.315  49.580  51.676  0.00  0.00     0.185 A 
ATOM      3  C   UNL d   1      59.460  49.361  52.497  0.00  0.00     0.009 A 
ATOM      4  O   UNL d   1      58.784  49.545  51.003  0.00  0.00    -0.289 OA
ATOM      5  C   UNL d   1      59.937  49.325  51.821  0.00  0.00     0.025 A 
ATOM      6  C   UNL d   1      59.599  49.417  51.075  0.00  0.00     0.102 A 
ATOM      7  C   UNL d   1      60.724  49.201  51.905  0.00  0.00     0.026 A 
ATOM      8  C   UNL d   1      60.048  49.384  50.411  0.00  0.00     0.027 A 
ATOM      9  C   UNL d   1      61.204  49.164  51.228  0.00  0.00     0.094 A 
ATOM     10  C   UNL d   1      60.866  49.256  50.481  0.00  0.00     0.026 A 
ENDROOT
BRANCH   1  11
ATOM     11  C   UNL d   1      58.185  49.524  53.087  0.00  0.00     0.166 A 
ATOM     12  N   UNL d   1      57.391  49.509  53.084  0.00  0.00    -0.225 NA
ATOM     13  C   UNL d   1      57.117  49.553  53.829  0.00  0.00     0.101 A 
ATOM     14  C   UNL d   1      56.360  49.562  54.176  0.00  0.00     0.021 A 
ATOM     15  C   UNL d   1      57.791  49.598  54.320  0.00  0.00     0.101 A 
ATOM     16  C   UNL d   1      56.301  49.617  55.014  0.00  0.00     0.002 A 
ATOM     17  C   UNL d   1      56.982  49.660  55.494  0.00  0.00     0.002 A 
ATOM     18  C   UNL d   1      57.701  49.653  55.179  0.00  0.00     0.021 A 
ATOM     19  N   UNL d   1      58.462  49.577  53.829  0.00  0.00    -0.225 NA
ENDBRANCH   1  11
BRANCH   2  20
ATOM     20  N   UNL d   1      57.501  49.708  51.603  0.00  0.00    -0.222 NA
BRANCH  20  21
ATOM     21  C   UNL d   1      57.087  49.356  50.998  0.00  0.00     0.084 A 
ATOM     22  C   UNL d   1      56.684  48.664  51.144  0.00  0.00     0.019 A 
ATOM     23  C   UNL d   1      56.273  48.315  50.542  0.00  0.00     0.002 A 
ATOM     24  C   UNL d   1      56.251  48.638  49.793  0.00  0.00     0.000 A 
ATOM     25  C   UNL d   1      56.659  49.332  49.664  0.00  0.00     0.002 A 
ATOM     26  C   UNL d   1      57.083  49.697  50.271  0.00  0.00     0.019 A 
ENDBRANCH  20  21
ENDBRANCH   2  20
BRANCH   9  27
ATOM     27  O   UNL d   1      61.994  49.040  51.304  0.00  0.00    -0.328 OA
ATOM     28  C   UNL d   1      62.501  49.645  51.248  0.00  0.00     0.181 C 
ENDBRANCH   9  27
TORSDOF 4
ENDMDL
