MODEL 1
REMARK VINA RESULT:     186.8      0.000      0.000
REMARK  5 active torsions:
REMARK  status: ('A' for Active; 'I' for Inactive)
REMARK    1  A    between atoms: N_2  and  S_1 
REMARK    2  A    between atoms: C_6  and  S_1 
REMARK       I    between atoms: C_3  and  N_4 
REMARK    3  A    between atoms: C_5  and  C_3 
REMARK    4  A    between atoms: C_11  and  O_13 
REMARK    5  A    between atoms: O_13  and  C_23 
ROOT
ATOM      1  S   UNL d   1     -55.748 -99.268 -40.851  0.00  0.00     0.271 S 
ATOM      2  O   UNL d   1     -56.492 -99.446 -41.173  0.00  0.00    -0.200 OA
ATOM      3  O   UNL d   1     -55.161 -98.939 -41.328  0.00  0.00    -0.200 OA
ENDROOT
BRANCH   1   4
ATOM      4  N   UNL d   1     -56.092 -99.194 -41.603  0.00  0.00    -0.226 N 
ATOM      5  C   UNL d   1     -55.640 -99.333 -42.281  0.00  0.00     0.111 A 
ATOM      6  C   UNL d   1     -55.988 -99.257 -43.026  0.00  0.00     0.103 A 
ATOM      7  N   UNL d   1     -56.774 -99.046 -43.092  0.00  0.00    -0.267 N 
ATOM      8  C   UNL d   1     -57.120 -98.971 -43.840  0.00  0.00     0.288 C 
ATOM      9  C   UNL d   1     -57.233 -98.905 -42.418  0.00  0.00     0.103 A 
ATOM     10  O   UNL d   1     -57.922 -98.755 -43.912  0.00  0.00    -0.264 OA
ATOM     11  C   UNL d   1     -56.887 -98.980 -41.669  0.00  0.00     0.111 A 
BRANCH   8  12
ATOM     12  C   UNL d   1     -56.671 -99.109 -44.524  0.00  0.00     0.156 A 
ATOM     13  O   UNL d   1     -55.920 -98.792 -44.691  0.00  0.00    -0.300 OA
ATOM     14  C   UNL d   1     -55.682 -99.079 -45.431  0.00  0.00     0.123 A 
ATOM     15  C   UNL d   1     -56.282 -99.575 -45.727  0.00  0.00     0.029 A 
ATOM     16  C   UNL d   1     -56.894 -99.590 -45.158  0.00  0.00     0.032 A 
ENDBRANCH   8  12
ENDBRANCH   1   4
BRANCH   1  17
ATOM     17  C   UNL d   1     -55.598 -99.423 -40.052  0.00  0.00     0.104 A 
ATOM     18  C   UNL d   1     -54.884 -99.201 -39.716  0.00  0.00     0.015 A 
ATOM     19  C   UNL d   1     -54.737 -99.356 -38.920  0.00  0.00     0.025 A 
ATOM     20  C   UNL d   1     -55.307 -99.734 -38.464  0.00  0.00     0.100 A 
ATOM     21  C   UNL d   1     -56.025 -99.957 -38.803  0.00  0.00     0.025 A 
ATOM     22  C   UNL d   1     -56.169 -99.801 -39.596  0.00  0.00     0.015 A 
BRANCH  20  23
ATOM     23  O   UNL d   1     -55.167 -99.895 -37.658  0.00  0.00    -0.307 OA
BRANCH  23  24
ATOM     24  C   UNL d   1     -55.076-100.676 -37.409  0.00  0.00     0.100 A 
ATOM     25  C   UNL d   1     -54.944-101.270 -37.959  0.00  0.00     0.023 A 
ATOM     26  C   UNL d   1     -54.904-101.083 -38.759  0.00  0.00     0.002 C 
ATOM     27  C   UNL d   1     -54.852-102.057 -37.716  0.00  0.00     0.002 A 
ATOM     28  C   UNL d   1     -54.893-102.248 -36.913  0.00  0.00     0.000 A 
ATOM     29  C   UNL d   1     -55.026-101.646 -36.361  0.00  0.00     0.002 A 
ATOM     30  C   UNL d   1     -55.117-100.866 -36.610  0.00  0.00     0.025 A 
ENDBRANCH  23  24
ENDBRANCH  20  23
ENDBRANCH   1  17
TORSDOF 5
ENDMDL
