MODEL 1
REMARK VINA RESULT:      -3.0      0.000      0.000
REMARK  4 active torsions:
REMARK  status: ('A' for Active; 'I' for Inactive)
REMARK    1  A    between atoms: C_15  and  C_2 
REMARK    2  A    between atoms: C_3  and  N_6 
REMARK    3  A    between atoms: C_5  and  C_16 
REMARK       I    between atoms: N_6  and  C_5 
REMARK    4  A    between atoms: C_16  and  C_15 
ROOT
ATOM      1  C   UNL d   1      57.766   0.407  33.260  0.00  0.00     0.279 C 
ATOM      2  N   UNL d   1      57.235   0.237  33.864  0.00  0.00    -0.208 NA
ATOM      3  O   UNL d   1      58.518   0.682  33.437  0.00  0.00    -0.265 OA
ENDROOT
BRANCH   1   4
ATOM      4  C   UNL d   1      57.548   0.304  32.471  0.00  0.00     0.065 C 
BRANCH   4   5
ATOM      5  C   UNL d   1      57.967   0.681  31.875  0.00  0.00     0.030 C 
BRANCH   5   6
ATOM      6  C   UNL d   1      57.977   0.366  31.113  0.00  0.00     0.100 A 
ATOM      7  O   UNL d   1      58.374  -0.312  30.860  0.00  0.00    -0.307 OA
ATOM      8  C   UNL d   1      58.233  -0.419  30.063  0.00  0.00     0.100 A 
ATOM      9  C   UNL d   1      57.742   0.197  29.811  0.00  0.00     0.027 A 
ATOM     10  C   UNL d   1      58.522  -1.024  29.596  0.00  0.00     0.027 C 
ATOM     11  C   UNL d   1      57.584   0.681  30.458  0.00  0.00     0.027 A 
ENDBRANCH   5   6
ENDBRANCH   4   5
ENDBRANCH   1   4
BRANCH   2  12
ATOM     12  C   UNL d   1      56.476  -0.041  33.679  0.00  0.00     0.085 A 
ATOM     13  C   UNL d   1      55.824   0.457  33.773  0.00  0.00     0.019 A 
ATOM     14  C   UNL d   1      55.074   0.186  33.592  0.00  0.00     0.002 A 
ATOM     15  C   UNL d   1      54.426   0.680  33.685  0.00  0.00     0.000 C 
ATOM     16  C   UNL d   1      54.967  -0.592  33.312  0.00  0.00     0.000 A 
ATOM     17  C   UNL d   1      55.629  -1.083  33.222  0.00  0.00     0.002 A 
ATOM     18  C   UNL d   1      56.376  -0.809  33.404  0.00  0.00     0.019 A 
ATOM     19  C   UNL d   1      55.523  -1.855  32.945  0.00  0.00     0.000 C 
ENDBRANCH   2  12
TORSDOF 4
ENDMDL
MODEL 2
REMARK VINA RESULT:      -2.1      1.234      1.983
REMARK  4 active torsions:
REMARK  status: ('A' for Active; 'I' for Inactive)
REMARK    1  A    between atoms: C_15  and  C_2 
REMARK    2  A    between atoms: C_3  and  N_6 
REMARK    3  A    between atoms: C_5  and  C_16 
REMARK       I    between atoms: N_6  and  C_5 
REMARK    4  A    between atoms: C_16  and  C_15 
ROOT
ATOM      1  C   UNL d   1      56.962  -1.254  31.552  0.00  0.00     0.279 C 
ATOM      2  N   UNL d   1      56.553  -1.323  32.261  0.00  0.00    -0.208 NA
ATOM      3  O   UNL d   1      57.091  -1.913  31.082  0.00  0.00    -0.265 OA
ENDROOT
BRANCH   1   4
ATOM      4  C   UNL d   1      57.247  -0.520  31.304  0.00  0.00     0.065 C 
BRANCH   4   5
ATOM      5  C   UNL d   1      57.379  -0.375  30.508  0.00  0.00     0.030 C 
BRANCH   5   6
ATOM      6  C   UNL d   1      58.080  -0.017  30.262  0.00  0.00     0.100 A 
ATOM      7  O   UNL d   1      58.767   0.091  30.708  0.00  0.00    -0.307 OA
ATOM      8  C   UNL d   1      59.324   0.470  30.247  0.00  0.00     0.100 A 
ATOM      9  C   UNL d   1      58.986   0.601  29.503  0.00  0.00     0.027 A 
ATOM     10  C   UNL d   1      60.079   0.681  30.475  0.00  0.00     0.027 C 
ATOM     11  C   UNL d   1      58.219   0.301  29.512  0.00  0.00     0.027 A 
ENDBRANCH   5   6
ENDBRANCH   4   5
ENDBRANCH   1   4
BRANCH   2  12
ATOM     12  C   UNL d   1      56.426  -0.652  32.731  0.00  0.00     0.085 A 
ATOM     13  C   UNL d   1      57.057  -0.315  33.143  0.00  0.00     0.019 A 
ATOM     14  C   UNL d   1      56.934   0.346  33.608  0.00  0.00     0.002 A 
ATOM     15  C   UNL d   1      57.561   0.682  34.017  0.00  0.00     0.000 C 
ATOM     16  C   UNL d   1      56.172   0.680  33.666  0.00  0.00     0.000 A 
ATOM     17  C   UNL d   1      55.546   0.333  33.248  0.00  0.00     0.002 A 
ATOM     18  C   UNL d   1      55.673  -0.327  32.785  0.00  0.00     0.019 A 
ATOM     19  C   UNL d   1      54.791   0.665  33.306  0.00  0.00     0.000 C 
ENDBRANCH   2  12
TORSDOF 4
ENDMDL
MODEL 3
REMARK VINA RESULT:      -1.7      1.501      4.021
REMARK  4 active torsions:
REMARK  status: ('A' for Active; 'I' for Inactive)
REMARK    1  A    between atoms: C_15  and  C_2 
REMARK    2  A    between atoms: C_3  and  N_6 
REMARK    3  A    between atoms: C_5  and  C_16 
REMARK       I    between atoms: N_6  and  C_5 
REMARK    4  A    between atoms: C_16  and  C_15 
ROOT
ATOM      1  C   UNL d   1      56.220  -1.451  32.383  0.00  0.00     0.279 C 
ATOM      2  N   UNL d   1      56.866  -1.473  31.877  0.00  0.00    -0.208 NA
ATOM      3  O   UNL d   1      55.823  -2.141  32.577  0.00  0.00    -0.265 OA
ENDROOT
BRANCH   1   4
ATOM      4  C   UNL d   1      55.964  -0.734  32.701  0.00  0.00     0.065 C 
BRANCH   4   5
ATOM      5  C   UNL d   1      55.222  -0.678  33.047  0.00  0.00     0.030 C 
BRANCH   5   6
ATOM      6  C   UNL d   1      55.107  -0.193  33.705  0.00  0.00     0.100 A 
ATOM      7  O   UNL d   1      55.611  -0.107  34.354  0.00  0.00    -0.307 OA
ATOM      8  C   UNL d   1      55.280   0.428  34.874  0.00  0.00     0.100 A 
ATOM      9  C   UNL d   1      54.562   0.682  34.552  0.00  0.00     0.027 A 
ATOM     10  C   UNL d   1      55.599   0.672  35.586  0.00  0.00     0.027 C 
ATOM     11  C   UNL d   1      54.455   0.298  33.830  0.00  0.00     0.027 A 
ENDBRANCH   5   6
ENDBRANCH   4   5
ENDBRANCH   1   4
BRANCH   2  12
ATOM     12  C   UNL d   1      57.264  -0.771  31.684  0.00  0.00     0.085 A 
ATOM     13  C   UNL d   1      57.722  -0.390  32.255  0.00  0.00     0.019 A 
ATOM     14  C   UNL d   1      58.115   0.302  32.068  0.00  0.00     0.002 A 
ATOM     15  C   UNL d   1      58.570   0.682  32.636  0.00  0.00     0.000 C 
ATOM     16  C   UNL d   1      58.054   0.623  31.301  0.00  0.00     0.000 A 
ATOM     17  C   UNL d   1      57.591   0.231  30.735  0.00  0.00     0.002 A 
ATOM     18  C   UNL d   1      57.201  -0.459  30.926  0.00  0.00     0.019 A 
ATOM     19  C   UNL d   1      57.531   0.550  29.974  0.00  0.00     0.000 C 
ENDBRANCH   2  12
TORSDOF 4
ENDMDL
MODEL 4
REMARK VINA RESULT:      -0.7      1.592      4.181
REMARK  4 active torsions:
REMARK  status: ('A' for Active; 'I' for Inactive)
REMARK    1  A    between atoms: C_15  and  C_2 
REMARK    2  A    between atoms: C_3  and  N_6 
REMARK    3  A    between atoms: C_5  and  C_16 
REMARK       I    between atoms: N_6  and  C_5 
REMARK    4  A    between atoms: C_16  and  C_15 
ROOT
ATOM      1  C   UNL d   1      57.400  -1.484  30.962  0.00  0.00     0.279 C 
ATOM      2  N   UNL d   1      57.902  -1.482  30.312  0.00  0.00    -0.208 NA
ATOM      3  O   UNL d   1      57.093  -2.190  31.245  0.00  0.00    -0.265 OA
ENDROOT
BRANCH   1   4
ATOM      4  C   UNL d   1      57.198  -0.777  31.336  0.00  0.00     0.065 C 
BRANCH   4   5
ATOM      5  C   UNL d   1      56.537  -0.740  31.820  0.00  0.00     0.030 C 
BRANCH   5   6
ATOM      6  C   UNL d   1      56.533  -0.245  32.480  0.00  0.00     0.100 A 
ATOM      7  O   UNL d   1      57.149  -0.128  33.018  0.00  0.00    -0.307 OA
ATOM      8  C   UNL d   1      56.906   0.408  33.584  0.00  0.00     0.100 A 
ATOM      9  C   UNL d   1      56.130   0.632  33.401  0.00  0.00     0.027 A 
ATOM     10  C   UNL d   1      57.346   0.678  34.217  0.00  0.00     0.027 C 
ATOM     11  C   UNL d   1      55.901   0.229  32.720  0.00  0.00     0.027 A 
ENDBRANCH   5   6
ENDBRANCH   4   5
ENDBRANCH   1   4
BRANCH   2  12
ATOM     12  C   UNL d   1      58.210  -0.765  30.030  0.00  0.00     0.085 A 
ATOM     13  C   UNL d   1      57.856  -0.394  29.383  0.00  0.00     0.019 A 
ATOM     14  C   UNL d   1      58.157   0.313  29.103  0.00  0.00     0.002 A 
ATOM     15  C   UNL d   1      57.806   0.682  28.460  0.00  0.00     0.000 C 
ATOM     16  C   UNL d   1      58.820   0.660  29.471  0.00  0.00     0.000 A 
ATOM     17  C   UNL d   1      59.167   0.278  30.120  0.00  0.00     0.002 A 
ATOM     18  C   UNL d   1      58.864  -0.427  30.397  0.00  0.00     0.019 A 
ATOM     19  C   UNL d   1      59.825   0.622  30.485  0.00  0.00     0.000 C 
ENDBRANCH   2  12
TORSDOF 4
ENDMDL
