MODEL 1
REMARK VINA RESULT:      92.7      0.000      0.000
REMARK  3 active torsions:
REMARK  status: ('A' for Active; 'I' for Inactive)
REMARK    1  A    between atoms: C_8  and  N_1 
REMARK    2  A    between atoms: C_2  and  C_7 
REMARK    3  A    between atoms: C_7  and  C_9 
ROOT
ATOM      1  N   UNL d   1      59.049  49.439  50.507  0.00  0.00    -0.242 N 
ATOM      2  C   UNL d   1      59.140  49.522  51.332  0.00  0.00     0.267 A 
ATOM      3  C   UNL d   1      59.791  49.252  50.192  0.00  0.00     0.267 A 
ATOM      4  C   UNL d   1      60.338  49.218  50.812  0.00  0.00     0.062 A 
ATOM      5  C   UNL d   1      59.937  49.385  51.515  0.00  0.00     0.066 A 
ATOM      6  O   UNL d   1      58.542  49.707  51.863  0.00  0.00    -0.267 OA
ATOM      7  O   UNL d   1      59.952  49.121  49.390  0.00  0.00    -0.267 OA
ENDROOT
BRANCH   4   8
ATOM      8  C   UNL d   1      61.142  49.048  50.739  0.00  0.00     0.018 C 
BRANCH   8   9
ATOM      9  C   UNL d   1      61.292  48.265  50.551  0.00  0.00     0.045 A 
ATOM     10  N   UNL d   1      61.724  47.993  49.907  0.00  0.00    -0.308 N 
ATOM     11  C   UNL d   1      61.739  47.174  49.927  0.00  0.00     0.060 A 
ATOM     12  C   UNL d   1      62.083  48.470  49.335  0.00  0.00     0.099 C 
ATOM     13  C   UNL d   1      62.082  46.619  49.433  0.00  0.00     0.017 A 
ATOM     14  C   UNL d   1      61.314  46.931  50.587  0.00  0.00    -0.002 A 
ATOM     15  C   UNL d   1      62.002  45.810  49.598  0.00  0.00     0.002 A 
ATOM     16  C   UNL d   1      61.572  45.573  50.264  0.00  0.00    -0.000 A 
ATOM     17  C   UNL d   1      61.231  46.128  50.755  0.00  0.00    -0.003 A 
ATOM     18  C   UNL d   1      61.036  47.606  50.975  0.00  0.00     0.054 A 
ATOM     19  C   UNL d   1      60.845  46.870  51.305  0.00  0.00     0.010 C 
ATOM     20  C   UNL d   1      60.582  47.567  51.669  0.00  0.00     0.010 C 
ENDBRANCH   8   9
ENDBRANCH   4   8
BRANCH   1  21
ATOM     21  C   UNL d   1      58.354  49.526  50.084  0.00  0.00     0.070 A 
ATOM     22  C   UNL d   1      57.625  49.563  50.477  0.00  0.00     0.016 A 
ATOM     23  C   UNL d   1      56.929  49.652  50.042  0.00  0.00     0.001 A 
ATOM     24  C   UNL d   1      57.594  49.513  51.290  0.00  0.00     0.001 A 
ATOM     25  C   UNL d   1      56.207  49.688  50.430  0.00  0.00     0.000 A 
ATOM     26  C   UNL d   1      56.957  49.703  49.223  0.00  0.00     0.000 A 
ATOM     27  C   UNL d   1      56.172  49.638  51.247  0.00  0.00     0.000 A 
ATOM     28  C   UNL d   1      56.872  49.550  51.679  0.00  0.00     0.000 A 
ATOM     29  C   UNL d   1      57.687  49.665  48.830  0.00  0.00     0.002 A 
ATOM     30  C   UNL d   1      58.384  49.578  49.259  0.00  0.00     0.018 A 
ENDBRANCH   1  21
TORSDOF 3
ENDMDL
