MODEL 1
REMARK VINA RESULT:      -4.3      0.000      0.000
REMARK  7 active torsions:
REMARK  status: ('A' for Active; 'I' for Inactive)
REMARK    1  A    between atoms: C_6  and  N_2 
REMARK    2  A    between atoms: C_7  and  C_3 
REMARK    3  A    between atoms: C_15  and  C_6 
REMARK    4  A    between atoms: C_21  and  C_7 
REMARK    5  A    between atoms: C_8  and  O_14 
REMARK    6  A    between atoms: O_14  and  C_15 
REMARK    7  A    between atoms: C_19  and  C_21 
ROOT
ATOM      1  N   UNL d   1      60.341  -1.296  29.019  0.00  0.00    -0.227 NA
ATOM      2  N   UNL d   1      59.018  -1.130  29.292  0.00  0.00    -0.287 N 
ATOM      3  C   UNL d   1      59.759  -0.744  29.256  0.00  0.00     0.148 A 
ATOM      4  C   UNL d   1      59.146  -1.929  29.075  0.00  0.00     0.083 A 
ATOM      5  C   UNL d   1      59.950  -2.028  28.909  0.00  0.00     0.099 A 
ATOM      6  C   UNL d   1      58.632  -2.576  29.007  0.00  0.00     0.019 A 
ATOM      7  C   UNL d   1      60.242  -2.764  28.679  0.00  0.00     0.021 A 
ATOM      8  C   UNL d   1      58.923  -3.313  28.777  0.00  0.00     0.002 A 
ATOM      9  C   UNL d   1      59.728  -3.407  28.612  0.00  0.00     0.002 A 
ENDROOT
BRANCH   2  10
ATOM     10  C   UNL d   1      58.298  -0.795  29.500  0.00  0.00     0.108 C 
BRANCH  10  11
ATOM     11  C   UNL d   1      58.084  -0.720  30.300  0.00  0.00     0.142 C 
BRANCH  11  12
ATOM     12  O   UNL d   1      57.461  -0.231  30.511  0.00  0.00    -0.304 OA
BRANCH  12  13
ATOM     13  C   UNL d   1      57.149  -0.267  31.271  0.00  0.00     0.100 A 
ATOM     14  C   UNL d   1      57.157   0.408  31.750  0.00  0.00     0.025 A 
ATOM     15  C   UNL d   1      56.845   0.371  32.510  0.00  0.00     0.002 A 
ATOM     16  C   UNL d   1      56.522  -0.339  32.797  0.00  0.00     0.000 A 
ATOM     17  C   UNL d   1      56.517  -1.011  32.311  0.00  0.00     0.002 A 
ATOM     18  C   UNL d   1      56.211  -0.370  33.558  0.00  0.00     0.000 C 
ATOM     19  C   UNL d   1      56.832  -0.972  31.547  0.00  0.00     0.025 A 
ENDBRANCH  12  13
ENDBRANCH  11  12
ENDBRANCH  10  11
ENDBRANCH   2  10
BRANCH   3  20
ATOM     20  C   UNL d   1      60.272  -0.102  29.322  0.00  0.00     0.041 C 
BRANCH  20  21
ATOM     21  C   UNL d   1      60.870  -0.112  29.891  0.00  0.00     0.049 C 
BRANCH  21  22
ATOM     22  C   UNL d   1      61.125   0.596  30.230  0.00  0.00     0.234 C 
ATOM     23  O   UNL d   1      61.133   0.682  31.049  0.00  0.00    -0.283 OA
ENDBRANCH  21  22
ENDBRANCH  20  21
ENDBRANCH   3  20
TORSDOF 7
ENDMDL
MODEL 2
REMARK VINA RESULT:      -1.8      1.322      4.226
REMARK  7 active torsions:
REMARK  status: ('A' for Active; 'I' for Inactive)
REMARK    1  A    between atoms: C_6  and  N_2 
REMARK    2  A    between atoms: C_7  and  C_3 
REMARK    3  A    between atoms: C_15  and  C_6 
REMARK    4  A    between atoms: C_21  and  C_7 
REMARK    5  A    between atoms: C_8  and  O_14 
REMARK    6  A    between atoms: O_14  and  C_15 
REMARK    7  A    between atoms: C_19  and  C_21 
ROOT
ATOM      1  N   UNL d   1      57.914   0.315  32.607  0.00  0.00    -0.227 NA
ATOM      2  N   UNL d   1      57.597  -0.222  31.397  0.00  0.00    -0.287 N 
ATOM      3  C   UNL d   1      58.159   0.238  31.810  0.00  0.00     0.148 A 
ATOM      4  C   UNL d   1      56.998  -0.431  31.945  0.00  0.00     0.083 A 
ATOM      5  C   UNL d   1      57.193  -0.104  32.679  0.00  0.00     0.099 A 
ATOM      6  C   UNL d   1      56.303  -0.876  31.867  0.00  0.00     0.019 A 
ATOM      7  C   UNL d   1      56.701  -0.218  33.332  0.00  0.00     0.021 A 
ATOM      8  C   UNL d   1      55.811  -0.991  32.519  0.00  0.00     0.002 A 
ATOM      9  C   UNL d   1      56.009  -0.662  33.251  0.00  0.00     0.002 A 
ENDROOT
BRANCH   2  10
ATOM     10  C   UNL d   1      57.620  -0.433  30.603  0.00  0.00     0.108 C 
BRANCH  10  11
ATOM     11  C   UNL d   1      58.127  -1.038  30.345  0.00  0.00     0.142 C 
BRANCH  11  12
ATOM     12  O   UNL d   1      58.105  -1.280  29.561  0.00  0.00    -0.304 OA
BRANCH  12  13
ATOM     13  C   UNL d   1      58.645  -1.837  29.287  0.00  0.00     0.100 A 
ATOM     14  C   UNL d   1      58.456  -2.642  29.320  0.00  0.00     0.025 A 
ATOM     15  C   UNL d   1      58.996  -3.199  29.046  0.00  0.00     0.002 A 
ATOM     16  C   UNL d   1      59.729  -2.955  28.739  0.00  0.00     0.000 A 
ATOM     17  C   UNL d   1      59.912  -2.147  28.709  0.00  0.00     0.002 A 
ATOM     18  C   UNL d   1      60.265  -3.516  28.467  0.00  0.00     0.000 C 
ATOM     19  C   UNL d   1      59.367  -1.590  28.985  0.00  0.00     0.025 A 
ENDBRANCH  12  13
ENDBRANCH  11  12
ENDBRANCH  10  11
ENDBRANCH   2  10
BRANCH   3  20
ATOM     20  C   UNL d   1      58.850   0.682  31.891  0.00  0.00     0.041 C 
BRANCH  20  21
ATOM     21  C   UNL d   1      59.584   0.306  31.862  0.00  0.00     0.049 C 
BRANCH  21  22
ATOM     22  C   UNL d   1      60.222   0.681  31.496  0.00  0.00     0.234 C 
ATOM     23  O   UNL d   1      60.971   0.647  31.837  0.00  0.00    -0.283 OA
ENDBRANCH  21  22
ENDBRANCH  20  21
ENDBRANCH   3  20
TORSDOF 7
ENDMDL
