MODEL 1
REMARK VINA RESULT:      -8.5      0.000      0.000
REMARK  5 active torsions:
REMARK  status: ('A' for Active; 'I' for Inactive)
REMARK    1  A    between atoms: C_11  and  C_4 
REMARK    2  A    between atoms: N_10  and  C_6 
REMARK    3  A    between atoms: C_13  and  C_9 
REMARK    4  A    between atoms: C_14  and  N_10 
REMARK    5  A    between atoms: C_15  and  C_14 
ROOT
ATOM      1  C   UNL d   1      52.515  33.869  53.742  0.00  0.00     0.167 A 
ATOM      2  N   UNL d   1      51.836  34.204  53.428  0.00  0.00    -0.195 N 
ATOM      3  N   UNL d   1      52.182  35.441  54.000  0.00  0.00    -0.163 NA
ATOM      4  C   UNL d   1      53.015  34.316  54.176  0.00  0.00     0.055 A 
ATOM      5  N   UNL d   1      52.671  33.086  53.607  0.00  0.00    -0.227 NA
ATOM      6  C   UNL d   1      51.336  33.745  52.990  0.00  0.00     0.167 A 
ATOM      7  C   UNL d   1      52.861  35.106  54.314  0.00  0.00     0.104 A 
ATOM      8  C   UNL d   1      51.505  32.938  52.857  0.00  0.00     0.058 A 
ATOM      9  C   UNL d   1      52.170  32.636  53.172  0.00  0.00     0.086 A 
ATOM     10  C   UNL d   1      53.360  35.549  54.747  0.00  0.00     0.023 C 
ENDROOT
BRANCH   6  11
ATOM     11  N   UNL d   1      50.637  34.085  52.666  0.00  0.00    -0.224 NA
BRANCH  11  12
ATOM     12  C   UNL d   1      50.223  34.177  51.939  0.00  0.00     0.120 C 
BRANCH  12  13
ATOM     13  C   UNL d   1      49.488  34.577  51.917  0.00  0.00     0.101 A 
ATOM     14  N   UNL d   1      49.224  35.011  52.588  0.00  0.00    -0.242 NA
ATOM     15  C   UNL d   1      48.488  35.413  52.566  0.00  0.00     0.099 A 
ATOM     16  C   UNL d   1      48.016  35.379  51.868  0.00  0.00     0.021 A 
ATOM     17  C   UNL d   1      48.278  34.945  51.193  0.00  0.00     0.003 A 
ATOM     18  C   UNL d   1      49.017  34.545  51.223  0.00  0.00     0.021 A 
ENDBRANCH  12  13
ENDBRANCH  11  12
ENDBRANCH   6  11
BRANCH   9  19
ATOM     19  C   UNL d   1      52.339  31.811  53.033  0.00  0.00     0.018 C 
ATOM     20  C   UNL d   1      51.925  31.218  53.489  0.00  0.00     0.002 C 
ATOM     21  C   UNL d   1      52.912  31.585  52.449  0.00  0.00     0.002 C 
ENDBRANCH   9  19
BRANCH   4  22
ATOM     22  C   UNL d   1      53.702  33.977  54.494  0.00  0.00     0.004 A 
ATOM     23  C   UNL d   1      53.680  33.633  55.223  0.00  0.00     0.000 A 
ATOM     24  C   UNL d   1      54.357  33.299  55.536  0.00  0.00     0.000 A 
ATOM     25  C   UNL d   1      55.041  33.316  55.112  0.00  0.00     0.000 A 
ATOM     26  C   UNL d   1      55.059  33.665  54.375  0.00  0.00     0.000 A 
ATOM     27  C   UNL d   1      54.389  33.992  54.074  0.00  0.00     0.000 A 
ENDBRANCH   4  22
TORSDOF 5
ENDMDL
MODEL 2
REMARK VINA RESULT:      -8.0      0.946      2.355
REMARK  5 active torsions:
REMARK  status: ('A' for Active; 'I' for Inactive)
REMARK    1  A    between atoms: C_11  and  C_4 
REMARK    2  A    between atoms: N_10  and  C_6 
REMARK    3  A    between atoms: C_13  and  C_9 
REMARK    4  A    between atoms: C_14  and  N_10 
REMARK    5  A    between atoms: C_15  and  C_14 
ROOT
ATOM      1  C   UNL d   1      52.468  33.441  53.339  0.00  0.00     0.167 A 
ATOM      2  N   UNL d   1      51.747  33.517  52.955  0.00  0.00    -0.195 N 
ATOM      3  N   UNL d   1      51.794  32.157  52.600  0.00  0.00    -0.163 NA
ATOM      4  C   UNL d   1      52.841  32.735  53.350  0.00  0.00     0.055 A 
ATOM      5  N   UNL d   1      52.794  34.086  53.703  0.00  0.00    -0.227 NA
ATOM      6  C   UNL d   1      51.377  34.235  52.949  0.00  0.00     0.167 A 
ATOM      7  C   UNL d   1      52.514  32.082  52.983  0.00  0.00     0.104 A 
ATOM      8  C   UNL d   1      51.722  34.896  53.327  0.00  0.00     0.058 A 
ATOM      9  C   UNL d   1      52.421  34.797  53.693  0.00  0.00     0.086 A 
ATOM     10  C   UNL d   1      52.887  31.379  52.995  0.00  0.00     0.023 C 
ENDROOT
BRANCH   6  11
ATOM     11  N   UNL d   1      50.637  34.317  52.556  0.00  0.00    -0.224 NA
BRANCH  11  12
ATOM     12  C   UNL d   1      49.830  34.506  52.700  0.00  0.00     0.120 C 
BRANCH  12  13
ATOM     13  C   UNL d   1      49.306  34.647  52.063  0.00  0.00     0.101 A 
ATOM     14  N   UNL d   1      49.453  34.298  51.311  0.00  0.00    -0.242 NA
ATOM     15  C   UNL d   1      48.928  34.439  50.672  0.00  0.00     0.099 A 
ATOM     16  C   UNL d   1      48.254  34.933  50.788  0.00  0.00     0.021 A 
ATOM     17  C   UNL d   1      48.104  35.285  51.541  0.00  0.00     0.003 A 
ATOM     18  C   UNL d   1      48.635  35.138  52.176  0.00  0.00     0.021 A 
ENDBRANCH  12  13
ENDBRANCH  11  12
ENDBRANCH   6  11
BRANCH   9  19
ATOM     19  C   UNL d   1      52.769  35.474  54.078  0.00  0.00     0.018 C 
ATOM     20  C   UNL d   1      53.334  35.952  53.651  0.00  0.00     0.002 C 
ATOM     21  C   UNL d   1      52.556  35.667  54.877  0.00  0.00     0.002 C 
ENDBRANCH   9  19
BRANCH   4  22
ATOM     22  C   UNL d   1      53.569  32.658  53.738  0.00  0.00     0.004 A 
ATOM     23  C   UNL d   1      54.256  32.774  53.330  0.00  0.00     0.000 A 
ATOM     24  C   UNL d   1      54.974  32.699  53.712  0.00  0.00     0.000 A 
ATOM     25  C   UNL d   1      54.989  32.509  54.494  0.00  0.00     0.000 A 
ATOM     26  C   UNL d   1      54.293  32.393  54.903  0.00  0.00     0.000 A 
ATOM     27  C   UNL d   1      53.590  32.469  54.519  0.00  0.00     0.000 A 
ENDBRANCH   4  22
TORSDOF 5
ENDMDL
MODEL 3
REMARK VINA RESULT:      -7.8      1.623      4.209
REMARK  5 active torsions:
REMARK  status: ('A' for Active; 'I' for Inactive)
REMARK    1  A    between atoms: C_11  and  C_4 
REMARK    2  A    between atoms: N_10  and  C_6 
REMARK    3  A    between atoms: C_13  and  C_9 
REMARK    4  A    between atoms: C_14  and  N_10 
REMARK    5  A    between atoms: C_15  and  C_14 
ROOT
ATOM      1  C   UNL d   1      53.126  33.343  53.846  0.00  0.00     0.167 A 
ATOM      2  N   UNL d   1      53.293  32.551  53.712  0.00  0.00    -0.195 N 
ATOM      3  N   UNL d   1      54.443  32.657  54.514  0.00  0.00    -0.163 NA
ATOM      4  C   UNL d   1      53.612  33.779  54.306  0.00  0.00     0.055 A 
ATOM      5  N   UNL d   1      52.469  33.674  53.508  0.00  0.00    -0.227 NA
ATOM      6  C   UNL d   1      52.796  32.118  53.245  0.00  0.00     0.167 A 
ATOM      7  C   UNL d   1      54.276  33.449  54.647  0.00  0.00     0.104 A 
ATOM      8  C   UNL d   1      52.119  32.468  52.901  0.00  0.00     0.058 A 
ATOM      9  C   UNL d   1      51.979  33.237  53.046  0.00  0.00     0.086 A 
ATOM     10  C   UNL d   1      54.759  33.885  55.105  0.00  0.00     0.023 C 
ENDROOT
BRANCH   6  11
ATOM     11  N   UNL d   1      52.962  31.304  53.105  0.00  0.00    -0.224 NA
BRANCH  11  12
ATOM     12  C   UNL d   1      52.598  30.546  53.102  0.00  0.00     0.120 C 
BRANCH  12  13
ATOM     13  C   UNL d   1      52.906  29.924  53.570  0.00  0.00     0.101 A 
ATOM     14  N   UNL d   1      52.448  29.604  54.200  0.00  0.00    -0.242 NA
ATOM     15  C   UNL d   1      52.757  28.982  54.669  0.00  0.00     0.099 A 
ATOM     16  C   UNL d   1      53.528  28.679  54.506  0.00  0.00     0.021 A 
ATOM     17  C   UNL d   1      53.989  28.998  53.875  0.00  0.00     0.003 A 
ATOM     18  C   UNL d   1      53.672  29.622  53.410  0.00  0.00     0.021 A 
ENDBRANCH  12  13
ENDBRANCH  11  12
ENDBRANCH   6  11
BRANCH   9  19
ATOM     19  C   UNL d   1      51.288  33.591  52.693  0.00  0.00     0.018 C 
ATOM     20  C   UNL d   1      50.543  33.558  53.112  0.00  0.00     0.002 C 
ATOM     21  C   UNL d   1      51.342  33.970  51.936  0.00  0.00     0.002 C 
ENDBRANCH   9  19
BRANCH   4  22
ATOM     22  C   UNL d   1      53.444  34.580  54.441  0.00  0.00     0.004 A 
ATOM     23  C   UNL d   1      53.702  35.139  53.919  0.00  0.00     0.000 A 
ATOM     24  C   UNL d   1      53.537  35.928  54.052  0.00  0.00     0.000 A 
ATOM     25  C   UNL d   1      53.116  36.140  54.705  0.00  0.00     0.000 A 
ATOM     26  C   UNL d   1      52.857  35.572  55.231  0.00  0.00     0.000 A 
ATOM     27  C   UNL d   1      53.024  34.798  55.092  0.00  0.00     0.000 A 
ENDBRANCH   4  22
TORSDOF 5
ENDMDL
MODEL 4
REMARK VINA RESULT:      -6.3      1.835      4.426
REMARK  5 active torsions:
REMARK  status: ('A' for Active; 'I' for Inactive)
REMARK    1  A    between atoms: C_11  and  C_4 
REMARK    2  A    between atoms: N_10  and  C_6 
REMARK    3  A    between atoms: C_13  and  C_9 
REMARK    4  A    between atoms: C_14  and  N_10 
REMARK    5  A    between atoms: C_15  and  C_14 
ROOT
ATOM      1  C   UNL d   1      53.100  33.597  53.946  0.00  0.00     0.167 A 
ATOM      2  N   UNL d   1      52.979  32.826  53.693  0.00  0.00    -0.195 N 
ATOM      3  N   UNL d   1      51.823  33.233  53.004  0.00  0.00    -0.163 NA
ATOM      4  C   UNL d   1      52.589  34.172  53.729  0.00  0.00     0.055 A 
ATOM      5  N   UNL d   1      53.738  33.767  54.415  0.00  0.00    -0.227 NA
ATOM      6  C   UNL d   1      53.500  32.252  53.918  0.00  0.00     0.167 A 
ATOM      7  C   UNL d   1      51.944  34.004  53.257  0.00  0.00     0.104 A 
ATOM      8  C   UNL d   1      54.156  32.436  54.402  0.00  0.00     0.058 A 
ATOM      9  C   UNL d   1      54.252  33.191  54.634  0.00  0.00     0.086 A 
ATOM     10  C   UNL d   1      51.436  34.578  53.042  0.00  0.00     0.023 C 
ENDROOT
BRANCH   6  11
ATOM     11  N   UNL d   1      53.381  31.459  53.660  0.00  0.00    -0.224 NA
BRANCH  11  12
ATOM     12  C   UNL d   1      53.792  30.735  53.536  0.00  0.00     0.120 C 
BRANCH  12  13
ATOM     13  C   UNL d   1      53.427  30.003  53.715  0.00  0.00     0.101 A 
ATOM     14  N   UNL d   1      52.785  29.726  53.246  0.00  0.00    -0.242 NA
ATOM     15  C   UNL d   1      52.420  28.993  53.425  0.00  0.00     0.099 A 
ATOM     16  C   UNL d   1      52.699  28.536  54.077  0.00  0.00     0.021 A 
ATOM     17  C   UNL d   1      53.343  28.811  54.549  0.00  0.00     0.003 A 
ATOM     18  C   UNL d   1      53.704  29.547  54.363  0.00  0.00     0.021 A 
ENDBRANCH  12  13
ENDBRANCH  11  12
ENDBRANCH   6  11
BRANCH   9  19
ATOM     19  C   UNL d   1      54.922  33.375  55.128  0.00  0.00     0.018 C 
ATOM     20  C   UNL d   1      54.846  33.310  55.977  0.00  0.00     0.002 C 
ATOM     21  C   UNL d   1      55.656  33.619  54.778  0.00  0.00     0.002 C 
ENDBRANCH   9  19
BRANCH   4  22
ATOM     22  C   UNL d   1      52.710  34.951  53.985  0.00  0.00     0.004 A 
ATOM     23  C   UNL d   1      52.356  35.212  54.661  0.00  0.00     0.000 A 
ATOM     24  C   UNL d   1      52.476  35.980  54.913  0.00  0.00     0.000 A 
ATOM     25  C   UNL d   1      52.948  36.469  54.484  0.00  0.00     0.000 A 
ATOM     26  C   UNL d   1      53.306  36.201  53.800  0.00  0.00     0.000 A 
ATOM     27  C   UNL d   1      53.182  35.444  53.559  0.00  0.00     0.000 A 
ENDBRANCH   4  22
TORSDOF 5
ENDMDL
MODEL 5
REMARK VINA RESULT:      -6.2      1.590      3.306
REMARK  5 active torsions:
REMARK  status: ('A' for Active; 'I' for Inactive)
REMARK    1  A    between atoms: C_11  and  C_4 
REMARK    2  A    between atoms: N_10  and  C_6 
REMARK    3  A    between atoms: C_13  and  C_9 
REMARK    4  A    between atoms: C_14  and  N_10 
REMARK    5  A    between atoms: C_15  and  C_14 
ROOT
ATOM      1  C   UNL d   1      53.051  31.520  53.501  0.00  0.00     0.167 A 
ATOM      2  N   UNL d   1      52.633  32.083  53.075  0.00  0.00    -0.195 N 
ATOM      3  N   UNL d   1      51.946  31.061  52.397  0.00  0.00    -0.163 NA
ATOM      4  C   UNL d   1      52.915  30.743  53.373  0.00  0.00     0.055 A 
ATOM      5  N   UNL d   1      53.598  31.760  54.047  0.00  0.00    -0.227 NA
ATOM      6  C   UNL d   1      52.776  32.866  53.211  0.00  0.00     0.167 A 
ATOM      7  C   UNL d   1      52.364  30.498  52.823  0.00  0.00     0.104 A 
ATOM      8  C   UNL d   1      53.343  33.104  53.777  0.00  0.00     0.058 A 
ATOM      9  C   UNL d   1      53.736  32.540  54.177  0.00  0.00     0.086 A 
ATOM     10  C   UNL d   1      52.230  29.724  52.697  0.00  0.00     0.023 C 
ENDROOT
BRANCH   6  11
ATOM     11  N   UNL d   1      52.350  33.448  52.776  0.00  0.00    -0.224 NA
BRANCH  11  12
ATOM     12  C   UNL d   1      51.955  34.185  52.870  0.00  0.00     0.120 C 
BRANCH  12  13
ATOM     13  C   UNL d   1      51.195  34.305  52.540  0.00  0.00     0.101 A 
ATOM     14  N   UNL d   1      51.086  34.261  51.706  0.00  0.00    -0.242 NA
ATOM     15  C   UNL d   1      50.325  34.381  51.375  0.00  0.00     0.099 A 
ATOM     16  C   UNL d   1      49.671  34.545  51.882  0.00  0.00     0.021 A 
ATOM     17  C   UNL d   1      49.777  34.590  52.718  0.00  0.00     0.003 A 
ATOM     18  C   UNL d   1      50.543  34.469  53.042  0.00  0.00     0.021 A 
ENDBRANCH  12  13
ENDBRANCH  11  12
ENDBRANCH   6  11
BRANCH   9  19
ATOM     19  C   UNL d   1      54.313  32.787  54.753  0.00  0.00     0.018 C 
ATOM     20  C   UNL d   1      55.086  33.040  54.488  0.00  0.00     0.002 C 
ATOM     21  C   UNL d   1      54.121  32.780  55.580  0.00  0.00     0.002 C 
ENDBRANCH   9  19
BRANCH   4  22
ATOM     22  C   UNL d   1      53.337  30.174  53.803  0.00  0.00     0.004 A 
ATOM     23  C   UNL d   1      53.030  29.878  54.488  0.00  0.00     0.000 A 
ATOM     24  C   UNL d   1      53.446  29.317  54.912  0.00  0.00     0.000 A 
ATOM     25  C   UNL d   1      54.161  29.065  54.641  0.00  0.00     0.000 A 
ATOM     26  C   UNL d   1      54.469  29.367  53.948  0.00  0.00     0.000 A 
ATOM     27  C   UNL d   1      54.053  29.919  53.537  0.00  0.00     0.000 A 
ENDBRANCH   4  22
TORSDOF 5
ENDMDL
MODEL 6
REMARK VINA RESULT:      -5.5     10.075     11.364
REMARK  5 active torsions:
REMARK  status: ('A' for Active; 'I' for Inactive)
REMARK    1  A    between atoms: C_11  and  C_4 
REMARK    2  A    between atoms: N_10  and  C_6 
REMARK    3  A    between atoms: C_13  and  C_9 
REMARK    4  A    between atoms: C_14  and  N_10 
REMARK    5  A    between atoms: C_15  and  C_14 
ROOT
ATOM      1  C   UNL d   1      44.779  29.026  59.292  0.00  0.00     0.167 A 
ATOM      2  N   UNL d   1      44.634  29.296  60.053  0.00  0.00    -0.195 N 
ATOM      3  N   UNL d   1      44.482  27.970  60.494  0.00  0.00    -0.163 NA
ATOM      4  C   UNL d   1      44.774  28.242  59.140  0.00  0.00     0.055 A 
ATOM      5  N   UNL d   1      44.926  29.560  58.701  0.00  0.00    -0.227 NA
ATOM      6  C   UNL d   1      44.641  30.091  60.197  0.00  0.00     0.167 A 
ATOM      7  C   UNL d   1      44.627  27.700  59.733  0.00  0.00     0.104 A 
ATOM      8  C   UNL d   1      44.793  30.635  59.581  0.00  0.00     0.058 A 
ATOM      9  C   UNL d   1      44.931  30.349  58.852  0.00  0.00     0.086 A 
ATOM     10  C   UNL d   1      44.622  26.919  59.581  0.00  0.00     0.023 C 
ENDROOT
BRANCH   6  11
ATOM     11  N   UNL d   1      44.492  30.373  60.976  0.00  0.00    -0.224 NA
BRANCH  11  12
ATOM     12  C   UNL d   1      44.314  31.077  61.402  0.00  0.00     0.120 C 
BRANCH  12  13
ATOM     13  C   UNL d   1      44.319  31.079  62.239  0.00  0.00     0.101 A 
ATOM     14  N   UNL d   1      44.323  31.810  62.658  0.00  0.00    -0.242 NA
ATOM     15  C   UNL d   1      44.328  31.813  63.496  0.00  0.00     0.099 A 
ATOM     16  C   UNL d   1      44.328  31.081  63.916  0.00  0.00     0.021 A 
ATOM     17  C   UNL d   1      44.324  30.347  63.499  0.00  0.00     0.003 A 
ATOM     18  C   UNL d   1      44.320  30.353  62.658  0.00  0.00     0.021 A 
ENDBRANCH  12  13
ENDBRANCH  11  12
ENDBRANCH   6  11
BRANCH   9  19
ATOM     19  C   UNL d   1      45.086  30.907  58.226  0.00  0.00     0.018 C 
ATOM     20  C   UNL d   1      44.430  31.310  57.855  0.00  0.00     0.002 C 
ATOM     21  C   UNL d   1      45.883  31.059  57.977  0.00  0.00     0.002 C 
ENDBRANCH   9  19
BRANCH   4  22
ATOM     22  C   UNL d   1      44.921  27.969  58.371  0.00  0.00     0.004 A 
ATOM     23  C   UNL d   1      45.667  27.743  58.160  0.00  0.00     0.000 A 
ATOM     24  C   UNL d   1      45.812  27.475  57.402  0.00  0.00     0.000 A 
ATOM     25  C   UNL d   1      45.207  27.437  56.873  0.00  0.00     0.000 A 
ATOM     26  C   UNL d   1      44.454  27.665  57.090  0.00  0.00     0.000 A 
ATOM     27  C   UNL d   1      44.321  27.929  57.838  0.00  0.00     0.000 A 
ENDBRANCH   4  22
TORSDOF 5
ENDMDL
