MODEL 1
REMARK VINA RESULT:      -5.8      0.000      0.000
REMARK  3 active torsions:
REMARK  status: ('A' for Active; 'I' for Inactive)
REMARK    1  A    between atoms: C_11  and  C_3 
REMARK    2  A    between atoms: O_13  and  C_10 
REMARK    3  A    between atoms: C_21  and  O_13 
ROOT
ATOM      1  C   UNL d   1      57.468  -0.691  30.991  0.00  0.00     0.203 A 
ATOM      2  C   UNL d   1      58.059  -0.648  30.417  0.00  0.00     0.101 A 
ATOM      3  C   UNL d   1      57.331  -0.047  31.485  0.00  0.00     0.064 A 
ATOM      4  C   UNL d   1      58.510   0.038  30.339  0.00  0.00     0.108 A 
ATOM      5  C   UNL d   1      58.196  -1.292  29.923  0.00  0.00     0.203 A 
ATOM      6  C   UNL d   1      57.782   0.639  31.406  0.00  0.00     0.126 A 
ATOM      7  O   UNL d   1      58.372   0.682  30.833  0.00  0.00    -0.305 OA
ATOM      8  C   UNL d   1      59.099   0.081  29.766  0.00  0.00     0.050 A 
ATOM      9  C   UNL d   1      58.788  -1.251  29.347  0.00  0.00     0.067 A 
ATOM     10  C   UNL d   1      59.240  -0.565  29.268  0.00  0.00     0.105 A 
ATOM     11  O   UNL d   1      57.018  -1.376  31.069  0.00  0.00    -0.286 OA
ATOM     12  O   UNL d   1      57.745  -1.978  30.002  0.00  0.00    -0.286 OA
ENDROOT
BRANCH   3  13
ATOM     13  C   UNL d   1      56.741  -0.090  32.058  0.00  0.00     0.005 A 
ATOM     14  C   UNL d   1      56.634  -0.789  32.500  0.00  0.00     0.003 A 
ATOM     15  C   UNL d   1      56.044  -0.832  33.073  0.00  0.00     0.042 A 
ATOM     16  C   UNL d   1      55.553  -0.179  33.214  0.00  0.00     0.196 A 
ATOM     17  C   UNL d   1      55.661   0.520  32.771  0.00  0.00     0.042 A 
ATOM     18  O   UNL d   1      54.964  -0.222  33.787  0.00  0.00    -0.287 OA
ATOM     19  C   UNL d   1      56.250   0.563  32.199  0.00  0.00     0.003 A 
ENDBRANCH   3  13
BRANCH  10  20
ATOM     20  O   UNL d   1      59.834  -0.526  28.689  0.00  0.00    -0.307 OA
BRANCH  20  21
ATOM     21  C   UNL d   1      60.614  -0.711  28.873  0.00  0.00     0.100 C 
ATOM     22  C   UNL d   1      60.880  -1.491  28.815  0.00  0.00     0.027 C 
ATOM     23  C   UNL d   1      61.133  -0.119  29.117  0.00  0.00     0.027 C 
ENDBRANCH  20  21
ENDBRANCH  10  20
TORSDOF 3
ENDMDL
MODEL 2
REMARK VINA RESULT:      -5.5      1.087      4.700
REMARK  3 active torsions:
REMARK  status: ('A' for Active; 'I' for Inactive)
REMARK    1  A    between atoms: C_11  and  C_3 
REMARK    2  A    between atoms: O_13  and  C_10 
REMARK    3  A    between atoms: C_21  and  O_13 
ROOT
ATOM      1  C   UNL d   1      57.143  -0.617  31.572  0.00  0.00     0.203 A 
ATOM      2  C   UNL d   1      56.732  -0.558  32.284  0.00  0.00     0.101 A 
ATOM      3  C   UNL d   1      57.675  -0.027  31.357  0.00  0.00     0.064 A 
ATOM      4  C   UNL d   1      56.852   0.091  32.778  0.00  0.00     0.108 A 
ATOM      5  C   UNL d   1      56.200  -1.148  32.499  0.00  0.00     0.203 A 
ATOM      6  C   UNL d   1      57.795   0.622  31.852  0.00  0.00     0.126 A 
ATOM      7  O   UNL d   1      57.385   0.682  32.562  0.00  0.00    -0.305 OA
ATOM      8  C   UNL d   1      56.442   0.151  33.489  0.00  0.00     0.050 A 
ATOM      9  C   UNL d   1      55.786  -1.090  33.213  0.00  0.00     0.067 A 
ATOM     10  C   UNL d   1      55.907  -0.441  33.708  0.00  0.00     0.105 A 
ATOM     11  O   UNL d   1      57.022  -1.265  31.078  0.00  0.00    -0.286 OA
ATOM     12  O   UNL d   1      56.079  -1.796  32.005  0.00  0.00    -0.286 OA
ENDROOT
BRANCH   3  13
ATOM     13  C   UNL d   1      58.086  -0.086  30.645  0.00  0.00     0.005 A 
ATOM     14  C   UNL d   1      58.698  -0.647  30.559  0.00  0.00     0.003 A 
ATOM     15  C   UNL d   1      59.109  -0.705  29.848  0.00  0.00     0.042 A 
ATOM     16  C   UNL d   1      58.916  -0.207  29.214  0.00  0.00     0.196 A 
ATOM     17  C   UNL d   1      58.304   0.353  29.301  0.00  0.00     0.042 A 
ATOM     18  O   UNL d   1      59.328  -0.267  28.503  0.00  0.00    -0.287 OA
ATOM     19  C   UNL d   1      57.894   0.412  30.011  0.00  0.00     0.003 A 
ENDBRANCH   3  13
BRANCH  10  20
ATOM     20  O   UNL d   1      55.490  -0.385  34.425  0.00  0.00    -0.307 OA
BRANCH  20  21
ATOM     21  C   UNL d   1      55.136   0.322  34.650  0.00  0.00     0.100 C 
ATOM     22  C   UNL d   1      55.343   0.682  35.364  0.00  0.00     0.027 C 
ATOM     23  C   UNL d   1      54.571   0.676  34.163  0.00  0.00     0.027 C 
ENDBRANCH  20  21
ENDBRANCH  10  20
TORSDOF 3
ENDMDL
MODEL 3
REMARK VINA RESULT:      -4.8      0.789      1.553
REMARK  3 active torsions:
REMARK  status: ('A' for Active; 'I' for Inactive)
REMARK    1  A    between atoms: C_11  and  C_3 
REMARK    2  A    between atoms: O_13  and  C_10 
REMARK    3  A    between atoms: C_21  and  O_13 
ROOT
ATOM      1  C   UNL d   1      57.532  -0.125  31.546  0.00  0.00     0.203 A 
ATOM      2  C   UNL d   1      57.931  -0.427  30.892  0.00  0.00     0.101 A 
ATOM      3  C   UNL d   1      56.883  -0.529  31.852  0.00  0.00     0.064 A 
ATOM      4  C   UNL d   1      57.682  -1.132  30.544  0.00  0.00     0.108 A 
ATOM      5  C   UNL d   1      58.580  -0.023  30.586  0.00  0.00     0.203 A 
ATOM      6  C   UNL d   1      56.634  -1.234  31.505  0.00  0.00     0.126 A 
ATOM      7  O   UNL d   1      57.032  -1.536  30.851  0.00  0.00    -0.305 OA
ATOM      8  C   UNL d   1      58.080  -1.435  29.891  0.00  0.00     0.050 A 
ATOM      9  C   UNL d   1      58.982  -0.325  29.929  0.00  0.00     0.067 A 
ATOM     10  C   UNL d   1      58.732  -1.030  29.581  0.00  0.00     0.105 A 
ATOM     11  O   UNL d   1      57.781   0.580  31.893  0.00  0.00    -0.286 OA
ATOM     12  O   UNL d   1      58.829   0.682  30.932  0.00  0.00    -0.286 OA
ENDROOT
BRANCH   3  13
ATOM     13  C   UNL d   1      56.484  -0.226  32.506  0.00  0.00     0.005 A 
ATOM     14  C   UNL d   1      56.644  -0.523  33.270  0.00  0.00     0.003 A 
ATOM     15  C   UNL d   1      56.245  -0.220  33.923  0.00  0.00     0.042 A 
ATOM     16  C   UNL d   1      55.682   0.380  33.826  0.00  0.00     0.196 A 
ATOM     17  C   UNL d   1      55.523   0.676  33.062  0.00  0.00     0.042 A 
ATOM     18  O   UNL d   1      55.283   0.682  34.480  0.00  0.00    -0.287 OA
ATOM     19  C   UNL d   1      55.921   0.374  32.409  0.00  0.00     0.003 A 
ENDBRANCH   3  13
BRANCH  10  20
ATOM     20  O   UNL d   1      59.137  -1.332  28.922  0.00  0.00    -0.307 OA
BRANCH  20  21
ATOM     21  C   UNL d   1      59.645  -1.975  28.998  0.00  0.00     0.100 C 
ATOM     22  C   UNL d   1      60.443  -1.855  29.174  0.00  0.00     0.027 C 
ATOM     23  C   UNL d   1      59.359  -2.742  28.900  0.00  0.00     0.027 C 
ENDBRANCH  20  21
ENDBRANCH  10  20
TORSDOF 3
ENDMDL
MODEL 4
REMARK VINA RESULT:      -3.8      1.016      4.704
REMARK  3 active torsions:
REMARK  status: ('A' for Active; 'I' for Inactive)
REMARK    1  A    between atoms: C_11  and  C_3 
REMARK    2  A    between atoms: O_13  and  C_10 
REMARK    3  A    between atoms: C_21  and  O_13 
ROOT
ATOM      1  C   UNL d   1      58.535   0.301  31.238  0.00  0.00     0.203 A 
ATOM      2  C   UNL d   1      57.880   0.396  31.728  0.00  0.00     0.101 A 
ATOM      3  C   UNL d   1      58.429   0.111  30.444  0.00  0.00     0.064 A 
ATOM      4  C   UNL d   1      57.119   0.300  31.424  0.00  0.00     0.108 A 
ATOM      5  C   UNL d   1      57.986   0.586  32.522  0.00  0.00     0.203 A 
ATOM      6  C   UNL d   1      57.668   0.015  30.140  0.00  0.00     0.126 A 
ATOM      7  O   UNL d   1      57.013   0.109  30.630  0.00  0.00    -0.305 OA
ATOM      8  C   UNL d   1      56.464   0.394  31.913  0.00  0.00     0.050 A 
ATOM      9  C   UNL d   1      57.329   0.682  33.016  0.00  0.00     0.067 A 
ATOM     10  C   UNL d   1      56.568   0.586  32.712  0.00  0.00     0.105 A 
ATOM     11  O   UNL d   1      59.295   0.397  31.542  0.00  0.00    -0.286 OA
ATOM     12  O   UNL d   1      58.746   0.682  32.826  0.00  0.00    -0.286 OA
ENDROOT
BRANCH   3  13
ATOM     13  C   UNL d   1      59.084   0.016  29.954  0.00  0.00     0.005 A 
ATOM     14  C   UNL d   1      59.344  -0.748  29.742  0.00  0.00     0.003 A 
ATOM     15  C   UNL d   1      59.999  -0.842  29.252  0.00  0.00     0.042 A 
ATOM     16  C   UNL d   1      60.404  -0.177  28.968  0.00  0.00     0.196 A 
ATOM     17  C   UNL d   1      60.144   0.586  29.180  0.00  0.00     0.042 A 
ATOM     18  O   UNL d   1      61.059  -0.273  28.478  0.00  0.00    -0.287 OA
ATOM     19  C   UNL d   1      59.490   0.681  29.669  0.00  0.00     0.003 A 
ENDBRANCH   3  13
BRANCH  10  20
ATOM     20  O   UNL d   1      55.910   0.682  33.209  0.00  0.00    -0.307 OA
BRANCH  20  21
ATOM     21  C   UNL d   1      55.631   0.055  33.662  0.00  0.00     0.100 C 
ATOM     22  C   UNL d   1      55.528  -0.691  33.322  0.00  0.00     0.027 C 
ATOM     23  C   UNL d   1      55.452   0.168  34.460  0.00  0.00     0.027 C 
ENDBRANCH  20  21
ENDBRANCH  10  20
TORSDOF 3
ENDMDL
