MODEL 1
REMARK VINA RESULT:      44.1      0.000      0.000
REMARK  6 active torsions:
REMARK  status: ('A' for Active; 'I' for Inactive)
REMARK    1  A    between atoms: C_6  and  N_1 
REMARK    2  A    between atoms: C_12  and  C_6 
REMARK    3  A    between atoms: O_18  and  C_7 
REMARK    4  A    between atoms: O_19  and  C_10 
REMARK    5  A    between atoms: C_21  and  O_19 
REMARK    6  A    between atoms: C_23  and  C_21 
ROOT
ATOM      1  C   UNL d   1      14.813  15.286  -1.900  0.00  0.00     0.117 A 
ATOM      2  C   UNL d   1      14.928  15.425  -1.091  0.00  0.00     0.122 A 
ATOM      3  C   UNL d   1      14.861  14.520  -2.188  0.00  0.00     0.028 A 
ATOM      4  C   UNL d   1      15.020  13.898  -1.682  0.00  0.00     0.020 A 
ATOM      5  C   UNL d   1      15.088  14.798  -0.585  0.00  0.00     0.027 A 
ATOM      6  C   UNL d   1      15.134  14.030  -0.884  0.00  0.00     0.004 A 
ENDROOT
BRANCH   4   7
ATOM      7  C   UNL d   1      15.066  13.131  -1.981  0.00  0.00     0.085 C 
BRANCH   7   8
ATOM      8  N   UNL d   1      14.393  12.653  -1.989  0.00  0.00    -0.251 N 
ATOM      9  C   UNL d   1      14.042  12.232  -1.359  0.00  0.00     0.378 A 
ATOM     10  O   UNL d   1      13.377  11.837  -1.653  0.00  0.00    -0.258 OA
ATOM     11  O   UNL d   1      14.317  12.219  -0.583  0.00  0.00    -0.237 OA
ATOM     12  C   UNL d   1      13.314  12.011  -2.462  0.00  0.00     0.121 A 
ATOM     13  C   UNL d   1      13.941  12.515  -2.670  0.00  0.00     0.092 A 
ATOM     14  C   UNL d   1      12.771  11.781  -3.042  0.00  0.00     0.026 A 
ATOM     15  C   UNL d   1      14.025  12.783  -3.441  0.00  0.00     0.020 A 
ATOM     16  C   UNL d   1      13.478  12.547  -4.013  0.00  0.00     0.002 A 
ATOM     17  C   UNL d   1      12.854  12.048  -3.814  0.00  0.00     0.002 A 
ATOM     18  C   UNL d   1      13.566  12.820  -4.790  0.00  0.00     0.000 C 
ENDBRANCH   7   8
ENDBRANCH   4   7
BRANCH   1  19
ATOM     19  O   UNL d   1      14.654  15.910  -2.403  0.00  0.00    -0.326 OA
ATOM     20  C   UNL d   1      14.382  15.559  -3.098  0.00  0.00     0.181 C 
ENDBRANCH   1  19
BRANCH   2  21
ATOM     21  O   UNL d   1      14.881  16.192  -0.798  0.00  0.00    -0.303 OA
BRANCH  21  22
ATOM     22  C   UNL d   1      15.564  16.624  -0.681  0.00  0.00     0.123 C 
BRANCH  22  23
ATOM     23  C   UNL d   1      15.520  17.428  -0.500  0.00  0.00     0.027 C 
ATOM     24  C   UNL d   1      16.166  17.919  -0.639  0.00  0.00     0.002 C 
ENDBRANCH  22  23
ENDBRANCH  21  22
ENDBRANCH   2  21
TORSDOF 6
ENDMDL
MODEL 2
REMARK VINA RESULT:      46.3      1.945      4.357
REMARK  6 active torsions:
REMARK  status: ('A' for Active; 'I' for Inactive)
REMARK    1  A    between atoms: C_6  and  N_1 
REMARK    2  A    between atoms: C_12  and  C_6 
REMARK    3  A    between atoms: O_18  and  C_7 
REMARK    4  A    between atoms: O_19  and  C_10 
REMARK    5  A    between atoms: C_21  and  O_19 
REMARK    6  A    between atoms: C_23  and  C_21 
ROOT
ATOM      1  C   UNL d   1      13.274  12.502  -3.405  0.00  0.00     0.117 A 
ATOM      2  C   UNL d   1      13.758  12.541  -2.734  0.00  0.00     0.122 A 
ATOM      3  C   UNL d   1      13.076  13.193  -3.799  0.00  0.00     0.028 A 
ATOM      4  C   UNL d   1      13.353  13.914  -3.533  0.00  0.00     0.020 A 
ATOM      5  C   UNL d   1      14.036  13.267  -2.468  0.00  0.00     0.027 A 
ATOM      6  C   UNL d   1      13.831  13.958  -2.871  0.00  0.00     0.004 A 
ENDROOT
BRANCH   4   7
ATOM      7  C   UNL d   1      13.148  14.604  -3.936  0.00  0.00     0.085 C 
BRANCH   7   8
ATOM      8  N   UNL d   1      13.711  14.989  -4.402  0.00  0.00    -0.251 N 
ATOM      9  C   UNL d   1      13.900  14.863  -5.205  0.00  0.00     0.378 A 
ATOM     10  O   UNL d   1      14.503  15.391  -5.413  0.00  0.00    -0.258 OA
ATOM     11  O   UNL d   1      13.544  14.307  -5.697  0.00  0.00    -0.237 OA
ATOM     12  C   UNL d   1      14.687  15.843  -4.743  0.00  0.00     0.121 A 
ATOM     13  C   UNL d   1      14.198  15.595  -4.118  0.00  0.00     0.092 A 
ATOM     14  C   UNL d   1      15.235  16.449  -4.611  0.00  0.00     0.026 A 
ATOM     15  C   UNL d   1      14.255  15.946  -3.378  0.00  0.00     0.020 A 
ATOM     16  C   UNL d   1      14.805  16.550  -3.257  0.00  0.00     0.002 A 
ATOM     17  C   UNL d   1      15.292  16.801  -3.871  0.00  0.00     0.002 A 
ATOM     18  C   UNL d   1      14.858  16.902  -2.508  0.00  0.00     0.000 C 
ENDBRANCH   7   8
ENDBRANCH   4   7
BRANCH   1  19
ATOM     19  O   UNL d   1      12.999  11.779  -3.669  0.00  0.00    -0.326 OA
ATOM     20  C   UNL d   1      13.093  11.802  -4.488  0.00  0.00     0.181 C 
ENDBRANCH   1  19
BRANCH   2  21
ATOM     21  O   UNL d   1      13.960  11.851  -2.336  0.00  0.00    -0.303 OA
BRANCH  21  22
ATOM     22  C   UNL d   1      14.429  11.890  -1.667  0.00  0.00     0.123 C 
BRANCH  22  23
ATOM     23  C   UNL d   1      14.096  11.779  -0.920  0.00  0.00     0.027 C 
ATOM     24  C   UNL d   1      14.515  11.991  -0.245  0.00  0.00     0.002 C 
ENDBRANCH  22  23
ENDBRANCH  21  22
ENDBRANCH   2  21
TORSDOF 6
ENDMDL
