MODEL 1
REMARK VINA RESULT:      -8.9      0.000      0.000
REMARK  3 active torsions:
REMARK  status: ('A' for Active; 'I' for Inactive)
REMARK    1  A    between atoms: N_6  and  S_1 
REMARK    2  A    between atoms: C_7  and  S_1 
REMARK    3  A    between atoms: C_10  and  N_6 
ROOT
ATOM      1  S   UNL d   1      51.454  33.829  53.052  0.00  0.00     0.327 S 
ATOM      2  O   UNL d   1      51.462  34.465  52.533  0.00  0.00    -0.186 OA
ATOM      3  O   UNL d   1      50.738  33.509  53.301  0.00  0.00    -0.186 OA
ENDROOT
BRANCH   1   4
ATOM      4  N   UNL d   1      50.751  34.152  52.777  0.00  0.00    -0.317 NA
BRANCH   4   5
ATOM      5  C   UNL d   1      50.032  34.483  52.496  0.00  0.00     0.145 A 
ATOM      6  C   UNL d   1      49.787  34.324  51.718  0.00  0.00     0.033 A 
ATOM      7  C   UNL d   1      49.078  34.651  51.443  0.00  0.00     0.003 A 
ATOM      8  C   UNL d   1      48.825  34.501  50.674  0.00  0.00     0.000 C 
ATOM      9  C   UNL d   1      48.623  35.131  51.942  0.00  0.00     0.000 A 
ATOM     10  C   UNL d   1      48.876  35.281  52.711  0.00  0.00     0.003 A 
ATOM     11  C   UNL d   1      49.582  34.956  52.986  0.00  0.00     0.033 A 
ATOM     12  C   UNL d   1      48.428  35.756  53.208  0.00  0.00     0.000 C 
ENDBRANCH   4   5
ENDBRANCH   1   4
BRANCH   1  13
ATOM     13  C   UNL d   1      52.162  33.513  53.321  0.00  0.00     0.118 A 
ATOM     14  C   UNL d   1      52.586  33.899  53.909  0.00  0.00     0.035 A 
ATOM     15  C   UNL d   1      53.301  33.583  54.184  0.00  0.00     0.105 A 
ATOM     16  N   UNL d   1      53.838  33.838  54.755  0.00  0.00    -0.189 NA
ATOM     17  C   UNL d   1      53.588  32.872  53.863  0.00  0.00     0.104 A 
ATOM     18  C   UNL d   1      54.462  33.287  54.792  0.00  0.00     0.369 A 
ATOM     19  O   UNL d   1      55.117  33.327  55.288  0.00  0.00    -0.242 OA
ATOM     20  N   UNL d   1      54.301  32.694  54.238  0.00  0.00    -0.189 NA
ATOM     21  C   UNL d   1      53.157  32.485  53.270  0.00  0.00     0.022 A 
ATOM     22  C   UNL d   1      52.446  32.809  53.003  0.00  0.00     0.016 A 
ENDBRANCH   1  13
TORSDOF 3
ENDMDL
MODEL 2
REMARK VINA RESULT:      -8.7      1.326      4.914
REMARK  3 active torsions:
REMARK  status: ('A' for Active; 'I' for Inactive)
REMARK    1  A    between atoms: N_6  and  S_1 
REMARK    2  A    between atoms: C_7  and  S_1 
REMARK    3  A    between atoms: C_10  and  N_6 
ROOT
ATOM      1  S   UNL d   1      51.308  33.866  53.044  0.00  0.00     0.327 S 
ATOM      2  O   UNL d   1      51.271  33.265  53.603  0.00  0.00    -0.186 OA
ATOM      3  O   UNL d   1      52.038  34.122  52.762  0.00  0.00    -0.186 OA
ENDROOT
BRANCH   1   4
ATOM      4  N   UNL d   1      51.995  33.516  53.326  0.00  0.00    -0.317 NA
BRANCH   4   5
ATOM      5  C   UNL d   1      52.697  33.158  53.616  0.00  0.00     0.145 A 
ATOM      6  C   UNL d   1      53.162  33.564  54.172  0.00  0.00     0.033 A 
ATOM      7  C   UNL d   1      53.855  33.209  54.456  0.00  0.00     0.003 A 
ATOM      8  C   UNL d   1      54.324  33.601  55.007  0.00  0.00     0.000 C 
ATOM      9  C   UNL d   1      54.075  32.458  54.185  0.00  0.00     0.000 A 
ATOM     10  C   UNL d   1      53.607  32.065  53.634  0.00  0.00     0.003 A 
ATOM     11  C   UNL d   1      52.917  32.418  53.351  0.00  0.00     0.033 A 
ATOM     12  C   UNL d   1      53.822  31.321  53.363  0.00  0.00     0.000 C 
ENDBRANCH   4   5
ENDBRANCH   1   4
BRANCH   1  13
ATOM     13  C   UNL d   1      50.617  34.209  52.767  0.00  0.00     0.118 A 
ATOM     14  C   UNL d   1      50.182  34.705  53.255  0.00  0.00     0.035 A 
ATOM     15  C   UNL d   1      49.482  35.055  52.980  0.00  0.00     0.105 A 
ATOM     16  N   UNL d   1      48.939  35.566  53.333  0.00  0.00    -0.189 NA
ATOM     17  C   UNL d   1      49.222  34.901  52.205  0.00  0.00     0.104 A 
ATOM     18  C   UNL d   1      48.339  35.731  52.779  0.00  0.00     0.369 A 
ATOM     19  O   UNL d   1      47.687  36.218  52.901  0.00  0.00    -0.242 OA
ATOM     20  N   UNL d   1      48.520  35.318  52.086  0.00  0.00    -0.189 NA
ATOM     21  C   UNL d   1      49.664  34.400  51.715  0.00  0.00     0.022 A 
ATOM     22  C   UNL d   1      50.359  34.057  52.000  0.00  0.00     0.016 A 
ENDBRANCH   1  13
TORSDOF 3
ENDMDL
MODEL 3
REMARK VINA RESULT:      -8.1      2.617      3.587
REMARK  3 active torsions:
REMARK  status: ('A' for Active; 'I' for Inactive)
REMARK    1  A    between atoms: N_6  and  S_1 
REMARK    2  A    between atoms: C_7  and  S_1 
REMARK    3  A    between atoms: C_10  and  N_6 
ROOT
ATOM      1  S   UNL d   1      52.710  31.697  53.320  0.00  0.00     0.327 S 
ATOM      2  O   UNL d   1      51.935  31.964  53.362  0.00  0.00    -0.186 OA
ATOM      3  O   UNL d   1      53.320  32.225  53.159  0.00  0.00    -0.186 OA
ENDROOT
BRANCH   1   4
ATOM      4  N   UNL d   1      52.535  32.490  53.203  0.00  0.00    -0.317 NA
BRANCH   4   5
ATOM      5  C   UNL d   1      52.356  33.302  53.083  0.00  0.00     0.145 A 
ATOM      6  C   UNL d   1      52.750  33.877  53.535  0.00  0.00     0.033 A 
ATOM      7  C   UNL d   1      52.572  34.677  53.415  0.00  0.00     0.003 A 
ATOM      8  C   UNL d   1      52.956  35.256  53.857  0.00  0.00     0.000 C 
ATOM      9  C   UNL d   1      52.006  34.894  52.851  0.00  0.00     0.000 A 
ATOM     10  C   UNL d   1      51.622  34.316  52.409  0.00  0.00     0.003 A 
ATOM     11  C   UNL d   1      51.799  33.519  52.528  0.00  0.00     0.033 A 
ATOM     12  C   UNL d   1      51.061  34.527  51.849  0.00  0.00     0.000 C 
ENDBRANCH   4   5
ENDBRANCH   1   4
BRANCH   1  13
ATOM     13  C   UNL d   1      52.875  30.902  53.438  0.00  0.00     0.118 A 
ATOM     14  C   UNL d   1      52.964  30.611  54.201  0.00  0.00     0.035 A 
ATOM     15  C   UNL d   1      53.131  29.809  54.326  0.00  0.00     0.105 A 
ATOM     16  N   UNL d   1      53.248  29.365  55.011  0.00  0.00    -0.189 NA
ATOM     17  C   UNL d   1      53.209  29.298  53.674  0.00  0.00     0.104 A 
ATOM     18  C   UNL d   1      53.399  28.576  54.788  0.00  0.00     0.369 A 
ATOM     19  O   UNL d   1      53.546  27.948  55.298  0.00  0.00    -0.242 OA
ATOM     20  N   UNL d   1      53.373  28.543  53.962  0.00  0.00    -0.189 NA
ATOM     21  C   UNL d   1      53.119  29.595  52.905  0.00  0.00     0.022 A 
ATOM     22  C   UNL d   1      52.953  30.396  52.793  0.00  0.00     0.016 A 
ENDBRANCH   1  13
TORSDOF 3
ENDMDL
