MODEL 1
REMARK VINA RESULT:      -4.8      0.000      0.000
REMARK  1 active torsions:
REMARK  status: ('A' for Active; 'I' for Inactive)
REMARK    1  A    between atoms: C_2  and  CA_3 
ROOT
ATOM      1  N   UNL d   1      56.418   0.367  32.141  0.00  0.00    -0.237 NA
ATOM      2  CA  UNL d   1      56.556  -0.425  32.004  0.00  0.00     0.145 A 
ATOM      3  C   UNL d   1      56.225  -0.999  32.509  0.00  0.00     0.026 A 
ATOM      4  C   UNL d   1      55.953   0.600  32.775  0.00  0.00     0.106 A 
ATOM      5  C   UNL d   1      55.623   0.026  33.280  0.00  0.00     0.054 A 
ATOM      6  C   UNL d   1      55.765  -0.765  33.137  0.00  0.00     0.010 A 
ATOM      7 BR   UNL d   1      55.158   0.268  33.914  0.00  0.00    -0.048 Br
ENDROOT
BRANCH   2   8
ATOM      8  C   UNL d   1      57.023  -0.663  31.367  0.00  0.00     0.229 C 
ATOM      9  O   UNL d   1      57.428  -0.107  30.912  0.00  0.00    -0.643 OA
ATOM     10  OXT UNL d   1      57.091  -1.459  31.176  0.00  0.00    -0.643 OA
ENDBRANCH   2   8
TORSDOF 1
ENDMDL
MODEL 2
REMARK VINA RESULT:      -4.6      2.271      2.643
REMARK  1 active torsions:
REMARK  status: ('A' for Active; 'I' for Inactive)
REMARK    1  A    between atoms: C_2  and  CA_3 
ROOT
ATOM      1  N   UNL d   1      55.949   0.650  32.957  0.00  0.00    -0.237 NA
ATOM      2  CA  UNL d   1      55.509   0.150  33.428  0.00  0.00     0.145 A 
ATOM      3  C   UNL d   1      55.550  -0.674  33.313  0.00  0.00     0.026 A 
ATOM      4  C   UNL d   1      56.431   0.343  32.369  0.00  0.00     0.106 A 
ATOM      5  C   UNL d   1      56.472  -0.481  32.254  0.00  0.00     0.054 A 
ATOM      6  C   UNL d   1      56.029  -0.975  32.730  0.00  0.00     0.010 A 
ATOM      7 BR   UNL d   1      56.958  -0.781  31.663  0.00  0.00    -0.048 Br
ENDROOT
BRANCH   2   8
ATOM      8  C   UNL d   1      55.023   0.456  34.019  0.00  0.00     0.229 C 
ATOM      9  O   UNL d   1      55.301   0.541  34.792  0.00  0.00    -0.643 OA
ATOM     10  OXT UNL d   1      54.251   0.682  33.848  0.00  0.00    -0.643 OA
ENDBRANCH   2   8
TORSDOF 1
ENDMDL
MODEL 3
REMARK VINA RESULT:      -4.5      1.943      2.426
REMARK  1 active torsions:
REMARK  status: ('A' for Active; 'I' for Inactive)
REMARK    1  A    between atoms: C_2  and  CA_3 
ROOT
ATOM      1  N   UNL d   1      56.802  -1.133  31.649  0.00  0.00    -0.237 NA
ATOM      2  CA  UNL d   1      56.434  -0.719  32.248  0.00  0.00     0.145 A 
ATOM      3  C   UNL d   1      56.549   0.103  32.318  0.00  0.00     0.026 A 
ATOM      4  C   UNL d   1      57.285  -0.742  31.115  0.00  0.00     0.106 A 
ATOM      5  C   UNL d   1      57.400   0.080  31.185  0.00  0.00     0.054 A 
ATOM      6  C   UNL d   1      57.028   0.489  31.787  0.00  0.00     0.010 A 
ATOM      7 BR   UNL d   1      57.885   0.466  30.645  0.00  0.00    -0.048 Br
ENDROOT
BRANCH   2   8
ATOM      8  C   UNL d   1      55.948  -1.110  32.787  0.00  0.00     0.229 C 
ATOM      9  O   UNL d   1      55.300  -0.727  33.126  0.00  0.00    -0.643 OA
ATOM     10  OXT UNL d   1      56.101  -1.890  32.996  0.00  0.00    -0.643 OA
ENDBRANCH   2   8
TORSDOF 1
ENDMDL
MODEL 4
REMARK VINA RESULT:      -4.3      1.149      1.541
REMARK  1 active torsions:
REMARK  status: ('A' for Active; 'I' for Inactive)
REMARK    1  A    between atoms: C_2  and  CA_3 
ROOT
ATOM      1  N   UNL d   1      57.045  -0.800  31.433  0.00  0.00    -0.237 NA
ATOM      2  CA  UNL d   1      57.196  -0.003  31.352  0.00  0.00     0.145 A 
ATOM      3  C   UNL d   1      56.842   0.543  31.872  0.00  0.00     0.026 A 
ATOM      4  C   UNL d   1      56.544  -1.066  32.025  0.00  0.00     0.106 A 
ATOM      5  C   UNL d   1      56.190  -0.520  32.545  0.00  0.00     0.054 A 
ATOM      6  C   UNL d   1      56.346   0.277  32.458  0.00  0.00     0.010 A 
ATOM      7 BR   UNL d   1      55.689  -0.794  33.136  0.00  0.00    -0.048 Br
ENDROOT
BRANCH   2   8
ATOM      8  C   UNL d   1      57.700   0.267  30.757  0.00  0.00     0.229 C 
ATOM      9  O   UNL d   1      57.447   0.299  29.973  0.00  0.00    -0.643 OA
ATOM     10  OXT UNL d   1      58.464   0.510  30.938  0.00  0.00    -0.643 OA
ENDBRANCH   2   8
TORSDOF 1
ENDMDL
MODEL 5
REMARK VINA RESULT:      -4.0      8.590      9.016
REMARK  1 active torsions:
REMARK  status: ('A' for Active; 'I' for Inactive)
REMARK    1  A    between atoms: C_2  and  CA_3 
ROOT
ATOM      1  N   UNL d   1      60.660  -7.498  35.696  0.00  0.00    -0.237 NA
ATOM      2  CA  UNL d   1      60.089  -6.994  35.987  0.00  0.00     0.145 A 
ATOM      3  C   UNL d   1      59.385  -7.302  36.309  0.00  0.00     0.026 A 
ATOM      4  C   UNL d   1      60.543  -8.309  35.719  0.00  0.00     0.106 A 
ATOM      5  C   UNL d   1      59.839  -8.617  36.040  0.00  0.00     0.054 A 
ATOM      6  C   UNL d   1      59.271  -8.106  36.330  0.00  0.00     0.010 A 
ATOM      7 BR   UNL d   1      59.728  -9.431  36.059  0.00  0.00    -0.048 Br
ENDROOT
BRANCH   2   8
ATOM      8  C   UNL d   1      60.205  -6.177  35.966  0.00  0.00     0.229 C 
ATOM      9  O   UNL d   1      60.861  -5.835  36.330  0.00  0.00    -0.643 OA
ATOM     10  OXT UNL d   1      59.666  -5.691  35.580  0.00  0.00    -0.643 OA
ENDBRANCH   2   8
TORSDOF 1
ENDMDL
MODEL 6
REMARK VINA RESULT:      -3.2      8.997      9.454
REMARK  1 active torsions:
REMARK  status: ('A' for Active; 'I' for Inactive)
REMARK    1  A    between atoms: C_2  and  CA_3 
ROOT
ATOM      1  N   UNL d   1      60.604  -8.205  35.871  0.00  0.00    -0.237 NA
ATOM      2  CA  UNL d   1      59.827  -8.408  36.014  0.00  0.00     0.145 A 
ATOM      3  C   UNL d   1      59.279  -7.824  36.245  0.00  0.00     0.026 A 
ATOM      4  C   UNL d   1      60.848  -7.427  35.955  0.00  0.00     0.106 A 
ATOM      5  C   UNL d   1      60.300  -6.843  36.186  0.00  0.00     0.054 A 
ATOM      6  C   UNL d   1      59.524  -7.054  36.327  0.00  0.00     0.010 A 
ATOM      7 BR   UNL d   1      60.552  -6.065  36.268  0.00  0.00    -0.048 Br
ENDROOT
BRANCH   2   8
ATOM      8  C   UNL d   1      59.578  -9.190  35.931  0.00  0.00     0.229 C 
ATOM      9  O   UNL d   1      60.128  -9.801  35.855  0.00  0.00    -0.643 OA
ATOM     10  OXT UNL d   1      58.777  -9.374  35.921  0.00  0.00    -0.643 OA
ENDBRANCH   2   8
TORSDOF 1
ENDMDL
MODEL 7
REMARK VINA RESULT:      -2.9      9.196      9.696
REMARK  1 active torsions:
REMARK  status: ('A' for Active; 'I' for Inactive)
REMARK    1  A    between atoms: C_2  and  CA_3 
ROOT
ATOM      1  N   UNL d   1      59.409  -8.731  34.627  0.00  0.00    -0.237 NA
ATOM      2  CA  UNL d   1      59.794  -8.339  35.230  0.00  0.00     0.145 A 
ATOM      3  C   UNL d   1      60.626  -8.319  35.248  0.00  0.00     0.026 A 
ATOM      4  C   UNL d   1      59.839  -9.105  34.038  0.00  0.00     0.106 A 
ATOM      5  C   UNL d   1      60.672  -9.085  34.057  0.00  0.00     0.054 A 
ATOM      6  C   UNL d   1      61.051  -8.691  34.664  0.00  0.00     0.010 A 
ATOM      7 BR   UNL d   1      61.097  -9.463  33.464  0.00  0.00    -0.048 Br
ENDROOT
BRANCH   2   8
ATOM      8  C   UNL d   1      59.363  -7.961  35.823  0.00  0.00     0.229 C 
ATOM      9  O   UNL d   1      59.405  -7.143  35.918  0.00  0.00    -0.643 OA
ATOM     10  OXT UNL d   1      58.883  -8.396  36.330  0.00  0.00    -0.643 OA
ENDBRANCH   2   8
TORSDOF 1
ENDMDL
MODEL 8
REMARK VINA RESULT:      -2.7      9.428      9.747
REMARK  1 active torsions:
REMARK  status: ('A' for Active; 'I' for Inactive)
REMARK    1  A    between atoms: C_2  and  CA_3 
ROOT
ATOM      1  N   UNL d   1      60.249  -8.597  34.282  0.00  0.00    -0.237 NA
ATOM      2  CA  UNL d   1      59.872  -9.276  34.033  0.00  0.00     0.145 A 
ATOM      3  C   UNL d   1      59.371  -9.690  34.553  0.00  0.00     0.026 A 
ATOM      4  C   UNL d   1      60.135  -8.320  35.045  0.00  0.00     0.106 A 
ATOM      5  C   UNL d   1      59.634  -8.734  35.566  0.00  0.00     0.054 A 
ATOM      6  C   UNL d   1      59.260  -9.414  35.309  0.00  0.00     0.010 A 
ATOM      7 BR   UNL d   1      59.525  -8.451  36.330  0.00  0.00    -0.048 Br
ENDROOT
BRANCH   2   8
ATOM      8  C   UNL d   1      59.985  -9.557  33.265  0.00  0.00     0.229 C 
ATOM      9  O   UNL d   1      60.734  -9.782  33.004  0.00  0.00    -0.643 OA
ATOM     10  OXT UNL d   1      59.349  -9.617  32.747  0.00  0.00    -0.643 OA
ENDBRANCH   2   8
TORSDOF 1
ENDMDL
MODEL 9
REMARK VINA RESULT:      -2.6      9.576      9.979
REMARK  1 active torsions:
REMARK  status: ('A' for Active; 'I' for Inactive)
REMARK    1  A    between atoms: C_2  and  CA_3 
ROOT
ATOM      1  N   UNL d   1      59.741  -8.754  34.562  0.00  0.00    -0.237 NA
ATOM      2  CA  UNL d   1      60.554  -8.755  34.625  0.00  0.00     0.145 A 
ATOM      3  C   UNL d   1      61.018  -9.109  34.031  0.00  0.00     0.026 A 
ATOM      4  C   UNL d   1      59.378  -9.102  33.914  0.00  0.00     0.106 A 
ATOM      5  C   UNL d   1      59.842  -9.456  33.320  0.00  0.00     0.054 A 
ATOM      6  C   UNL d   1      60.656  -9.453  33.390  0.00  0.00     0.010 A 
ATOM      7 BR   UNL d   1      59.471  -9.803  32.673  0.00  0.00    -0.048 Br
ENDROOT
BRANCH   2   8
ATOM      8  C   UNL d   1      60.921  -8.406  35.276  0.00  0.00     0.229 C 
ATOM      9  O   UNL d   1      61.108  -8.852  35.944  0.00  0.00    -0.643 OA
ATOM     10  OXT UNL d   1      61.109  -7.605  35.268  0.00  0.00    -0.643 OA
ENDBRANCH   2   8
TORSDOF 1
ENDMDL
