MODEL 1
REMARK VINA RESULT:      -8.0      0.000      0.000
REMARK  6 active torsions:
REMARK  status: ('A' for Active; 'I' for Inactive)
REMARK    1  A    between atoms: C_5  and  C_1 
REMARK    2  A    between atoms: N_6  and  C_5 
REMARK    3  A    between atoms: C_9  and  C_5 
REMARK    4  A    between atoms: C_8  and  C_11 
REMARK    5  A    between atoms: O_18  and  C_8 
REMARK    6  A    between atoms: C_23  and  O_18 
ROOT
ATOM      1  C   UNL d   1      53.276  32.410  53.541  0.00  0.00     0.083 C 
ENDROOT
BRANCH   1   2
ATOM      2  C   UNL d   1      54.000  32.751  53.778  0.00  0.00     0.037 A 
ATOM      3  C   UNL d   1      54.667  32.848  53.301  0.00  0.00     0.083 A 
ATOM      4  N   UNL d   1      55.258  33.199  53.724  0.00  0.00    -0.245 NA
ATOM      5  C   UNL d   1      54.716  32.612  52.492  0.00  0.00     0.021 C 
ATOM      6  C   UNL d   1      54.982  33.332  54.473  0.00  0.00     0.081 A 
ATOM      7  C   UNL d   1      54.205  33.056  54.507  0.00  0.00     0.021 A 
ATOM      8  C   UNL d   1      55.327  33.669  55.142  0.00  0.00     0.019 A 
ATOM      9  C   UNL d   1      53.777  33.118  55.209  0.00  0.00     0.002 A 
ATOM     10  C   UNL d   1      54.123  33.455  55.878  0.00  0.00     0.000 A 
ATOM     11  C   UNL d   1      54.899  33.731  55.845  0.00  0.00     0.002 A 
ENDBRANCH   1   2
BRANCH   1  12
ATOM     12  N   UNL d   1      52.627  32.899  53.332  0.00  0.00    -0.302 N 
ATOM     13  C   UNL d   1      52.664  33.348  52.655  0.00  0.00     0.080 A 
ATOM     14  C   UNL d   1      52.026  33.828  52.451  0.00  0.00     0.024 A 
ATOM     15  C   UNL d   1      51.359  33.842  52.943  0.00  0.00     0.067 A 
ATOM     16  C   UNL d   1      51.325  33.390  53.622  0.00  0.00     0.024 A 
ATOM     17  C   UNL d   1      51.964  32.910  53.825  0.00  0.00     0.080 A 
BRANCH  15  18
ATOM     18  C   UNL d   1      50.704  34.325  52.747  0.00  0.00     0.300 C 
ATOM     19  O   UNL d   1      50.501  34.971  53.228  0.00  0.00    -0.259 OA
BRANCH  18  20
ATOM     20  O   UNL d   1      50.272  34.150  52.078  0.00  0.00    -0.271 OA
BRANCH  20  21
ATOM     21  C   UNL d   1      49.568  34.550  51.930  0.00  0.00     0.126 C 
ATOM     22  C   UNL d   1      49.186  34.439  51.221  0.00  0.00     0.029 C 
ENDBRANCH  20  21
ENDBRANCH  18  20
ENDBRANCH  15  18
ENDBRANCH   1  12
BRANCH   1  23
ATOM     23  C   UNL d   1      53.200  31.574  53.512  0.00  0.00     0.098 A 
ATOM     24  N   UNL d   1      53.214  31.136  54.200  0.00  0.00    -0.243 NA
ATOM     25  C   UNL d   1      53.141  30.324  54.176  0.00  0.00     0.099 A 
ATOM     26  C   UNL d   1      53.053  29.945  53.454  0.00  0.00     0.021 A 
ATOM     27  C   UNL d   1      53.037  30.374  52.755  0.00  0.00     0.003 A 
ATOM     28  C   UNL d   1      53.110  31.196  52.766  0.00  0.00     0.021 A 
ENDBRANCH   1  23
TORSDOF 6
ENDMDL
MODEL 2
REMARK VINA RESULT:      -6.8      0.822      2.547
REMARK  6 active torsions:
REMARK  status: ('A' for Active; 'I' for Inactive)
REMARK    1  A    between atoms: C_5  and  C_1 
REMARK    2  A    between atoms: N_6  and  C_5 
REMARK    3  A    between atoms: C_9  and  C_5 
REMARK    4  A    between atoms: C_8  and  C_11 
REMARK    5  A    between atoms: O_18  and  C_8 
REMARK    6  A    between atoms: C_23  and  O_18 
ROOT
ATOM      1  C   UNL d   1      53.560  32.598  53.881  0.00  0.00     0.083 C 
ENDROOT
BRANCH   1   2
ATOM      2  C   UNL d   1      53.798  31.855  53.584  0.00  0.00     0.037 A 
ATOM      3  C   UNL d   1      54.393  31.727  53.025  0.00  0.00     0.083 A 
ATOM      4  N   UNL d   1      54.464  30.937  52.876  0.00  0.00    -0.245 NA
ATOM      5  C   UNL d   1      54.854  32.337  52.668  0.00  0.00     0.021 C 
ATOM      6  C   UNL d   1      53.920  30.549  53.333  0.00  0.00     0.081 A 
ATOM      7  C   UNL d   1      53.509  31.115  53.769  0.00  0.00     0.021 A 
ATOM      8  C   UNL d   1      53.734  29.750  53.419  0.00  0.00     0.019 A 
ATOM      9  C   UNL d   1      52.913  30.881  54.290  0.00  0.00     0.002 A 
ATOM     10  C   UNL d   1      52.727  30.081  54.375  0.00  0.00     0.000 A 
ATOM     11  C   UNL d   1      53.138  29.515  53.939  0.00  0.00     0.002 A 
ENDBRANCH   1   2
BRANCH   1  12
ATOM     12  N   UNL d   1      52.903  32.997  53.542  0.00  0.00    -0.302 N 
ATOM     13  C   UNL d   1      52.161  32.884  53.854  0.00  0.00     0.080 A 
ATOM     14  C   UNL d   1      51.517  33.277  53.520  0.00  0.00     0.024 A 
ATOM     15  C   UNL d   1      51.643  33.779  52.873  0.00  0.00     0.067 A 
ATOM     16  C   UNL d   1      52.389  33.889  52.563  0.00  0.00     0.024 A 
ATOM     17  C   UNL d   1      53.032  33.496  52.897  0.00  0.00     0.080 A 
BRANCH  15  18
ATOM     18  C   UNL d   1      50.997  34.183  52.525  0.00  0.00     0.300 C 
ATOM     19  O   UNL d   1      50.949  34.262  51.700  0.00  0.00    -0.259 OA
BRANCH  18  20
ATOM     20  O   UNL d   1      50.422  34.496  53.011  0.00  0.00    -0.271 OA
BRANCH  20  21
ATOM     21  C   UNL d   1      49.744  34.825  52.680  0.00  0.00     0.126 C 
ATOM     22  C   UNL d   1      49.222  35.229  53.155  0.00  0.00     0.029 C 
ENDBRANCH  20  21
ENDBRANCH  18  20
ENDBRANCH  15  18
ENDBRANCH   1  12
BRANCH   1  23
ATOM     23  C   UNL d   1      53.980  32.944  54.520  0.00  0.00     0.098 A 
ATOM     24  N   UNL d   1      53.763  32.785  55.289  0.00  0.00    -0.243 NA
ATOM     25  C   UNL d   1      54.169  33.119  55.912  0.00  0.00     0.099 A 
ATOM     26  C   UNL d   1      54.801  33.621  55.763  0.00  0.00     0.021 A 
ATOM     27  C   UNL d   1      55.029  33.790  54.995  0.00  0.00     0.003 A 
ATOM     28  C   UNL d   1      54.627  33.457  54.355  0.00  0.00     0.021 A 
ENDBRANCH   1  23
TORSDOF 6
ENDMDL
MODEL 3
REMARK VINA RESULT:      -6.2      1.821      3.620
REMARK  6 active torsions:
REMARK  status: ('A' for Active; 'I' for Inactive)
REMARK    1  A    between atoms: C_5  and  C_1 
REMARK    2  A    between atoms: N_6  and  C_5 
REMARK    3  A    between atoms: C_9  and  C_5 
REMARK    4  A    between atoms: C_8  and  C_11 
REMARK    5  A    between atoms: O_18  and  C_8 
REMARK    6  A    between atoms: C_23  and  O_18 
ROOT
ATOM      1  C   UNL d   1      53.438  32.687  53.652  0.00  0.00     0.083 C 
ENDROOT
BRANCH   1   2
ATOM      2  C   UNL d   1      54.173  33.023  53.862  0.00  0.00     0.037 A 
ATOM      3  C   UNL d   1      54.830  33.092  53.367  0.00  0.00     0.083 A 
ATOM      4  N   UNL d   1      55.437  33.446  53.764  0.00  0.00    -0.245 NA
ATOM      5  C   UNL d   1      54.856  32.829  52.565  0.00  0.00     0.021 C 
ATOM      6  C   UNL d   1      55.181  33.609  54.514  0.00  0.00     0.081 A 
ATOM      7  C   UNL d   1      54.400  33.348  54.574  0.00  0.00     0.021 A 
ATOM      8  C   UNL d   1      55.546  33.962  55.163  0.00  0.00     0.019 A 
ATOM      9  C   UNL d   1      53.990  33.441  55.283  0.00  0.00     0.002 A 
ATOM     10  C   UNL d   1      54.356  33.794  55.933  0.00  0.00     0.000 A 
ATOM     11  C   UNL d   1      55.137  34.055  55.873  0.00  0.00     0.002 A 
ENDBRANCH   1   2
BRANCH   1  12
ATOM     12  N   UNL d   1      53.325  31.857  53.700  0.00  0.00    -0.302 N 
ATOM     13  C   UNL d   1      53.345  31.409  53.021  0.00  0.00     0.080 A 
ATOM     14  C   UNL d   1      53.234  30.594  53.069  0.00  0.00     0.024 A 
ATOM     15  C   UNL d   1      53.104  30.249  53.811  0.00  0.00     0.067 A 
ATOM     16  C   UNL d   1      53.085  30.701  54.490  0.00  0.00     0.024 A 
ATOM     17  C   UNL d   1      53.196  31.516  54.441  0.00  0.00     0.080 A 
BRANCH  15  18
ATOM     18  C   UNL d   1      52.990  29.421  53.874  0.00  0.00     0.300 C 
ATOM     19  O   UNL d   1      52.558  29.014  53.295  0.00  0.00    -0.259 OA
BRANCH  18  20
ATOM     20  O   UNL d   1      53.310  29.028  54.512  0.00  0.00    -0.271 OA
BRANCH  20  21
ATOM     21  C   UNL d   1      53.328  28.205  54.517  0.00  0.00     0.126 C 
ATOM     22  C   UNL d   1      53.692  27.816  55.130  0.00  0.00     0.029 C 
ENDBRANCH  20  21
ENDBRANCH  18  20
ENDBRANCH  15  18
ENDBRANCH   1  12
BRANCH   1  23
ATOM     23  C   UNL d   1      52.812  33.184  53.394  0.00  0.00     0.098 A 
ATOM     24  N   UNL d   1      52.194  33.362  53.896  0.00  0.00    -0.243 NA
ATOM     25  C   UNL d   1      51.585  33.844  53.649  0.00  0.00     0.099 A 
ATOM     26  C   UNL d   1      51.593  34.152  52.888  0.00  0.00     0.021 A 
ATOM     27  C   UNL d   1      52.208  33.980  52.374  0.00  0.00     0.003 A 
ATOM     28  C   UNL d   1      52.831  33.494  52.611  0.00  0.00     0.021 A 
ENDBRANCH   1  23
TORSDOF 6
ENDMDL
MODEL 4
REMARK VINA RESULT:      -6.2      1.843      4.127
REMARK  6 active torsions:
REMARK  status: ('A' for Active; 'I' for Inactive)
REMARK    1  A    between atoms: C_5  and  C_1 
REMARK    2  A    between atoms: N_6  and  C_5 
REMARK    3  A    between atoms: C_9  and  C_5 
REMARK    4  A    between atoms: C_8  and  C_11 
REMARK    5  A    between atoms: O_18  and  C_8 
REMARK    6  A    between atoms: C_23  and  O_18 
ROOT
ATOM      1  C   UNL d   1      53.283  33.040  53.763  0.00  0.00     0.083 C 
ENDROOT
BRANCH   1   2
ATOM      2  C   UNL d   1      52.849  33.498  53.216  0.00  0.00     0.037 A 
ATOM      3  C   UNL d   1      53.163  33.891  52.560  0.00  0.00     0.083 A 
ATOM      4  N   UNL d   1      52.574  34.275  52.163  0.00  0.00    -0.245 NA
ATOM      5  C   UNL d   1      53.979  33.887  52.344  0.00  0.00     0.021 C 
ATOM      6  C   UNL d   1      51.880  34.136  52.554  0.00  0.00     0.081 A 
ATOM      7  C   UNL d   1      52.049  33.656  53.204  0.00  0.00     0.021 A 
ATOM      8  C   UNL d   1      51.104  34.377  52.414  0.00  0.00     0.019 A 
ATOM      9  C   UNL d   1      51.443  33.421  53.710  0.00  0.00     0.002 A 
ATOM     10  C   UNL d   1      50.666  33.663  53.570  0.00  0.00     0.000 A 
ATOM     11  C   UNL d   1      50.496  34.142  52.920  0.00  0.00     0.002 A 
ENDBRANCH   1   2
BRANCH   1  12
ATOM     12  N   UNL d   1      53.258  32.202  53.724  0.00  0.00    -0.302 N 
ATOM     13  C   UNL d   1      53.547  31.822  53.066  0.00  0.00     0.080 A 
ATOM     14  C   UNL d   1      53.523  30.999  53.029  0.00  0.00     0.024 A 
ATOM     15  C   UNL d   1      53.203  30.577  53.667  0.00  0.00     0.067 A 
ATOM     16  C   UNL d   1      52.914  30.961  54.326  0.00  0.00     0.024 A 
ATOM     17  C   UNL d   1      52.939  31.784  54.362  0.00  0.00     0.080 A 
BRANCH  15  18
ATOM     18  C   UNL d   1      53.173  29.740  53.642  0.00  0.00     0.300 C 
ATOM     19  O   UNL d   1      52.743  29.355  53.046  0.00  0.00    -0.259 OA
BRANCH  18  20
ATOM     20  O   UNL d   1      53.572  29.315  54.212  0.00  0.00    -0.271 OA
BRANCH  20  21
ATOM     21  C   UNL d   1      53.338  28.546  54.386  0.00  0.00     0.126 C 
ATOM     22  C   UNL d   1      53.656  28.167  55.031  0.00  0.00     0.029 C 
ENDBRANCH  20  21
ENDBRANCH  18  20
ENDBRANCH  15  18
ENDBRANCH   1  12
BRANCH   1  23
ATOM     23  C   UNL d   1      53.743  33.422  54.352  0.00  0.00     0.098 A 
ATOM     24  N   UNL d   1      53.380  33.830  54.958  0.00  0.00    -0.243 NA
ATOM     25  C   UNL d   1      53.823  34.201  55.532  0.00  0.00     0.099 A 
ATOM     26  C   UNL d   1      54.642  34.165  55.500  0.00  0.00     0.021 A 
ATOM     27  C   UNL d   1      55.020  33.759  54.897  0.00  0.00     0.003 A 
ATOM     28  C   UNL d   1      54.582  33.378  54.309  0.00  0.00     0.021 A 
ENDBRANCH   1  23
TORSDOF 6
ENDMDL
