MODEL 1
REMARK VINA RESULT:       7.0      0.000      0.000
REMARK  1 active torsions:
REMARK  status: ('A' for Active; 'I' for Inactive)
REMARK    1  A    between atoms: C_4  and  C_1 
ROOT
ATOM      1  C   UNL d   1     -51.459  25.399  33.314  0.00  0.00     0.036 A 
ATOM      2  C   UNL d   1     -50.639  25.519  33.309  0.00  0.00     0.061 A 
ATOM      3  C   UNL d   1     -51.952  26.054  33.318  0.00  0.00     0.004 A 
ATOM      4  C   UNL d   1     -50.326  26.269  33.308  0.00  0.00     0.023 A 
ATOM      5  C   UNL d   1     -50.833  26.924  33.312  0.00  0.00     0.059 A 
ATOM      6 CL   UNL d   1     -50.145  24.863  33.306  0.00  0.00    -0.082 Cl
ATOM      7  C   UNL d   1     -51.639  26.822  33.317  0.00  0.00     0.011 A 
ATOM      8 CL   UNL d   1     -50.510  27.678  33.311  0.00  0.00    -0.082 Cl
ENDROOT
BRANCH   1   9
ATOM      9  C   UNL d   1     -51.785  24.641  33.316  0.00  0.00     0.136 A 
ATOM     10  S   UNL d   1     -52.587  24.446  33.321  0.00  0.00    -0.024 SA
ATOM     11  C   UNL d   1     -52.660  23.625  33.321  0.00  0.00     0.236 A 
ATOM     12  N   UNL d   1     -53.361  23.190  33.325  0.00  0.00    -0.118 N 
ATOM     13  N   UNL d   1     -51.887  23.293  33.315  0.00  0.00    -0.119 NA
ATOM     14  N   UNL d   1     -51.349  23.918  33.312  0.00  0.00    -0.139 NA
ENDBRANCH   1   9
TORSDOF 1
ENDMDL
