MODEL 1
REMARK VINA RESULT:       0.3      0.000      0.000
REMARK  4 active torsions:
REMARK  status: ('A' for Active; 'I' for Inactive)
REMARK    1  A    between atoms: N_10  and  C_3 
REMARK    2  A    between atoms: C_11  and  C_5 
REMARK    3  A    between atoms: C_12  and  N_10 
REMARK    4  A    between atoms: O_21  and  C_14 
ROOT
ATOM      1  N   UNL d   1      58.226   0.293  31.079  0.00  0.00    -0.184 N 
ATOM      2  C   UNL d   1      58.919   0.215  30.613  0.00  0.00     0.168 A 
ATOM      3  C   UNL d   1      58.292   0.446  31.889  0.00  0.00     0.217 A 
ATOM      4  N   UNL d   1      57.427   0.068  29.928  0.00  0.00    -0.162 NA
ATOM      5  C   UNL d   1      58.855   0.066  29.823  0.00  0.00     0.055 A 
ATOM      6  N   UNL d   1      59.654   0.291  30.975  0.00  0.00    -0.227 NA
ATOM      7  C   UNL d   1      59.025   0.519  32.231  0.00  0.00     0.066 A 
ATOM      8  C   UNL d   1      58.110  -0.010  29.469  0.00  0.00     0.104 A 
ATOM      9  C   UNL d   1      59.723   0.442  31.773  0.00  0.00     0.087 A 
ATOM     10  C   UNL d   1      59.261   0.665  32.994  0.00  0.00     0.006 A 
ATOM     11  C   UNL d   1      58.054  -0.161  28.668  0.00  0.00     0.023 C 
ATOM     12  C   UNL d   1      60.371   0.542  32.264  0.00  0.00     0.019 A 
ATOM     13  C   UNL d   1      60.078   0.682  33.028  0.00  0.00     0.002 A 
ENDROOT
BRANCH   3  14
ATOM     14  N   UNL d   1      57.594   0.526  32.362  0.00  0.00    -0.383 NA
BRANCH  14  15
ATOM     15  C   UNL d   1      56.897   0.564  32.829  0.00  0.00     0.134 A 
ATOM     16  C   UNL d   1      56.144   0.601  32.479  0.00  0.00     0.034 A 
ATOM     17  C   UNL d   1      55.449   0.639  32.948  0.00  0.00     0.027 A 
ATOM     18  C   UNL d   1      55.502   0.640  33.790  0.00  0.00     0.094 A 
ATOM     19  C   UNL d   1      56.275   0.602  34.161  0.00  0.00     0.027 A 
ATOM     20  C   UNL d   1      56.968   0.565  33.689  0.00  0.00     0.034 A 
BRANCH  18  21
ATOM     21  O   UNL d   1      54.809   0.678  34.263  0.00  0.00    -0.328 OA
ATOM     22  C   UNL d   1      54.858   0.579  35.101  0.00  0.00     0.181 C 
ENDBRANCH  18  21
ENDBRANCH  14  15
ENDBRANCH   3  14
BRANCH   5  23
ATOM     23  C   UNL d   1      59.534  -0.011  29.367  0.00  0.00     0.004 A 
ATOM     24  C   UNL d   1      59.836   0.637  28.963  0.00  0.00     0.000 A 
ATOM     25  C   UNL d   1      60.512   0.564  28.508  0.00  0.00     0.000 A 
ATOM     26  C   UNL d   1      60.893  -0.166  28.455  0.00  0.00     0.000 A 
ATOM     27  C   UNL d   1      60.602  -0.810  28.851  0.00  0.00     0.000 A 
ATOM     28  C   UNL d   1      59.915  -0.732  29.312  0.00  0.00     0.000 A 
ENDBRANCH   5  23
TORSDOF 4
ENDMDL
MODEL 2
REMARK VINA RESULT:       3.0      2.710      5.372
REMARK  4 active torsions:
REMARK  status: ('A' for Active; 'I' for Inactive)
REMARK    1  A    between atoms: N_10  and  C_3 
REMARK    2  A    between atoms: C_11  and  C_5 
REMARK    3  A    between atoms: C_12  and  N_10 
REMARK    4  A    between atoms: O_21  and  C_14 
ROOT
ATOM      1  N   UNL d   1      57.373  -1.606  31.219  0.00  0.00    -0.184 N 
ATOM      2  C   UNL d   1      57.044  -0.982  31.672  0.00  0.00     0.168 A 
ATOM      3  C   UNL d   1      57.875  -1.431  30.585  0.00  0.00     0.217 A 
ATOM      4  N   UNL d   1      56.700  -2.553  32.033  0.00  0.00    -0.162 NA
ATOM      5  C   UNL d   1      56.554  -1.152  32.291  0.00  0.00     0.055 A 
ATOM      6  N   UNL d   1      57.228  -0.204  31.476  0.00  0.00    -0.227 NA
ATOM      7  C   UNL d   1      58.047  -0.658  30.404  0.00  0.00     0.066 A 
ATOM      8  C   UNL d   1      56.376  -1.939  32.480  0.00  0.00     0.104 A 
ATOM      9  C   UNL d   1      57.722  -0.028  30.852  0.00  0.00     0.087 A 
ATOM     10  C   UNL d   1      58.509  -0.320  29.829  0.00  0.00     0.006 A 
ATOM     11  C   UNL d   1      55.879  -2.103  33.108  0.00  0.00     0.023 C 
ATOM     12  C   UNL d   1      57.992   0.681  30.543  0.00  0.00     0.019 A 
ATOM     13  C   UNL d   1      58.485   0.493  29.901  0.00  0.00     0.002 A 
ENDROOT
BRANCH   3  14
ATOM     14  N   UNL d   1      58.209  -2.058  30.125  0.00  0.00    -0.383 NA
BRANCH  14  15
ATOM     15  C   UNL d   1      58.554  -2.698  29.704  0.00  0.00     0.134 A 
ATOM     16  C   UNL d   1      58.193  -3.015  29.027  0.00  0.00     0.034 A 
ATOM     17  C   UNL d   1      58.541  -3.655  28.609  0.00  0.00     0.027 A 
ATOM     18  C   UNL d   1      59.270  -3.990  28.871  0.00  0.00     0.094 A 
ATOM     19  C   UNL d   1      59.651  -3.669  29.569  0.00  0.00     0.027 A 
ATOM     20  C   UNL d   1      59.300  -3.030  29.985  0.00  0.00     0.034 A 
BRANCH  18  21
ATOM     21  O   UNL d   1      59.621  -4.630  28.455  0.00  0.00    -0.328 OA
ATOM     22  C   UNL d   1      60.459  -4.733  28.462  0.00  0.00     0.181 C 
ENDBRANCH  18  21
ENDBRANCH  14  15
ENDBRANCH   3  14
BRANCH   5  23
ATOM     23  C   UNL d   1      56.232  -0.541  32.735  0.00  0.00     0.004 A 
ATOM     24  C   UNL d   1      55.488  -0.246  32.552  0.00  0.00     0.000 A 
ATOM     25  C   UNL d   1      55.163   0.362  32.992  0.00  0.00     0.000 A 
ATOM     26  C   UNL d   1      55.587   0.682  33.624  0.00  0.00     0.000 A 
ATOM     27  C   UNL d   1      56.322   0.396  33.811  0.00  0.00     0.000 A 
ATOM     28  C   UNL d   1      56.648  -0.222  33.361  0.00  0.00     0.000 A 
ENDBRANCH   5  23
TORSDOF 4
ENDMDL
