MODEL 1
REMARK VINA RESULT:      13.1      0.000      0.000
REMARK  4 active torsions:
REMARK  status: ('A' for Active; 'I' for Inactive)
REMARK    1  A    between atoms: C_6  and  C_1 
REMARK    2  A    between atoms: N_7  and  C_2 
REMARK    3  A    between atoms: C_8  and  C_5 
REMARK    4  A    between atoms: O_10  and  C_6 
ROOT
ATOM      1  C   UNL d   1     -54.893-101.583 -37.008  0.00  0.00     0.186 A 
ATOM      2  C   UNL d   1     -55.019-102.417 -36.953  0.00  0.00     0.193 A 
ATOM      3  N   UNL d   1     -54.824-101.384 -37.789  0.00  0.00    -0.213 NA
ATOM      4  O   UNL d   1     -55.022-102.706 -37.750  0.00  0.00    -0.271 OA
ATOM      5  C   UNL d   1     -54.898-102.028 -38.233  0.00  0.00     0.184 A 
ENDROOT
BRANCH   5   6
ATOM      6  C   UNL d   1     -54.832-101.831 -38.952  0.00  0.00     0.041 A 
ATOM      7  C   UNL d   1     -54.906-102.639 -39.159  0.00  0.00     0.004 A 
ATOM      8  C   UNL d   1     -54.882-102.872 -39.954  0.00  0.00     0.000 A 
ATOM      9  C   UNL d   1     -54.785-102.298 -40.538  0.00  0.00     0.000 A 
ATOM     10  C   UNL d   1     -54.711-101.489 -40.331  0.00  0.00     0.000 A 
ATOM     11  C   UNL d   1     -54.737-101.278 -39.546  0.00  0.00     0.004 A 
ENDBRANCH   5   6
BRANCH   1  12
ATOM     12  C   UNL d   1     -54.880-101.280 -36.367  0.00  0.00     0.317 C 
ATOM     13  O   UNL d   1     -55.026-101.532 -35.534  0.00  0.00    -0.257 OA
BRANCH  12  14
ATOM     14  O   UNL d   1     -54.724-100.586 -36.180  0.00  0.00    -0.294 OA
ATOM     15  C   UNL d   1     -54.713-100.215 -35.406  0.00  0.00     0.185 C 
ENDBRANCH  12  14
ENDBRANCH   1  12
BRANCH   2  16
ATOM     16  N   UNL d   1     -55.080-102.616 -36.331  0.00  0.00    -0.281 N 
ATOM     17  C   UNL d   1     -55.834-102.878 -36.432  0.00  0.00     0.101 C 
ATOM     18  C   UNL d   1     -54.726-102.678 -35.622  0.00  0.00     0.101 C 
ENDBRANCH   2  16
TORSDOF 4
ENDMDL
MODEL 2
REMARK VINA RESULT:      16.1      7.272      8.491
REMARK  4 active torsions:
REMARK  status: ('A' for Active; 'I' for Inactive)
REMARK    1  A    between atoms: C_6  and  C_1 
REMARK    2  A    between atoms: N_7  and  C_2 
REMARK    3  A    between atoms: C_8  and  C_5 
REMARK    4  A    between atoms: O_10  and  C_6 
ROOT
ATOM      1  C   UNL d   1     -58.324 -98.761 -44.893  0.00  0.00     0.186 A 
ATOM      2  C   UNL d   1     -58.353 -98.761 -44.047  0.00  0.00     0.193 A 
ATOM      3  N   UNL d   1     -57.549 -98.765 -45.124  0.00  0.00    -0.213 NA
ATOM      4  O   UNL d   1     -57.546 -98.764 -43.786  0.00  0.00    -0.271 OA
ATOM      5  C   UNL d   1     -57.084 -98.767 -44.489  0.00  0.00     0.184 A 
ENDROOT
BRANCH   5   6
ATOM      6  C   UNL d   1     -56.371 -98.770 -44.717  0.00  0.00     0.041 A 
ATOM      7  C   UNL d   1     -56.137 -98.810 -43.913  0.00  0.00     0.004 A 
ATOM      8  C   UNL d   1     -55.334 -98.833 -43.711  0.00  0.00     0.000 A 
ATOM      9  C   UNL d   1     -54.768 -98.818 -44.312  0.00  0.00     0.000 A 
ATOM     10  C   UNL d   1     -55.002 -98.779 -45.115  0.00  0.00     0.000 A 
ATOM     11  C   UNL d   1     -55.795 -98.756 -45.296  0.00  0.00     0.004 A 
ENDBRANCH   5   6
BRANCH   1  12
ATOM     12  C   UNL d   1     -58.974 -98.759 -45.174  0.00  0.00     0.317 C 
ATOM     13  O   UNL d   1     -59.805 -98.757 -44.874  0.00  0.00    -0.257 OA
BRANCH  12  14
ATOM     14  O   UNL d   1     -59.180 -98.756 -45.880  0.00  0.00    -0.294 OA
ATOM     15  C   UNL d   1     -59.949 -98.908 -46.229  0.00  0.00     0.185 C 
ENDBRANCH  12  14
ENDBRANCH   1  12
BRANCH   2  16
ATOM     16  N   UNL d   1     -58.968 -98.758 -43.823  0.00  0.00    -0.281 N 
ATOM     17  C   UNL d   1     -58.743 -98.755 -43.050  0.00  0.00     0.101 C 
ATOM     18  C   UNL d   1     -59.740 -98.755 -44.015  0.00  0.00     0.101 C 
ENDBRANCH   2  16
TORSDOF 4
ENDMDL
