MODEL 1
REMARK VINA RESULT:      28.5      0.000      0.000
REMARK  3 active torsions:
REMARK  status: ('A' for Active; 'I' for Inactive)
REMARK    1  A    between atoms: C_14  and  C_1 
REMARK    2  A    between atoms: C_3  and  C_8 
REMARK       I    between atoms: C_8  and  N_13 
REMARK    3  A    between atoms: N_13  and  C_15 
ROOT
ATOM      1  C   UNL d   1      46.006 -16.356  44.142  0.00  0.00     0.025 A 
ATOM      2  C   UNL d   1      45.053 -15.463  44.736  0.00  0.00     0.085 A 
ATOM      3  C   UNL d   1      45.223 -16.162  44.331  0.00  0.00     0.021 A 
ATOM      4  C   UNL d   1      46.606 -15.892  44.336  0.00  0.00     0.002 A 
ATOM      5  C   UNL d   1      46.463 -15.204  44.732  0.00  0.00     0.002 A 
ATOM      6  C   UNL d   1      45.690 -14.955  44.950  0.00  0.00     0.019 A 
ENDROOT
BRANCH   2   7
ATOM      7  N   UNL d   1      44.287 -15.254  44.931  0.00  0.00    -0.206 NA
ATOM      8  C   UNL d   1      44.020 -14.484  44.746  0.00  0.00     0.302 C 
ATOM      9  O   UNL d   1      43.220 -14.278  44.955  0.00  0.00    -0.263 OA
BRANCH   8  10
ATOM     10  C   UNL d   1      44.505 -13.967  44.387  0.00  0.00     0.161 A 
ATOM     11  C   UNL d   1      45.067 -13.621  44.861  0.00  0.00     0.072 A 
ATOM     12  C   UNL d   1      45.575 -13.085  44.503  0.00  0.00     0.200 A 
ATOM     13  O   UNL d   1      46.139 -12.729  44.955  0.00  0.00    -0.286 OA
ATOM     14  C   UNL d   1      45.520 -12.906  43.700  0.00  0.00     0.062 A 
ATOM     15  C   UNL d   1      44.945 -13.266  43.231  0.00  0.00     0.103 A 
ATOM     16  C   UNL d   1      46.027 -12.369  43.336  0.00  0.00     0.005 A 
ATOM     17  O   UNL d   1      44.421 -13.808  43.566  0.00  0.00    -0.302 OA
ATOM     18  C   UNL d   1      44.897 -13.076  42.411  0.00  0.00     0.025 A 
ATOM     19  C   UNL d   1      45.392 -12.553  42.058  0.00  0.00     0.002 A 
ATOM     20  C   UNL d   1      45.949 -12.208  42.526  0.00  0.00     0.000 A 
ENDBRANCH   8  10
ENDBRANCH   2   7
BRANCH   1  21
ATOM     21  C   UNL d   1      46.137 -17.078  43.729  0.00  0.00     0.111 A 
ATOM     22  N   UNL d   1      46.177 -17.250  42.924  0.00  0.00    -0.239 NA
ATOM     23  C   UNL d   1      46.320 -18.060  42.837  0.00  0.00     0.088 A 
ATOM     24  C   UNL d   1      46.417 -18.570  42.189  0.00  0.00     0.020 A 
ATOM     25  C   UNL d   1      46.366 -18.375  43.597  0.00  0.00     0.049 A 
ATOM     26  C   UNL d   1      46.561 -19.398  42.270  0.00  0.00     0.002 A 
ATOM     27  C   UNL d   1      46.608 -19.719  43.053  0.00  0.00     0.001 A 
ATOM     28  C   UNL d   1      46.508 -19.192  43.706  0.00  0.00     0.008 A 
ATOM     29  S   UNL d   1      46.250 -17.749  44.146  0.00  0.00    -0.066 SA
ENDBRANCH   1  21
TORSDOF 3
ENDMDL
