MODEL 1
REMARK VINA RESULT:      59.8      0.000      0.000
REMARK  7 active torsions:
REMARK  status: ('A' for Active; 'I' for Inactive)
REMARK    1  A    between atoms: C_8  and  N_1 
REMARK    2  A    between atoms: C_7  and  C_3 
REMARK    3  A    between atoms: C_10  and  C_6 
REMARK    4  A    between atoms: C_11  and  C_7 
REMARK    5  A    between atoms: C_14  and  C_8 
REMARK    6  A    between atoms: C_12  and  C_14 
REMARK       I    between atoms: N_17  and  C_12 
REMARK    7  A    between atoms: C_20  and  N_17 
ROOT
ATOM      1  C   UNL d   1     -49.588  27.565  33.944  0.00  0.00     0.089 C 
ENDROOT
BRANCH   1   2
ATOM      2  N   UNL d   1     -49.963  26.866  33.718  0.00  0.00    -0.259 N 
ATOM      3  C   UNL d   1     -49.610  26.142  33.490  0.00  0.00     0.153 A 
ATOM      4  S   UNL d   1     -50.212  25.593  33.311  0.00  0.00    -0.053 SA
ATOM      5  S   UNL d   1     -48.785  26.000  33.452  0.00  0.00    -0.052 SA
ATOM      6  C   UNL d   1     -50.949  25.974  33.426  0.00  0.00     0.090 A 
ATOM      7  C   UNL d   1     -50.795  26.745  33.673  0.00  0.00     0.272 A 
ATOM      8  O   UNL d   1     -51.396  27.322  33.852  0.00  0.00    -0.266 OA
BRANCH   6   9
ATOM      9  C   UNL d   1     -51.685  25.621  33.308  0.00  0.00     0.036 C 
BRANCH   9  10
ATOM     10  C   UNL d   1     -51.775  24.813  33.498  0.00  0.00     0.101 A 
ATOM     11  O   UNL d   1     -51.318  24.148  33.306  0.00  0.00    -0.305 OA
ATOM     12  C   UNL d   1     -51.706  23.488  33.668  0.00  0.00     0.123 A 
ATOM     13  C   UNL d   1     -52.346  23.749  34.045  0.00  0.00     0.029 A 
ATOM     14  C   UNL d   1     -52.415  24.564  33.958  0.00  0.00     0.027 A 
ENDBRANCH   9  10
ENDBRANCH   6   9
ENDBRANCH   1   2
BRANCH   1  15
ATOM     15  C   UNL d   1     -48.879  27.550  34.417  0.00  0.00     0.082 C 
BRANCH  15  16
ATOM     16  C   UNL d   1     -48.452  28.241  34.533  0.00  0.00     0.281 C 
ATOM     17  N   UNL d   1     -48.786  28.859  34.968  0.00  0.00    -0.208 NA
ATOM     18  O   UNL d   1     -47.692  28.309  34.214  0.00  0.00    -0.265 OA
BRANCH  17  19
ATOM     19  C   UNL d   1     -48.357  29.553  35.084  0.00  0.00     0.088 A 
ATOM     20  C   UNL d   1     -47.852  29.609  35.718  0.00  0.00     0.061 A 
ATOM     21  C   UNL d   1     -47.419  30.282  35.853  0.00  0.00     0.203 A 
ATOM     22  O   UNL d   1     -46.899  30.323  36.518  0.00  0.00    -0.286 OA
ATOM     23  C   UNL d   1     -47.519  30.933  35.294  0.00  0.00     0.103 A 
ATOM     24  C   UNL d   1     -48.021  30.880  34.662  0.00  0.00     0.011 A 
ATOM     25  C   UNL d   1     -48.449  30.162  34.563  0.00  0.00     0.020 A 
BRANCH  23  26
ATOM     26  C   UNL d   1     -47.096  31.643  35.391  0.00  0.00     0.214 C 
ATOM     27  O   UNL d   1     -47.161  32.261  34.816  0.00  0.00    -0.644 OA
ATOM     28  O   UNL d   1     -46.607  31.771  36.039  0.00  0.00    -0.644 OA
ENDBRANCH  23  26
ENDBRANCH  17  19
ENDBRANCH  15  16
ENDBRANCH   1  15
TORSDOF 7
ENDMDL
