MODEL 1
REMARK VINA RESULT:     148.0      0.000      0.000
REMARK  4 active torsions:
REMARK  status: ('A' for Active; 'I' for Inactive)
REMARK    1  A    between atoms: C_18  and  N_4 
REMARK    2  A    between atoms: C_11  and  C_6 
REMARK       I    between atoms: N_15  and  C_11 
REMARK    3  A    between atoms: C_26  and  N_15 
REMARK    4  A    between atoms: C_17  and  C_26 
ROOT
ATOM      1  C   UNL d   1      61.003  46.559  50.615  0.00  0.00     0.155 A 
ATOM      2  C   UNL d   1      60.335  46.655  51.086  0.00  0.00     0.091 A 
ATOM      3  N   UNL d   1      61.374  45.820  50.584  0.00  0.00    -0.210 NA
ATOM      4  N   UNL d   1      61.290  47.187  50.188  0.00  0.00    -0.275 N 
ATOM      5  C   UNL d   1      60.925  47.917  50.218  0.00  0.00     0.175 A 
ATOM      6  C   UNL d   1      60.258  48.012  50.689  0.00  0.00     0.094 A 
ATOM      7  N   UNL d   1      60.409  45.278  51.492  0.00  0.00    -0.258 N 
ATOM      8  C   UNL d   1      61.087  45.181  51.013  0.00  0.00     0.152 A 
ATOM      9  C   UNL d   1      60.028  46.012  51.533  0.00  0.00     0.269 A 
ATOM     10  C   UNL d   1      59.956  47.386  51.126  0.00  0.00     0.016 A 
ATOM     11  C   UNL d   1      61.457  44.453  50.979  0.00  0.00     0.035 A 
ATOM     12  N   UNL d   1      61.218  48.562  49.782  0.00  0.00    -0.128 N 
ATOM     13  C   UNL d   1      60.111  44.646  51.928  0.00  0.00     0.084 A 
ATOM     14  O   UNL d   1      59.365  46.115  51.997  0.00  0.00    -0.266 OA
ATOM     15  C   UNL d   1      60.492  43.913  51.886  0.00  0.00     0.019 A 
ATOM     16  C   UNL d   1      61.171  43.816  51.408  0.00  0.00     0.005 A 
ATOM     17  C   UNL d   1      62.131  44.357  50.504  0.00  0.00     0.003 C 
ENDROOT
BRANCH   6  18
ATOM     18  C   UNL d   1      59.882  48.753  50.724  0.00  0.00     0.282 C 
ATOM     19  N   UNL d   1      59.063  48.799  50.817  0.00  0.00    -0.204 NA
ATOM     20  O   UNL d   1      60.331  49.445  50.666  0.00  0.00    -0.265 OA
BRANCH  19  21
ATOM     21  C   UNL d   1      58.692  49.530  50.852  0.00  0.00     0.127 C 
BRANCH  21  22
ATOM     22  C   UNL d   1      57.865  49.584  50.795  0.00  0.00     0.119 A 
ATOM     23  O   UNL d   1      57.429  49.663  50.097  0.00  0.00    -0.304 OA
ATOM     24  C   UNL d   1      56.628  49.695  50.304  0.00  0.00     0.123 A 
ATOM     25  C   UNL d   1      56.576  49.636  51.124  0.00  0.00     0.029 A 
ATOM     26  C   UNL d   1      57.344  49.567  51.428  0.00  0.00     0.028 A 
ENDBRANCH  21  22
ENDBRANCH  19  21
ENDBRANCH   6  18
BRANCH   4  27
ATOM     27  C   UNL d   1      61.964  47.091  49.713  0.00  0.00     0.067 A 
ATOM     28  C   UNL d   1      62.090  46.469  49.187  0.00  0.00     0.018 A 
ATOM     29  C   UNL d   1      62.826  46.588  48.831  0.00  0.00     0.002 A 
ATOM     30  C   UNL d   1      63.158  47.291  49.139  0.00  0.00     0.002 A 
ATOM     31  C   UNL d   1      62.617  47.591  49.682  0.00  0.00     0.018 A 
ENDBRANCH   4  27
TORSDOF 4
ENDMDL
