MODEL 1
REMARK VINA RESULT:      -5.1      0.000      0.000
REMARK  4 active torsions:
REMARK  status: ('A' for Active; 'I' for Inactive)
REMARK    1  A    between atoms: N_2  and  C_1 
REMARK    2  A    between atoms: C_3  and  C_1 
REMARK       I    between atoms: C_6  and  N_2 
REMARK    3  A    between atoms: S_9  and  C_6 
REMARK    4  A    between atoms: C_14  and  S_9 
ROOT
ATOM      1  C   UNL d   1     -41.568-122.322 -52.652  0.00  0.00     0.385 A 
ATOM      2  O   UNL d   1     -41.813-121.958 -53.337  0.00  0.00    -0.283 OA
ATOM      3  O   UNL d   1     -41.306-123.090 -52.852  0.00  0.00    -0.283 OA
ATOM      4  C   UNL d   1     -41.397-123.179 -53.667  0.00  0.00     0.121 A 
ATOM      5  C   UNL d   1     -41.714-122.471 -53.970  0.00  0.00     0.121 A 
ATOM      6  C   UNL d   1     -41.864-122.399 -54.768  0.00  0.00     0.026 A 
ATOM      7  C   UNL d   1     -41.236-123.802 -54.167  0.00  0.00     0.026 A 
ATOM      8  C   UNL d   1     -41.391-123.725 -54.979  0.00  0.00     0.002 A 
ATOM      9  C   UNL d   1     -41.699-123.037 -55.273  0.00  0.00     0.002 A 
ENDROOT
BRANCH   1  10
ATOM     10  N   UNL d   1     -41.539-122.075 -51.852  0.00  0.00    -0.171 NA
ATOM     11  C   UNL d   1     -41.360-122.620 -51.258  0.00  0.00     0.310 C 
ATOM     12  O   UNL d   1     -41.210-123.405 -51.447  0.00  0.00    -0.258 OA
BRANCH  11  13
ATOM     13  S   UNL d   1     -41.332-122.373 -50.469  0.00  0.00    -0.026 SA
BRANCH  13  14
ATOM     14  C   UNL d   1     -41.785-122.759 -49.897  0.00  0.00     0.034 A 
ATOM     15  C   UNL d   1     -42.541-122.485 -49.714  0.00  0.00     0.007 A 
ATOM     16  C   UNL d   1     -42.992-122.872 -49.143  0.00  0.00     0.001 A 
ATOM     17  C   UNL d   1     -42.687-123.533 -48.755  0.00  0.00     0.000 A 
ATOM     18  C   UNL d   1     -41.932-123.811 -48.934  0.00  0.00     0.001 A 
ATOM     19  C   UNL d   1     -41.481-123.421 -49.508  0.00  0.00     0.007 A 
ENDBRANCH  13  14
ENDBRANCH  11  13
ENDBRANCH   1  10
BRANCH   1  20
ATOM     20  C   UNL d   1     -41.880-121.598 -52.881  0.00  0.00     0.470 C 
ATOM     21  F   UNL d   1     -42.211-120.872 -53.111  0.00  0.00    -0.164 F 
ATOM     22  F   UNL d   1     -42.649-121.922 -52.817  0.00  0.00    -0.164 F 
ATOM     23  F   UNL d   1     -41.123-121.285 -52.941  0.00  0.00    -0.164 F 
ENDBRANCH   1  20
TORSDOF 4
ENDMDL
MODEL 2
REMARK VINA RESULT:      -4.3      1.158      1.645
REMARK  4 active torsions:
REMARK  status: ('A' for Active; 'I' for Inactive)
REMARK    1  A    between atoms: N_2  and  C_1 
REMARK    2  A    between atoms: C_3  and  C_1 
REMARK       I    between atoms: C_6  and  N_2 
REMARK    3  A    between atoms: S_9  and  C_6 
REMARK    4  A    between atoms: C_14  and  S_9 
ROOT
ATOM      1  C   UNL d   1     -42.036-122.515 -51.361  0.00  0.00     0.385 A 
ATOM      2  O   UNL d   1     -41.789-122.006 -51.946  0.00  0.00    -0.283 OA
ATOM      3  O   UNL d   1     -41.976-123.294 -51.660  0.00  0.00    -0.283 OA
ATOM      4  C   UNL d   1     -41.690-123.242 -52.432  0.00  0.00     0.121 A 
ATOM      5  C   UNL d   1     -41.574-122.436 -52.611  0.00  0.00     0.121 A 
ATOM      6  C   UNL d   1     -41.292-122.218 -53.343  0.00  0.00     0.026 A 
ATOM      7  C   UNL d   1     -41.523-123.813 -52.989  0.00  0.00     0.026 A 
ATOM      8  C   UNL d   1     -41.236-123.585 -53.734  0.00  0.00     0.002 A 
ATOM      9  C   UNL d   1     -41.123-122.803 -53.907  0.00  0.00     0.002 A 
ENDROOT
BRANCH   1  10
ATOM     10  N   UNL d   1     -42.314-122.398 -50.580  0.00  0.00    -0.171 NA
ATOM     11  C   UNL d   1     -42.512-123.046 -50.110  0.00  0.00     0.310 C 
ATOM     12  O   UNL d   1     -42.437-123.809 -50.404  0.00  0.00    -0.258 OA
BRANCH  11  13
ATOM     13  S   UNL d   1     -42.786-122.926 -49.338  0.00  0.00    -0.026 SA
BRANCH  13  14
ATOM     14  C   UNL d   1     -42.339-123.182 -48.694  0.00  0.00     0.034 A 
ATOM     15  C   UNL d   1     -41.568-123.453 -48.807  0.00  0.00     0.007 A 
ATOM     16  C   UNL d   1     -41.123-123.708 -48.163  0.00  0.00     0.001 A 
ATOM     17  C   UNL d   1     -41.448-123.693 -47.404  0.00  0.00     0.000 A 
ATOM     18  C   UNL d   1     -42.218-123.424 -47.286  0.00  0.00     0.001 A 
ATOM     19  C   UNL d   1     -42.663-123.168 -47.935  0.00  0.00     0.007 A 
ENDBRANCH  13  14
ENDBRANCH  11  13
ENDBRANCH   1  10
BRANCH   1  20
ATOM     20  C   UNL d   1     -41.945-121.707 -51.468  0.00  0.00     0.470 C 
ATOM     21  F   UNL d   1     -41.836-120.891 -51.574  0.00  0.00    -0.164 F 
ATOM     22  F   UNL d   1     -41.123-121.793 -51.335  0.00  0.00    -0.164 F 
ATOM     23  F   UNL d   1     -42.752-121.628 -51.598  0.00  0.00    -0.164 F 
ENDBRANCH   1  20
TORSDOF 4
ENDMDL
MODEL 3
REMARK VINA RESULT:      -4.2      1.404      4.296
REMARK  4 active torsions:
REMARK  status: ('A' for Active; 'I' for Inactive)
REMARK    1  A    between atoms: N_2  and  C_1 
REMARK    2  A    between atoms: C_3  and  C_1 
REMARK       I    between atoms: C_6  and  N_2 
REMARK    3  A    between atoms: S_9  and  C_6 
REMARK    4  A    between atoms: C_14  and  S_9 
ROOT
ATOM      1  C   UNL d   1     -42.259-122.585 -50.384  0.00  0.00     0.385 A 
ATOM      2  O   UNL d   1     -42.800-122.652 -49.780  0.00  0.00    -0.283 OA
ATOM      3  O   UNL d   1     -41.546-122.936 -50.126  0.00  0.00    -0.283 OA
ATOM      4  C   UNL d   1     -41.669-123.213 -49.359  0.00  0.00     0.121 A 
ATOM      5  C   UNL d   1     -42.454-123.035 -49.143  0.00  0.00     0.121 A 
ATOM      6  C   UNL d   1     -42.732-123.246 -48.407  0.00  0.00     0.026 A 
ATOM      7  C   UNL d   1     -41.178-123.599 -48.835  0.00  0.00     0.026 A 
ATOM      8  C   UNL d   1     -41.466-123.812 -48.086  0.00  0.00     0.002 A 
ATOM      9  C   UNL d   1     -42.228-123.639 -47.876  0.00  0.00     0.002 A 
ENDROOT
BRANCH   1  10
ATOM     10  N   UNL d   1     -42.297-122.253 -51.152  0.00  0.00    -0.171 NA
ATOM     11  C   UNL d   1     -41.728-122.451 -51.716  0.00  0.00     0.310 C 
ATOM     12  O   UNL d   1     -41.123-122.974 -51.529  0.00  0.00    -0.258 OA
BRANCH  11  13
ATOM     13  S   UNL d   1     -41.768-122.121 -52.474  0.00  0.00    -0.026 SA
BRANCH  13  14
ATOM     14  C   UNL d   1     -41.601-122.583 -53.137  0.00  0.00     0.034 A 
ATOM     15  C   UNL d   1     -41.740-122.286 -53.894  0.00  0.00     0.007 A 
ATOM     16  C   UNL d   1     -41.572-122.748 -54.555  0.00  0.00     0.001 A 
ATOM     17  C   UNL d   1     -41.266-123.509 -54.459  0.00  0.00     0.000 A 
ATOM     18  C   UNL d   1     -41.126-123.811 -53.705  0.00  0.00     0.001 A 
ATOM     19  C   UNL d   1     -41.295-123.344 -53.043  0.00  0.00     0.007 A 
ENDBRANCH  13  14
ENDBRANCH  11  13
ENDBRANCH   1  10
BRANCH   1  20
ATOM     20  C   UNL d   1     -43.040-122.379 -50.239  0.00  0.00     0.470 C 
ATOM     21  F   UNL d   1     -43.825-122.154 -50.090  0.00  0.00    -0.164 F 
ATOM     22  F   UNL d   1     -42.803-121.579 -50.166  0.00  0.00    -0.164 F 
ATOM     23  F   UNL d   1     -43.267-123.164 -50.311  0.00  0.00    -0.164 F 
ENDBRANCH   1  20
TORSDOF 4
ENDMDL
MODEL 4
REMARK VINA RESULT:      -2.4      1.436      4.357
REMARK  4 active torsions:
REMARK  status: ('A' for Active; 'I' for Inactive)
REMARK    1  A    between atoms: N_2  and  C_1 
REMARK    2  A    between atoms: C_3  and  C_1 
REMARK       I    between atoms: C_6  and  N_2 
REMARK    3  A    between atoms: S_9  and  C_6 
REMARK    4  A    between atoms: C_14  and  S_9 
ROOT
ATOM      1  C   UNL d   1     -42.080-122.560 -51.367  0.00  0.00     0.385 A 
ATOM      2  O   UNL d   1     -42.043-123.094 -50.755  0.00  0.00    -0.283 OA
ATOM      3  O   UNL d   1     -42.735-122.059 -51.229  0.00  0.00    -0.283 OA
ATOM      4  C   UNL d   1     -43.088-122.302 -50.524  0.00  0.00     0.121 A 
ATOM      5  C   UNL d   1     -42.655-122.949 -50.228  0.00  0.00     0.121 A 
ATOM      6  C   UNL d   1     -42.880-123.305 -49.531  0.00  0.00     0.026 A 
ATOM      7  C   UNL d   1     -43.737-122.024 -50.118  0.00  0.00     0.026 A 
ATOM      8  C   UNL d   1     -43.963-122.390 -49.408  0.00  0.00     0.002 A 
ATOM      9  C   UNL d   1     -43.543-123.018 -49.120  0.00  0.00     0.002 A 
ENDROOT
BRANCH   1  10
ATOM     10  N   UNL d   1     -41.612-122.441 -52.052  0.00  0.00    -0.171 NA
ATOM     11  C   UNL d   1     -41.913-122.011 -52.688  0.00  0.00     0.310 C 
ATOM     12  O   UNL d   1     -42.671-121.697 -52.655  0.00  0.00    -0.258 OA
BRANCH  11  13
ATOM     13  S   UNL d   1     -41.448-121.895 -53.363  0.00  0.00    -0.026 SA
BRANCH  13  14
ATOM     14  C   UNL d   1     -41.750-122.073 -54.110  0.00  0.00     0.034 A 
ATOM     15  C   UNL d   1     -41.629-122.820 -54.439  0.00  0.00     0.007 A 
ATOM     16  C   UNL d   1     -41.931-122.996 -55.184  0.00  0.00     0.001 A 
ATOM     17  C   UNL d   1     -42.354-122.424 -55.603  0.00  0.00     0.000 A 
ATOM     18  C   UNL d   1     -42.478-121.676 -55.280  0.00  0.00     0.001 A 
ATOM     19  C   UNL d   1     -42.174-121.502 -54.530  0.00  0.00     0.007 A 
ENDBRANCH  13  14
ENDBRANCH  11  13
ENDBRANCH   1  10
BRANCH   1  20
ATOM     20  C   UNL d   1     -41.609-123.190 -51.135  0.00  0.00     0.470 C 
ATOM     21  F   UNL d   1     -41.123-123.818 -50.891  0.00  0.00    -0.164 F 
ATOM     22  F   UNL d   1     -41.126-122.657 -50.706  0.00  0.00    -0.164 F 
ATOM     23  F   UNL d   1     -42.086-123.710 -51.556  0.00  0.00    -0.164 F 
ENDBRANCH   1  20
TORSDOF 4
ENDMDL
