MODEL 1
REMARK VINA RESULT:      36.9      0.000      0.000
REMARK  5 active torsions:
REMARK  status: ('A' for Active; 'I' for Inactive)
REMARK    1  A    between atoms: S_4  and  N_1 
REMARK    2  A    between atoms: C_2  and  C_5 
REMARK    3  A    between atoms: C_12  and  C_7 
REMARK    4  A    between atoms: O_26  and  C_24 
REMARK    5  A    between atoms: C_27  and  O_26 
ROOT
ATOM      1  C   UNL d   1      45.805 -16.409  43.993  0.00  0.00     0.076 A 
ATOM      2  C   UNL d   1      45.982 -16.582  43.210  0.00  0.00     0.281 A 
ATOM      3  C   UNL d   1      45.833 -17.004  44.564  0.00  0.00     0.008 A 
ATOM      4  N   UNL d   1      46.189 -17.352  42.993  0.00  0.00    -0.208 NA
ATOM      5  C   UNL d   1      46.218 -17.953  43.567  0.00  0.00     0.087 A 
ATOM      6  C   UNL d   1      46.041 -17.780  44.350  0.00  0.00     0.018 A 
ATOM      7  C   UNL d   1      46.425 -18.723  43.351  0.00  0.00     0.044 A 
ATOM      8  O   UNL d   1      46.071 -16.344  42.421  0.00  0.00    -0.265 OA
ATOM      9  C   UNL d   1      46.069 -18.375  44.922  0.00  0.00     0.004 A 
ATOM     10  C   UNL d   1      46.444 -19.263  43.909  0.00  0.00     0.102 A 
ATOM     11  C   UNL d   1      46.267 -19.089  44.691  0.00  0.00     0.025 A 
ENDROOT
BRANCH   1  12
ATOM     12  C   UNL d   1      45.598 -15.638  44.208  0.00  0.00     0.101 A 
ATOM     13  N   UNL d   1      44.903 -15.409  44.556  0.00  0.00    -0.155 N 
ATOM     14  N   UNL d   1      44.926 -14.598  44.675  0.00  0.00    -0.153 NA
ATOM     15  C   UNL d   1      45.647 -14.332  44.395  0.00  0.00     0.126 A 
ATOM     16  C   UNL d   1      46.072 -14.971  44.103  0.00  0.00     0.043 A 
BRANCH  13  17
ATOM     17  S   UNL d   1      44.283 -15.905  44.754  0.00  0.00     0.266 S 
ATOM     18  O   UNL d   1      43.730 -15.300  44.555  0.00  0.00    -0.203 OA
ATOM     19  O   UNL d   1      44.801 -16.514  44.954  0.00  0.00    -0.203 OA
ATOM     20  C   UNL d   1      43.627 -16.405  44.954  0.00  0.00     0.165 C 
ENDBRANCH  13  17
BRANCH  15  21
ATOM     21  C   UNL d   1      45.905 -13.560  44.403  0.00  0.00     0.119 A 
ATOM     22  O   UNL d   1      45.585 -12.928  43.968  0.00  0.00    -0.304 OA
ATOM     23  C   UNL d   1      46.015 -12.257  44.144  0.00  0.00     0.123 A 
ATOM     24  C   UNL d   1      46.618 -12.455  44.699  0.00  0.00     0.029 A 
ATOM     25  C   UNL d   1      46.530 -13.268  44.844  0.00  0.00     0.028 A 
ENDBRANCH  15  21
ENDBRANCH   1  12
BRANCH  10  26
ATOM     26  O   UNL d   1      46.646 -20.028  43.716  0.00  0.00    -0.305 OA
BRANCH  26  27
ATOM     27  C   UNL d   1      45.983 -20.264  42.804  0.00  0.00     0.123 C 
ATOM     28  C   UNL d   1      46.300 -20.267  42.028  0.00  0.00     0.029 C 
ENDBRANCH  26  27
ENDBRANCH  10  26
TORSDOF 5
ENDMDL
