MODEL 1
REMARK VINA RESULT:      -8.4      0.000      0.000
REMARK  0 active torsions:
REMARK  status: ('A' for Active; 'I' for Inactive)
REMARK       I    between atoms: N_3  and  C_1 
REMARK       I    between atoms: N_5  and  C_1 
REMARK       I    between atoms: C_2  and  N_4 
REMARK       I    between atoms: N_6  and  C_2 
ROOT
ATOM      1  C   UNL d   1     -48.776  13.058  23.370  0.00  0.00     0.339 C 
ATOM      2  C   UNL d   1     -45.579  12.358  22.948  0.00  0.00     0.340 C 
ATOM      3  N   UNL d   1     -47.964  12.884  23.262  0.00  0.00    -0.254 N 
ATOM      4  N   UNL d   1     -46.378  12.536  23.052  0.00  0.00    -0.254 N 
ATOM      5  N   UNL d   1     -49.072  13.799  23.158  0.00  0.00    -0.258 N 
ATOM      6  N   UNL d   1     -45.292  11.618  23.163  0.00  0.00    -0.253 N 
ATOM      7  O   UNL d   1     -49.275  12.492  23.688  0.00  0.00    -0.245 OA
ATOM      8  O   UNL d   1     -45.064  12.920  22.629  0.00  0.00    -0.245 OA
ATOM      9  C   UNL d   1     -46.667  13.295  22.832  0.00  0.00     0.104 A 
ATOM     10  C   UNL d   1     -46.884  11.980  23.368  0.00  0.00     0.104 A 
ATOM     11  C   UNL d   1     -47.683  12.155  23.473  0.00  0.00     0.104 A 
ATOM     12  C   UNL d   1     -47.466  13.470  22.937  0.00  0.00     0.104 A 
ATOM     13  O   UNL d   1     -44.730  10.132  23.596  0.00  0.00    -0.300 OA
ATOM     14  C   UNL d   1     -45.807  11.056  23.482  0.00  0.00     0.111 A 
ATOM     15  C   UNL d   1     -44.492  11.443  23.057  0.00  0.00     0.111 A 
ATOM     16  C   UNL d   1     -49.877  13.916  23.286  0.00  0.00     0.085 A 
ATOM     17  C   UNL d   1     -48.520  14.330  22.842  0.00  0.00     0.085 A 
ATOM     18  C   UNL d   1     -44.211  10.694  23.276  0.00  0.00     0.142 A 
ATOM     19  C   UNL d   1     -45.528  10.319  23.697  0.00  0.00     0.142 A 
ATOM     20  C   UNL d   1     -50.331  14.585  23.134  0.00  0.00     0.019 A 
ATOM     21  C   UNL d   1     -48.644  15.104  22.580  0.00  0.00     0.019 A 
ATOM     22  C   UNL d   1     -50.099  15.304  22.816  0.00  0.00     0.002 A 
ATOM     23  C   UNL d   1     -49.345  15.534  22.569  0.00  0.00     0.002 A 
ENDROOT
TORSDOF 0
ENDMDL
MODEL 2
REMARK VINA RESULT:      -8.1      0.950      4.942
REMARK  0 active torsions:
REMARK  status: ('A' for Active; 'I' for Inactive)
REMARK       I    between atoms: N_3  and  C_1 
REMARK       I    between atoms: N_5  and  C_1 
REMARK       I    between atoms: C_2  and  N_4 
REMARK       I    between atoms: N_6  and  C_2 
ROOT
ATOM      1  C   UNL d   1     -46.185  12.871  22.878  0.00  0.00     0.339 C 
ATOM      2  C   UNL d   1     -49.388  13.502  23.359  0.00  0.00     0.340 C 
ATOM      3  N   UNL d   1     -46.998  13.028  23.001  0.00  0.00    -0.254 N 
ATOM      4  N   UNL d   1     -48.587  13.341  23.240  0.00  0.00    -0.254 N 
ATOM      5  N   UNL d   1     -45.866  12.141  23.093  0.00  0.00    -0.258 N 
ATOM      6  N   UNL d   1     -49.697  14.232  23.142  0.00  0.00    -0.253 N 
ATOM      7  O   UNL d   1     -45.706  13.445  22.542  0.00  0.00    -0.245 OA
ATOM      8  O   UNL d   1     -49.882  12.932  23.697  0.00  0.00    -0.245 OA
ATOM      9  C   UNL d   1     -48.276  12.592  23.465  0.00  0.00     0.104 A 
ATOM     10  C   UNL d   1     -48.101  13.905  22.907  0.00  0.00     0.104 A 
ATOM     11  C   UNL d   1     -47.300  13.747  22.786  0.00  0.00     0.104 A 
ATOM     12  C   UNL d   1     -47.475  12.435  23.344  0.00  0.00     0.104 A 
ATOM     13  O   UNL d   1     -50.303  15.698  22.701  0.00  0.00    -0.300 OA
ATOM     14  C   UNL d   1     -49.202  14.802  22.804  0.00  0.00     0.111 A 
ATOM     15  C   UNL d   1     -50.498  14.389  23.262  0.00  0.00     0.111 A 
ATOM     16  C   UNL d   1     -45.062  12.041  22.949  0.00  0.00     0.085 A 
ATOM     17  C   UNL d   1     -46.399  11.601  23.428  0.00  0.00     0.085 A 
ATOM     18  C   UNL d   1     -50.802  15.129  23.040  0.00  0.00     0.142 A 
ATOM     19  C   UNL d   1     -49.504  15.529  22.585  0.00  0.00     0.142 A 
ATOM     20  C   UNL d   1     -44.590  11.385  23.100  0.00  0.00     0.019 A 
ATOM     21  C   UNL d   1     -46.252  10.834  23.697  0.00  0.00     0.019 A 
ATOM     22  C   UNL d   1     -44.797  10.665  23.432  0.00  0.00     0.002 A 
ATOM     23  C   UNL d   1     -45.540  10.420  23.698  0.00  0.00     0.002 A 
ENDROOT
TORSDOF 0
ENDMDL
MODEL 3
REMARK VINA RESULT:      -6.8      1.336      1.716
REMARK  0 active torsions:
REMARK  status: ('A' for Active; 'I' for Inactive)
REMARK       I    between atoms: N_3  and  C_1 
REMARK       I    between atoms: N_5  and  C_1 
REMARK       I    between atoms: C_2  and  N_4 
REMARK       I    between atoms: N_6  and  C_2 
ROOT
ATOM      1  C   UNL d   1     -48.595  11.800  23.390  0.00  0.00     0.339 C 
ATOM      2  C   UNL d   1     -45.809  13.176  22.278  0.00  0.00     0.340 C 
ATOM      3  N   UNL d   1     -47.890  12.152  23.107  0.00  0.00    -0.254 N 
ATOM      4  N   UNL d   1     -46.508  12.835  22.555  0.00  0.00    -0.254 N 
ATOM      5  N   UNL d   1     -49.307  12.216  23.359  0.00  0.00    -0.258 N 
ATOM      6  N   UNL d   1     -45.104  12.755  22.312  0.00  0.00    -0.253 N 
ATOM      7  O   UNL d   1     -48.575  11.040  23.698  0.00  0.00    -0.245 OA
ATOM      8  O   UNL d   1     -45.814  13.941  21.965  0.00  0.00    -0.245 OA
ATOM      9  C   UNL d   1     -47.227  13.270  22.518  0.00  0.00     0.104 A 
ATOM     10  C   UNL d   1     -46.500  12.080  22.864  0.00  0.00     0.104 A 
ATOM     11  C   UNL d   1     -47.197  11.735  23.142  0.00  0.00     0.104 A 
ATOM     12  C   UNL d   1     -47.923  12.926  22.796  0.00  0.00     0.104 A 
ATOM     13  O   UNL d   1     -43.699  11.900  22.387  0.00  0.00    -0.300 OA
ATOM     14  C   UNL d   1     -45.100  11.990  22.625  0.00  0.00     0.111 A 
ATOM     15  C   UNL d   1     -44.408  13.099  22.034  0.00  0.00     0.111 A 
ATOM     16  C   UNL d   1     -49.968  11.822  23.651  0.00  0.00     0.085 A 
ATOM     17  C   UNL d   1     -49.264  12.978  23.038  0.00  0.00     0.085 A 
ATOM     18  C   UNL d   1     -43.700  12.667  22.073  0.00  0.00     0.142 A 
ATOM     19  C   UNL d   1     -44.402  11.566  22.662  0.00  0.00     0.142 A 
ATOM     20  C   UNL d   1     -50.746  12.085  23.696  0.00  0.00     0.019 A 
ATOM     21  C   UNL d   1     -49.873  13.526  22.933  0.00  0.00     0.019 A 
ATOM     22  C   UNL d   1     -51.062  12.804  23.462  0.00  0.00     0.002 A 
ATOM     23  C   UNL d   1     -50.671  13.447  23.122  0.00  0.00     0.002 A 
ENDROOT
TORSDOF 0
ENDMDL
MODEL 4
REMARK VINA RESULT:      -6.2      8.294      8.961
REMARK  0 active torsions:
REMARK  status: ('A' for Active; 'I' for Inactive)
REMARK       I    between atoms: N_3  and  C_1 
REMARK       I    between atoms: N_5  and  C_1 
REMARK       I    between atoms: C_2  and  N_4 
REMARK       I    between atoms: N_6  and  C_2 
ROOT
ATOM      1  C   UNL d   1     -39.439  14.288  18.321  0.00  0.00     0.339 C 
ATOM      2  C   UNL d   1     -39.524  14.341  21.620  0.00  0.00     0.340 C 
ATOM      3  N   UNL d   1     -39.464  14.304  19.158  0.00  0.00    -0.254 N 
ATOM      4  N   UNL d   1     -39.506  14.330  20.795  0.00  0.00    -0.254 N 
ATOM      5  N   UNL d   1     -39.960  14.755  17.883  0.00  0.00    -0.258 N 
ATOM      6  N   UNL d   1     -39.003  13.873  22.049  0.00  0.00    -0.253 N 
ATOM      7  O   UNL d   1     -38.897  13.807  17.939  0.00  0.00    -0.245 OA
ATOM      8  O   UNL d   1     -40.066  14.821  22.018  0.00  0.00    -0.245 OA
ATOM      9  C   UNL d   1     -40.042  14.811  20.360  0.00  0.00     0.104 A 
ATOM     10  C   UNL d   1     -38.970  13.855  20.403  0.00  0.00     0.104 A 
ATOM     11  C   UNL d   1     -38.949  13.842  19.579  0.00  0.00     0.104 A 
ATOM     12  C   UNL d   1     -40.021  14.798  19.536  0.00  0.00     0.104 A 
ATOM     13  O   UNL d   1     -37.952  12.929  22.896  0.00  0.00    -0.300 OA
ATOM     14  C   UNL d   1     -38.461  13.392  21.649  0.00  0.00     0.111 A 
ATOM     15  C   UNL d   1     -39.024  13.886  22.874  0.00  0.00     0.111 A 
ATOM     16  C   UNL d   1     -39.892  14.701  17.065  0.00  0.00     0.085 A 
ATOM     17  C   UNL d   1     -40.485  15.220  18.325  0.00  0.00     0.085 A 
ATOM     18  C   UNL d   1     -38.494  13.410  23.299  0.00  0.00     0.142 A 
ATOM     19  C   UNL d   1     -37.940  12.924  22.071  0.00  0.00     0.142 A 
ATOM     20  C   UNL d   1     -40.325  15.091  16.485  0.00  0.00     0.019 A 
ATOM     21  C   UNL d   1     -41.065  15.740  18.051  0.00  0.00     0.019 A 
ATOM     22  C   UNL d   1     -40.934  15.633  16.573  0.00  0.00     0.002 A 
ATOM     23  C   UNL d   1     -41.263  15.922  17.273  0.00  0.00     0.002 A 
ENDROOT
TORSDOF 0
ENDMDL
