MODEL 1
REMARK VINA RESULT:      -9.9      0.000      0.000
REMARK  3 active torsions:
REMARK  status: ('A' for Active; 'I' for Inactive)
REMARK    1  A    between atoms: C_6  and  C_1 
REMARK       I    between atoms: N_10  and  C_6 
REMARK    2  A    between atoms: C_23  and  N_10 
REMARK    3  A    between atoms: C_22  and  C_23 
ROOT
ATOM      1  C   UNL d   1     -48.155  14.219  22.489  0.00  0.00     0.266 C 
ATOM      2  N   UNL d   1     -47.948  13.604  22.991  0.00  0.00    -0.210 NA
ATOM      3  O   UNL d   1     -47.569  14.313  21.929  0.00  0.00    -0.269 OA
ENDROOT
BRANCH   1   4
ATOM      4  C   UNL d   1     -48.865  14.586  22.648  0.00  0.00     0.150 A 
ATOM      5  C   UNL d   1     -49.988  15.358  23.117  0.00  0.00     0.028 A 
ATOM      6  C   UNL d   1     -49.601  14.898  22.733  0.00  0.00     0.078 A 
ATOM      7  C   UNL d   1     -50.192  15.922  23.688  0.00  0.00     0.002 C 
ATOM      8  C   UNL d   1     -50.749  15.326  22.798  0.00  0.00     0.002 C 
ATOM      9  C   UNL d   1     -50.365  14.871  22.419  0.00  0.00     0.012 C 
ATOM     10  C   UNL d   1     -48.897  14.954  23.057  0.00  0.00    -0.023 A 
ATOM     11  C   UNL d   1     -49.958  14.487  22.129  0.00  0.00     0.211 A 
ATOM     12  C   UNL d   1     -48.237  14.703  23.014  0.00  0.00    -0.015 A 
ATOM     13  C   UNL d   1     -49.217  14.195  22.069  0.00  0.00     0.219 A 
ATOM     14  O   UNL d   1     -50.722  14.454  21.808  0.00  0.00    -0.288 OA
ATOM     15  O   UNL d   1     -49.566  13.779  21.462  0.00  0.00    -0.287 OA
ENDBRANCH   1   4
BRANCH   2  16
ATOM     16  C   UNL d   1     -47.238  13.197  22.875  0.00  0.00     0.102 C 
BRANCH  16  17
ATOM     17  C   UNL d   1     -46.789  12.545  23.098  0.00  0.00     0.021 A 
ATOM     18  C   UNL d   1     -45.975  12.535  22.940  0.00  0.00     0.028 A 
ATOM     19  C   UNL d   1     -45.516  11.874  23.164  0.00  0.00     0.119 A 
ATOM     20  O   UNL d   1     -44.719  11.706  23.086  0.00  0.00    -0.300 OA
ATOM     21  C   UNL d   1     -45.880  11.231  23.545  0.00  0.00     0.119 A 
ATOM     22  C   UNL d   1     -44.576  10.966  23.411  0.00  0.00     0.304 A 
ATOM     23  O   UNL d   1     -45.294  10.670  23.697  0.00  0.00    -0.300 OA
ATOM     24  C   UNL d   1     -46.693  11.251  23.698  0.00  0.00     0.026 A 
ATOM     25  C   UNL d   1     -47.147  11.904  23.476  0.00  0.00     0.004 A 
ENDBRANCH  16  17
ENDBRANCH   2  16
TORSDOF 3
ENDMDL
MODEL 2
REMARK VINA RESULT:      -8.6      1.822      2.032
REMARK  3 active torsions:
REMARK  status: ('A' for Active; 'I' for Inactive)
REMARK    1  A    between atoms: C_6  and  C_1 
REMARK       I    between atoms: N_10  and  C_6 
REMARK    2  A    between atoms: C_23  and  N_10 
REMARK    3  A    between atoms: C_22  and  C_23 
ROOT
ATOM      1  C   UNL d   1     -47.782  12.603  22.957  0.00  0.00     0.266 C 
ATOM      2  N   UNL d   1     -47.400  11.896  23.118  0.00  0.00    -0.210 NA
ATOM      3  O   UNL d   1     -47.249  13.217  23.033  0.00  0.00    -0.269 OA
ENDROOT
BRANCH   1   4
ATOM      4  C   UNL d   1     -48.572  12.546  22.764  0.00  0.00     0.150 A 
ATOM      5  C   UNL d   1     -49.999  12.367  22.670  0.00  0.00     0.028 A 
ATOM      6  C   UNL d   1     -49.326  12.520  22.488  0.00  0.00     0.078 A 
ATOM      7  C   UNL d   1     -50.653  12.135  23.123  0.00  0.00     0.002 C 
ATOM      8  C   UNL d   1     -50.448  12.506  21.991  0.00  0.00     0.002 C 
ATOM      9  C   UNL d   1     -49.782  12.657  21.813  0.00  0.00     0.012 C 
ATOM     10  C   UNL d   1     -48.934  12.379  23.144  0.00  0.00    -0.023 A 
ATOM     11  C   UNL d   1     -49.168  12.771  21.731  0.00  0.00     0.211 A 
ATOM     12  C   UNL d   1     -48.285  12.389  23.423  0.00  0.00    -0.015 A 
ATOM     13  C   UNL d   1     -48.429  12.787  22.034  0.00  0.00     0.219 A 
ATOM     14  O   UNL d   1     -49.619  12.911  21.049  0.00  0.00    -0.288 OA
ATOM     15  O   UNL d   1     -48.262  13.040  21.277  0.00  0.00    -0.287 OA
ENDBRANCH   1   4
BRANCH   2  16
ATOM     16  C   UNL d   1     -46.598  11.896  23.319  0.00  0.00     0.102 C 
BRANCH  16  17
ATOM     17  C   UNL d   1     -45.908  11.450  23.344  0.00  0.00     0.021 A 
ATOM     18  C   UNL d   1     -45.204  11.765  23.038  0.00  0.00     0.028 A 
ATOM     19  C   UNL d   1     -44.502  11.315  23.062  0.00  0.00     0.119 A 
ATOM     20  O   UNL d   1     -43.739  11.472  22.809  0.00  0.00    -0.300 OA
ATOM     21  C   UNL d   1     -44.512  10.553  23.394  0.00  0.00     0.119 A 
ATOM     22  C   UNL d   1     -43.270  10.819  22.977  0.00  0.00     0.304 A 
ATOM     23  O   UNL d   1     -43.747  10.249  23.339  0.00  0.00    -0.300 OA
ATOM     24  C   UNL d   1     -45.219  10.248  23.697  0.00  0.00     0.026 A 
ATOM     25  C   UNL d   1     -45.914  10.693  23.673  0.00  0.00     0.004 A 
ENDBRANCH  16  17
ENDBRANCH   2  16
TORSDOF 3
ENDMDL
MODEL 3
REMARK VINA RESULT:      -7.8      8.530     10.503
REMARK  3 active torsions:
REMARK  status: ('A' for Active; 'I' for Inactive)
REMARK    1  A    between atoms: C_6  and  C_1 
REMARK       I    between atoms: N_10  and  C_6 
REMARK    2  A    between atoms: C_23  and  N_10 
REMARK    3  A    between atoms: C_22  and  C_23 
ROOT
ATOM      1  C   UNL d   1     -39.666  14.059  18.043  0.00  0.00     0.266 C 
ATOM      2  N   UNL d   1     -39.440  14.594  18.621  0.00  0.00    -0.210 NA
ATOM      3  O   UNL d   1     -40.338  13.669  18.290  0.00  0.00    -0.269 OA
ENDROOT
BRANCH   1   4
ATOM      4  C   UNL d   1     -39.195  14.030  17.378  0.00  0.00     0.150 A 
ATOM      5  C   UNL d   1     -38.452  14.220  16.158  0.00  0.00     0.028 A 
ATOM      6  C   UNL d   1     -38.706  13.915  16.751  0.00  0.00     0.078 A 
ATOM      7  C   UNL d   1     -38.323  14.778  15.559  0.00  0.00     0.002 C 
ATOM      8  C   UNL d   1     -37.941  13.664  15.825  0.00  0.00     0.002 C 
ATOM      9  C   UNL d   1     -38.193  13.364  16.412  0.00  0.00     0.012 C 
ATOM     10  C   UNL d   1     -39.178  14.462  17.036  0.00  0.00    -0.023 A 
ATOM     11  C   UNL d   1     -38.460  13.166  16.947  0.00  0.00     0.211 A 
ATOM     12  C   UNL d   1     -39.617  14.600  17.573  0.00  0.00    -0.015 A 
ATOM     13  C   UNL d   1     -38.953  13.308  17.559  0.00  0.00     0.219 A 
ATOM     14  O   UNL d   1     -37.947  12.606  16.613  0.00  0.00    -0.288 OA
ATOM     15  O   UNL d   1     -38.712  12.557  17.763  0.00  0.00    -0.287 OA
ENDBRANCH   1   4
BRANCH   2  16
ATOM     16  C   UNL d   1     -39.882  14.664  19.316  0.00  0.00     0.102 C 
BRANCH  16  17
ATOM     17  C   UNL d   1     -39.913  14.998  20.067  0.00  0.00     0.021 A 
ATOM     18  C   UNL d   1     -39.293  14.864  20.600  0.00  0.00     0.028 A 
ATOM     19  C   UNL d   1     -39.321  15.201  21.364  0.00  0.00     0.119 A 
ATOM     20  O   UNL d   1     -38.804  15.170  21.998  0.00  0.00    -0.300 OA
ATOM     21  C   UNL d   1     -39.972  15.669  21.583  0.00  0.00     0.119 A 
ATOM     22  C   UNL d   1     -39.121  15.612  22.613  0.00  0.00     0.304 A 
ATOM     23  O   UNL d   1     -39.845  15.922  22.358  0.00  0.00    -0.300 OA
ATOM     24  C   UNL d   1     -40.586  15.796  21.043  0.00  0.00     0.026 A 
ATOM     25  C   UNL d   1     -40.558  15.463  20.288  0.00  0.00     0.004 A 
ENDBRANCH  16  17
ENDBRANCH   2  16
TORSDOF 3
ENDMDL
MODEL 4
REMARK VINA RESULT:      -7.8      8.805      9.525
REMARK  3 active torsions:
REMARK  status: ('A' for Active; 'I' for Inactive)
REMARK    1  A    between atoms: C_6  and  C_1 
REMARK       I    between atoms: N_10  and  C_6 
REMARK    2  A    between atoms: C_23  and  N_10 
REMARK    3  A    between atoms: C_22  and  C_23 
ROOT
ATOM      1  C   UNL d   1     -40.222  14.342  18.877  0.00  0.00     0.266 C 
ATOM      2  N   UNL d   1     -39.678  14.525  19.463  0.00  0.00    -0.210 NA
ATOM      3  O   UNL d   1     -40.894  14.036  19.225  0.00  0.00    -0.269 OA
ENDROOT
BRANCH   1   4
ATOM      4  C   UNL d   1     -39.988  14.496  18.112  0.00  0.00     0.150 A 
ATOM      5  C   UNL d   1     -39.403  14.578  16.797  0.00  0.00     0.028 A 
ATOM      6  C   UNL d   1     -39.825  14.716  17.356  0.00  0.00     0.078 A 
ATOM      7  C   UNL d   1     -38.816  14.229  16.328  0.00  0.00     0.002 C 
ATOM      8  C   UNL d   1     -39.636  15.108  16.209  0.00  0.00     0.002 C 
ATOM      9  C   UNL d   1     -40.052  15.243  16.763  0.00  0.00     0.012 C 
ATOM     10  C   UNL d   1     -39.580  14.203  17.886  0.00  0.00    -0.023 A 
ATOM     11  C   UNL d   1     -40.383  15.304  17.296  0.00  0.00     0.211 A 
ATOM     12  C   UNL d   1     -39.694  13.982  18.548  0.00  0.00    -0.015 A 
ATOM     13  C   UNL d   1     -40.523  15.064  18.044  0.00  0.00     0.219 A 
ATOM     14  O   UNL d   1     -40.618  15.837  16.705  0.00  0.00    -0.288 OA
ATOM     15  O   UNL d   1     -41.085  15.651  17.993  0.00  0.00    -0.287 OA
ENDBRANCH   1   4
BRANCH   2  16
ATOM     16  C   UNL d   1     -39.864  14.388  20.257  0.00  0.00     0.102 C 
BRANCH  16  17
ATOM     17  C   UNL d   1     -39.604  14.460  21.033  0.00  0.00     0.021 A 
ATOM     18  C   UNL d   1     -39.345  13.788  21.443  0.00  0.00     0.028 A 
ATOM     19  C   UNL d   1     -39.080  13.857  22.232  0.00  0.00     0.119 A 
ATOM     20  O   UNL d   1     -38.798  13.306  22.768  0.00  0.00    -0.300 OA
ATOM     21  C   UNL d   1     -39.079  14.602  22.602  0.00  0.00     0.119 A 
ATOM     22  C   UNL d   1     -38.619  13.694  23.469  0.00  0.00     0.304 A 
ATOM     23  O   UNL d   1     -38.792  14.497  23.368  0.00  0.00    -0.300 OA
ATOM     24  C   UNL d   1     -39.339  15.266  22.184  0.00  0.00     0.026 A 
ATOM     25  C   UNL d   1     -39.601  15.198  21.404  0.00  0.00     0.004 A 
ENDBRANCH  16  17
ENDBRANCH   2  16
TORSDOF 3
ENDMDL
MODEL 5
REMARK VINA RESULT:      -7.5      8.382      9.663
REMARK  3 active torsions:
REMARK  status: ('A' for Active; 'I' for Inactive)
REMARK    1  A    between atoms: C_6  and  C_1 
REMARK       I    between atoms: N_10  and  C_6 
REMARK    2  A    between atoms: C_23  and  N_10 
REMARK    3  A    between atoms: C_22  and  C_23 
ROOT
ATOM      1  C   UNL d   1     -40.103  14.500  21.128  0.00  0.00     0.266 C 
ATOM      2  N   UNL d   1     -39.814  14.468  20.362  0.00  0.00    -0.210 NA
ATOM      3  O   UNL d   1     -40.900  14.675  21.105  0.00  0.00    -0.269 OA
ENDROOT
BRANCH   1   4
ATOM      4  C   UNL d   1     -39.561  14.358  21.720  0.00  0.00     0.150 A 
ATOM      5  C   UNL d   1     -38.617  13.859  22.688  0.00  0.00     0.028 A 
ATOM      6  C   UNL d   1     -39.031  14.311  22.322  0.00  0.00     0.078 A 
ATOM      7  C   UNL d   1     -38.252  13.157  22.933  0.00  0.00     0.002 C 
ATOM      8  C   UNL d   1     -38.230  14.322  23.252  0.00  0.00     0.002 C 
ATOM      9  C   UNL d   1     -38.640  14.767  22.890  0.00  0.00     0.012 C 
ATOM     10  C   UNL d   1     -39.376  13.846  21.804  0.00  0.00    -0.023 A 
ATOM     11  C   UNL d   1     -39.030  15.099  22.522  0.00  0.00     0.211 A 
ATOM     12  C   UNL d   1     -39.839  13.847  21.269  0.00  0.00    -0.015 A 
ATOM     13  C   UNL d   1     -39.554  15.115  21.919  0.00  0.00     0.219 A 
ATOM     14  O   UNL d   1     -38.642  15.564  23.089  0.00  0.00    -0.288 OA
ATOM     15  O   UNL d   1     -39.559  15.906  22.113  0.00  0.00    -0.287 OA
ENDBRANCH   1   4
BRANCH   2  16
ATOM     16  C   UNL d   1     -40.321  14.604  19.723  0.00  0.00     0.102 C 
BRANCH  16  17
ATOM     17  C   UNL d   1     -40.368  14.719  18.910  0.00  0.00     0.021 A 
ATOM     18  C   UNL d   1     -40.886  15.291  18.606  0.00  0.00     0.028 A 
ATOM     19  C   UNL d   1     -40.937  15.410  17.781  0.00  0.00     0.119 A 
ATOM     20  O   UNL d   1     -41.386  15.921  17.325  0.00  0.00    -0.300 OA
ATOM     21  C   UNL d   1     -40.466  14.953  17.270  0.00  0.00     0.119 A 
ATOM     22  C   UNL d   1     -41.204  15.792  16.535  0.00  0.00     0.304 A 
ATOM     23  O   UNL d   1     -40.635  15.192  16.499  0.00  0.00    -0.300 OA
ATOM     24  C   UNL d   1     -39.953  14.385  17.584  0.00  0.00     0.026 A 
ATOM     25  C   UNL d   1     -39.903  14.267  18.399  0.00  0.00     0.004 A 
ENDBRANCH  16  17
ENDBRANCH   2  16
TORSDOF 3
ENDMDL
