MODEL 1
REMARK VINA RESULT:      14.8      0.000      0.000
REMARK  9 active torsions:
REMARK  status: ('A' for Active; 'I' for Inactive)
REMARK       I    between atoms: C_9  and  N_1 
REMARK       I    between atoms: N_2  and  C_10 
REMARK    1  A    between atoms: C_17  and  C_9 
REMARK    2  A    between atoms: C_10  and  C_18 
REMARK    3  A    between atoms: C_21  and  C_17 
REMARK    4  A    between atoms: C_18  and  C_22 
REMARK    5  A    between atoms: C_24  and  C_21 
REMARK    6  A    between atoms: C_22  and  C_23 
REMARK    7  A    between atoms: C_23  and  C_26 
REMARK    8  A    between atoms: C_25  and  C_24 
REMARK    9  A    between atoms: C_26  and  C_25 
ROOT
ATOM      1  C   UNL d   1      45.798 -15.392  44.950  0.00  0.00     0.000 C 
ENDROOT
BRANCH   1   2
ATOM      2  C   UNL d   1      45.160 -15.099  44.504  0.00  0.00     0.000 C 
BRANCH   2   3
ATOM      3  C   UNL d   1      44.649 -14.546  44.835  0.00  0.00     0.005 C 
BRANCH   3   4
ATOM      4  C   UNL d   1      44.638 -13.770  44.553  0.00  0.00     0.063 C 
BRANCH   4   5
ATOM      5  C   UNL d   1      44.265 -13.598  43.838  0.00  0.00     0.280 C 
ATOM      6  N   UNL d   1      44.623 -13.093  43.296  0.00  0.00    -0.195 N 
ATOM      7  N   UNL d   1      44.253 -12.918  42.582  0.00  0.00    -0.163 NA
ATOM      8  C   UNL d   1      45.339 -12.683  43.310  0.00  0.00     0.088 A 
ATOM      9  C   UNL d   1      44.735 -12.405  42.157  0.00  0.00     0.103 A 
ATOM     10  C   UNL d   1      44.572 -12.090  41.407  0.00  0.00     0.022 C 
ATOM     11  C   UNL d   1      45.407 -12.262  42.612  0.00  0.00     0.040 A 
ATOM     12  C   UNL d   1      45.890 -12.697  43.924  0.00  0.00     0.021 C 
ATOM     13  O   UNL d   1      43.529 -13.928  43.656  0.00  0.00    -0.265 OA
ENDBRANCH   4   5
ENDBRANCH   3   4
ENDBRANCH   2   3
ENDBRANCH   1   2
BRANCH   1  14
ATOM     14  C   UNL d   1      46.078 -16.154  44.808  0.00  0.00     0.000 C 
BRANCH  14  15
ATOM     15  C   UNL d   1      45.628 -16.688  44.357  0.00  0.00     0.000 C 
BRANCH  15  16
ATOM     16  C   UNL d   1      45.644 -17.494  44.526  0.00  0.00     0.005 C 
BRANCH  16  17
ATOM     17  C   UNL d   1      46.183 -17.986  44.141  0.00  0.00     0.063 C 
BRANCH  17  18
ATOM     18  C   UNL d   1      46.196 -18.026  43.321  0.00  0.00     0.280 C 
ATOM     19  N   UNL d   1      46.356 -18.740  42.940  0.00  0.00    -0.195 N 
ATOM     20  N   UNL d   1      46.388 -18.866  42.127  0.00  0.00    -0.163 NA
ATOM     21  C   UNL d   1      46.513 -19.468  43.309  0.00  0.00     0.088 A 
ATOM     22  C   UNL d   1      46.563 -19.661  41.992  0.00  0.00     0.103 A 
ATOM     23  C   UNL d   1      46.646 -20.018  41.251  0.00  0.00     0.022 C 
ATOM     24  C   UNL d   1      46.640 -20.031  42.727  0.00  0.00     0.040 A 
ATOM     25  C   UNL d   1      46.537 -19.597  44.130  0.00  0.00     0.021 C 
ATOM     26  O   UNL d   1      46.050 -17.345  42.874  0.00  0.00    -0.265 OA
ENDBRANCH  17  18
ENDBRANCH  16  17
ENDBRANCH  15  16
ENDBRANCH  14  15
ENDBRANCH   1  14
TORSDOF 9
ENDMDL
