MODEL 1
REMARK VINA RESULT:      82.7      0.000      0.000
REMARK  5 active torsions:
REMARK  status: ('A' for Active; 'I' for Inactive)
REMARK    1  A    between atoms: C_10  and  C_4 
REMARK    2  A    between atoms: N_11  and  C_7 
REMARK    3  A    between atoms: C_13  and  N_11 
REMARK    4  A    between atoms: C_15  and  C_13 
REMARK    5  A    between atoms: O_25  and  C_17 
ROOT
ATOM      1  C   UNL d   1      59.071  49.664  51.620  0.00  0.00     0.186 A 
ATOM      2  N   UNL d   1      59.360  49.683  52.407  0.00  0.00    -0.193 N 
ATOM      3  N   UNL d   1      59.611  49.646  50.991  0.00  0.00    -0.206 NA
ATOM      4  C   UNL d   1      58.243  49.669  51.659  0.00  0.00     0.140 A 
ATOM      5  N   UNL d   1      58.707  49.699  52.920  0.00  0.00    -0.058 NA
ATOM      6  N   UNL d   1      58.021  49.690  52.454  0.00  0.00    -0.127 NA
ATOM      7  C   UNL d   1      60.422  49.646  51.128  0.00  0.00     0.166 A 
ATOM      8  C   UNL d   1      60.699  49.664  51.911  0.00  0.00     0.054 A 
ATOM      9  C   UNL d   1      60.173  49.682  52.544  0.00  0.00     0.089 A 
ATOM     10  C   UNL d   1      61.511  49.663  52.048  0.00  0.00     0.005 A 
ATOM     11  C   UNL d   1      60.457  49.701  53.317  0.00  0.00     0.019 A 
ATOM     12  C   UNL d   1      61.795  49.682  52.821  0.00  0.00     0.000 A 
ATOM     13  C   UNL d   1      61.269  49.700  53.454  0.00  0.00     0.002 A 
ENDROOT
BRANCH   7  14
ATOM     14  N   UNL d   1      60.959  49.627  50.502  0.00  0.00    -0.225 NA
BRANCH  14  15
ATOM     15  C   UNL d   1      60.801  49.155  49.841  0.00  0.00     0.101 C 
BRANCH  15  16
ATOM     16  C   UNL d   1      61.137  48.405  49.771  0.00  0.00     0.019 A 
ATOM     17  C   UNL d   1      60.678  47.733  49.895  0.00  0.00     0.004 A 
ATOM     18  C   UNL d   1      61.014  46.983  49.826  0.00  0.00     0.024 A 
ATOM     19  C   UNL d   1      61.821  46.910  49.629  0.00  0.00     0.094 A 
ATOM     20  C   UNL d   1      62.276  47.592  49.507  0.00  0.00     0.024 A 
ATOM     21  C   UNL d   1      61.929  48.337  49.579  0.00  0.00     0.004 A 
BRANCH  19  22
ATOM     22  O   UNL d   1      62.161  46.161  49.559  0.00  0.00    -0.328 OA
ATOM     23  C   UNL d   1      61.714  45.491  49.746  0.00  0.00     0.181 C 
ENDBRANCH  19  22
ENDBRANCH  15  16
ENDBRANCH  14  15
ENDBRANCH   7  14
BRANCH   4  24
ATOM     24  C   UNL d   1      57.740  49.656  51.013  0.00  0.00     0.025 A 
ATOM     25  C   UNL d   1      58.056  49.689  50.253  0.00  0.00     0.031 A 
ATOM     26  C   UNL d   1      57.551  49.675  49.593  0.00  0.00     0.140 A 
ATOM     27  F   UNL d   1      57.867  49.708  48.833  0.00  0.00    -0.204 F 
ATOM     28  C   UNL d   1      56.735  49.628  49.706  0.00  0.00     0.030 A 
ATOM     29  C   UNL d   1      56.425  49.595  50.478  0.00  0.00     0.002 A 
ATOM     30  C   UNL d   1      56.927  49.609  51.124  0.00  0.00     0.002 A 
ENDBRANCH   4  24
TORSDOF 5
ENDMDL
MODEL 2
REMARK VINA RESULT:      83.8      0.719      1.025
REMARK  5 active torsions:
REMARK  status: ('A' for Active; 'I' for Inactive)
REMARK    1  A    between atoms: C_10  and  C_4 
REMARK    2  A    between atoms: N_11  and  C_7 
REMARK    3  A    between atoms: C_13  and  N_11 
REMARK    4  A    between atoms: C_15  and  C_13 
REMARK    5  A    between atoms: O_25  and  C_17 
ROOT
ATOM      1  C   UNL d   1      59.111  49.413  51.203  0.00  0.00     0.186 A 
ATOM      2  N   UNL d   1      59.315  49.559  52.003  0.00  0.00    -0.193 N 
ATOM      3  N   UNL d   1      59.713  49.273  50.651  0.00  0.00    -0.206 NA
ATOM      4  C   UNL d   1      58.285  49.447  51.147  0.00  0.00     0.140 A 
ATOM      5  N   UNL d   1      58.612  49.680  52.429  0.00  0.00    -0.058 NA
ATOM      6  N   UNL d   1      57.980  49.610  51.898  0.00  0.00    -0.127 NA
ATOM      7  C   UNL d   1      60.505  49.274  50.876  0.00  0.00     0.166 A 
ATOM      8  C   UNL d   1      60.697  49.419  51.671  0.00  0.00     0.054 A 
ATOM      9  C   UNL d   1      60.107  49.560  52.230  0.00  0.00     0.089 A 
ATOM     10  C   UNL d   1      61.488  49.421  51.897  0.00  0.00     0.005 A 
ATOM     11  C   UNL d   1      60.308  49.703  53.015  0.00  0.00     0.019 A 
ATOM     12  C   UNL d   1      61.690  49.564  52.683  0.00  0.00     0.000 A 
ATOM     13  C   UNL d   1      61.100  49.705  53.241  0.00  0.00     0.002 A 
ENDROOT
BRANCH   7  14
ATOM     14  N   UNL d   1      61.103  49.134  50.327  0.00  0.00    -0.225 NA
BRANCH  14  15
ATOM     15  C   UNL d   1      60.961  48.631  49.685  0.00  0.00     0.101 C 
BRANCH  15  16
ATOM     16  C   UNL d   1      61.362  47.913  49.619  0.00  0.00     0.019 A 
ATOM     17  C   UNL d   1      62.172  47.905  49.470  0.00  0.00     0.004 A 
ATOM     18  C   UNL d   1      62.573  47.187  49.403  0.00  0.00     0.024 A 
ATOM     19  C   UNL d   1      62.153  46.471  49.487  0.00  0.00     0.094 A 
ATOM     20  C   UNL d   1      61.338  46.490  49.636  0.00  0.00     0.024 A 
ATOM     21  C   UNL d   1      60.947  47.214  49.701  0.00  0.00     0.004 A 
BRANCH  19  22
ATOM     22  O   UNL d   1      62.551  45.751  49.421  0.00  0.00    -0.328 OA
ATOM     23  C   UNL d   1      62.221  45.142  48.968  0.00  0.00     0.181 C 
ENDBRANCH  19  22
ENDBRANCH  15  16
ENDBRANCH  14  15
ENDBRANCH   7  14
BRANCH   4  24
ATOM     24  C   UNL d   1      57.853  49.336  50.460  0.00  0.00     0.025 A 
ATOM     25  C   UNL d   1      57.186  48.853  50.474  0.00  0.00     0.031 A 
ATOM     26  C   UNL d   1      56.743  48.736  49.781  0.00  0.00     0.140 A 
ATOM     27  F   UNL d   1      56.076  48.254  49.795  0.00  0.00    -0.204 F 
ATOM     28  C   UNL d   1      56.978  49.106  49.081  0.00  0.00     0.030 A 
ATOM     29  C   UNL d   1      57.654  49.592  49.076  0.00  0.00     0.002 A 
ATOM     30  C   UNL d   1      58.086  49.704  49.763  0.00  0.00     0.002 A 
ENDBRANCH   4  24
TORSDOF 5
ENDMDL
