MODEL 1
REMARK VINA RESULT:      94.4      0.000      0.000
REMARK  6 active torsions:
REMARK  status: ('A' for Active; 'I' for Inactive)
REMARK       I    between atoms: C_8  and  N_1 
REMARK    1  A    between atoms: C_10  and  C_3 
REMARK    2  A    between atoms: C_4  and  S_14 
REMARK    3  A    between atoms: C_15  and  C_6 
REMARK    4  A    between atoms: C_16  and  C_8 
REMARK    5  A    between atoms: S_14  and  C_16 
REMARK    6  A    between atoms: O_26  and  C_23 
ROOT
ATOM      1  N   UNL d   1     -48.028  30.079  34.958  0.00  0.00    -0.195 N 
ATOM      2  N   UNL d   1     -48.292  30.603  34.406  0.00  0.00    -0.162 NA
ATOM      3  C   UNL d   1     -47.919  31.334  34.539  0.00  0.00     0.109 A 
ATOM      4  C   UNL d   1     -47.483  30.473  35.448  0.00  0.00     0.088 A 
ATOM      5  C   UNL d   1     -47.433  31.234  35.174  0.00  0.00     0.041 A 
ATOM      6  C   UNL d   1     -48.190  29.300  35.102  0.00  0.00     0.275 C 
ATOM      7  O   UNL d   1     -47.822  28.891  35.729  0.00  0.00    -0.266 OA
ENDROOT
BRANCH   4   8
ATOM      8  C   UNL d   1     -47.066  30.184  36.082  0.00  0.00     0.018 A 
ATOM      9  C   UNL d   1     -46.329  29.838  35.967  0.00  0.00     0.004 A 
ATOM     10  C   UNL d   1     -45.906  29.543  36.623  0.00  0.00     0.024 A 
ATOM     11  C   UNL d   1     -46.222  29.598  37.377  0.00  0.00     0.094 A 
ATOM     12  C   UNL d   1     -46.960  29.946  37.488  0.00  0.00     0.024 A 
ATOM     13  C   UNL d   1     -47.389  30.242  36.841  0.00  0.00     0.004 A 
BRANCH  11  14
ATOM     14  O   UNL d   1     -45.812  29.310  38.042  0.00  0.00    -0.328 OA
ATOM     15  C   UNL d   1     -45.829  29.717  38.759  0.00  0.00     0.181 C 
ENDBRANCH  11  14
ENDBRANCH   4   8
BRANCH   6  16
ATOM     16  C   UNL d   1     -48.736  28.891  34.618  0.00  0.00     0.128 C 
BRANCH  16  17
ATOM     17  S   UNL d   1     -48.578  28.113  34.374  0.00  0.00    -0.069 SA
BRANCH  17  18
ATOM     18  C   UNL d   1     -49.200  27.607  34.149  0.00  0.00     0.140 A 
ATOM     19  N   UNL d   1     -49.181  26.789  34.210  0.00  0.00    -0.232 NA
ATOM     20  C   UNL d   1     -49.901  26.502  33.931  0.00  0.00     0.088 A 
ATOM     21  C   UNL d   1     -50.194  25.729  33.860  0.00  0.00     0.020 A 
ATOM     22  C   UNL d   1     -50.360  27.137  33.699  0.00  0.00     0.049 A 
ATOM     23  C   UNL d   1     -50.950  25.599  33.555  0.00  0.00     0.002 A 
ATOM     24  C   UNL d   1     -51.412  26.253  33.321  0.00  0.00     0.001 A 
ATOM     25  C   UNL d   1     -51.112  27.015  33.396  0.00  0.00     0.008 A 
ATOM     26  S   UNL d   1     -49.928  27.832  33.833  0.00  0.00    -0.060 SA
ENDBRANCH  17  18
ENDBRANCH  16  17
ENDBRANCH   6  16
BRANCH   3  27
ATOM     27  C   UNL d   1     -48.045  32.014  34.088  0.00  0.00     0.049 A 
ATOM     28  S   UNL d   1     -48.690  32.369  33.740  0.00  0.00    -0.085 SA
ATOM     29  C   UNL d   1     -48.424  33.052  33.363  0.00  0.00     0.035 A 
ATOM     30  C   UNL d   1     -47.625  33.122  33.473  0.00  0.00     0.007 A 
ATOM     31  C   UNL d   1     -47.374  32.474  33.929  0.00  0.00     0.009 A 
ENDBRANCH   3  27
TORSDOF 6
ENDMDL
MODEL 2
REMARK VINA RESULT:      95.9      2.272      4.104
REMARK  6 active torsions:
REMARK  status: ('A' for Active; 'I' for Inactive)
REMARK       I    between atoms: C_8  and  N_1 
REMARK    1  A    between atoms: C_10  and  C_3 
REMARK    2  A    between atoms: C_4  and  S_14 
REMARK    3  A    between atoms: C_15  and  C_6 
REMARK    4  A    between atoms: C_16  and  C_8 
REMARK    5  A    between atoms: S_14  and  C_16 
REMARK    6  A    between atoms: O_26  and  C_23 
ROOT
ATOM      1  N   UNL d   1     -49.647  27.280  35.524  0.00  0.00    -0.195 N 
ATOM      2  N   UNL d   1     -50.178  26.876  35.976  0.00  0.00    -0.162 NA
ATOM      3  C   UNL d   1     -50.227  27.248  36.717  0.00  0.00     0.109 A 
ATOM      4  C   UNL d   1     -49.354  27.914  35.976  0.00  0.00     0.088 A 
ATOM      5  C   UNL d   1     -49.721  27.875  36.697  0.00  0.00     0.041 A 
ATOM      6  C   UNL d   1     -49.375  27.180  34.769  0.00  0.00     0.275 C 
ATOM      7  O   UNL d   1     -48.811  27.699  34.441  0.00  0.00    -0.266 OA
ENDROOT
BRANCH   4   8
ATOM      8  C   UNL d   1     -48.809  28.479  35.768  0.00  0.00     0.018 A 
ATOM      9  C   UNL d   1     -48.009  28.353  35.911  0.00  0.00     0.004 A 
ATOM     10  C   UNL d   1     -47.454  28.937  35.695  0.00  0.00     0.024 A 
ATOM     11  C   UNL d   1     -47.704  29.634  35.342  0.00  0.00     0.094 A 
ATOM     12  C   UNL d   1     -48.506  29.757  35.200  0.00  0.00     0.024 A 
ATOM     13  C   UNL d   1     -49.066  29.180  35.412  0.00  0.00     0.004 A 
BRANCH  11  14
ATOM     14  O   UNL d   1     -47.164  30.227  35.120  0.00  0.00    -0.328 OA
ATOM     15  C   UNL d   1     -46.850  30.745  35.680  0.00  0.00     0.181 C 
ENDBRANCH  11  14
ENDBRANCH   4   8
BRANCH   6  16
ATOM     16  C   UNL d   1     -49.661  26.547  34.303  0.00  0.00     0.128 C 
BRANCH  16  17
ATOM     17  S   UNL d   1     -50.335  26.647  33.828  0.00  0.00    -0.069 SA
BRANCH  17  18
ATOM     18  C   UNL d   1     -50.862  26.015  33.705  0.00  0.00     0.140 A 
ATOM     19  N   UNL d   1     -50.640  25.228  33.636  0.00  0.00    -0.232 NA
ATOM     20  C   UNL d   1     -51.325  24.785  33.520  0.00  0.00     0.088 A 
ATOM     21  C   UNL d   1     -51.442  23.971  33.416  0.00  0.00     0.020 A 
ATOM     22  C   UNL d   1     -51.965  25.294  33.517  0.00  0.00     0.049 A 
ATOM     23  C   UNL d   1     -52.204  23.672  33.308  0.00  0.00     0.002 A 
ATOM     24  C   UNL d   1     -52.851  24.199  33.306  0.00  0.00     0.001 A 
ATOM     25  C   UNL d   1     -52.724  25.005  33.411  0.00  0.00     0.008 A 
ATOM     26  S   UNL d   1     -51.683  26.066  33.632  0.00  0.00    -0.060 SA
ENDBRANCH  17  18
ENDBRANCH  16  17
ENDBRANCH   6  16
BRANCH   3  27
ATOM     27  C   UNL d   1     -50.713  26.998  37.336  0.00  0.00     0.049 A 
ATOM     28  S   UNL d   1     -51.437  26.630  37.393  0.00  0.00    -0.085 SA
ATOM     29  C   UNL d   1     -51.607  26.540  38.195  0.00  0.00     0.035 A 
ATOM     30  C   UNL d   1     -50.999  26.847  38.631  0.00  0.00     0.007 A 
ATOM     31  C   UNL d   1     -50.429  27.139  38.102  0.00  0.00     0.009 A 
ENDBRANCH   3  27
TORSDOF 6
ENDMDL
