MODEL 1
REMARK VINA RESULT:      -5.3      0.000      0.000
REMARK  2 active torsions:
REMARK  status: ('A' for Active; 'I' for Inactive)
REMARK    1  A    between atoms: C_13  and  N_8 
REMARK    2  A    between atoms: C_14  and  C_13 
ROOT
ATOM      1  C   UNL d   1      56.428  -0.621  32.262  0.00  0.00     0.093 A 
ATOM      2  N   UNL d   1      55.478  -0.731  33.322  0.00  0.00    -0.179 NA
ATOM      3  C   UNL d   1      55.976  -1.092  32.765  0.00  0.00     0.284 A 
ATOM      4  C   UNL d   1      56.383   0.204  32.314  0.00  0.00     0.091 A 
ATOM      5  C   UNL d   1      55.433   0.092  33.374  0.00  0.00     0.223 A 
ATOM      6  N   UNL d   1      55.886   0.556  32.870  0.00  0.00    -0.217 NA
ATOM      7  C   UNL d   1      56.926  -0.973  31.706  0.00  0.00     0.087 A 
ATOM      8  N   UNL d   1      57.372  -0.502  31.209  0.00  0.00    -0.302 N 
ATOM      9  C   UNL d   1      56.836   0.675  31.811  0.00  0.00     0.038 A 
ATOM     10  S   UNL d   1      54.935   0.449  33.930  0.00  0.00    -0.037 SA
ATOM     11  O   UNL d   1      56.015  -1.917  32.720  0.00  0.00    -0.265 OA
ATOM     12  C   UNL d   1      57.328   0.322  31.261  0.00  0.00     0.082 A 
ENDROOT
BRANCH   8  13
ATOM     13  C   UNL d   1      57.876  -0.853  30.647  0.00  0.00     0.080 C 
BRANCH  13  14
ATOM     14  C   UNL d   1      58.121  -0.419  29.987  0.00  0.00     0.019 C 
ATOM     15  C   UNL d   1      58.604  -0.776  29.423  0.00  0.00     0.002 C 
ENDBRANCH  13  14
ENDBRANCH   8  13
TORSDOF 2
ENDMDL
MODEL 2
REMARK VINA RESULT:      -4.0      2.102      3.502
REMARK  2 active torsions:
REMARK  status: ('A' for Active; 'I' for Inactive)
REMARK    1  A    between atoms: C_13  and  N_8 
REMARK    2  A    between atoms: C_14  and  C_13 
ROOT
ATOM      1  C   UNL d   1      57.675  -0.616  30.590  0.00  0.00     0.093 A 
ATOM      2  N   UNL d   1      58.440  -0.737  29.390  0.00  0.00    -0.179 NA
ATOM      3  C   UNL d   1      58.056  -1.092  30.034  0.00  0.00     0.284 A 
ATOM      4  C   UNL d   1      57.678   0.206  30.503  0.00  0.00     0.091 A 
ATOM      5  C   UNL d   1      58.443   0.085  29.303  0.00  0.00     0.223 A 
ATOM      6  N   UNL d   1      58.062   0.552  29.860  0.00  0.00    -0.217 NA
ATOM      7  C   UNL d   1      57.291  -0.962  31.233  0.00  0.00     0.087 A 
ATOM      8  N   UNL d   1      56.915  -0.487  31.781  0.00  0.00    -0.302 N 
ATOM      9  C   UNL d   1      57.297   0.682  31.058  0.00  0.00     0.038 A 
ATOM     10  S   UNL d   1      58.827   0.435  28.659  0.00  0.00    -0.037 SA
ATOM     11  O   UNL d   1      58.058  -1.915  30.114  0.00  0.00    -0.265 OA
ATOM     12  C   UNL d   1      56.918   0.335  31.694  0.00  0.00     0.082 A 
ENDROOT
BRANCH   8  13
ATOM     13  C   UNL d   1      56.526  -0.832  32.432  0.00  0.00     0.080 C 
BRANCH  13  14
ATOM     14  C   UNL d   1      55.855  -0.468  32.749  0.00  0.00     0.019 C 
ATOM     15  C   UNL d   1      55.438  -0.843  33.353  0.00  0.00     0.002 C 
ENDBRANCH  13  14
ENDBRANCH   8  13
TORSDOF 2
ENDMDL
MODEL 3
REMARK VINA RESULT:      -3.2      1.413      1.555
REMARK  2 active torsions:
REMARK  status: ('A' for Active; 'I' for Inactive)
REMARK    1  A    between atoms: C_13  and  N_8 
REMARK    2  A    between atoms: C_14  and  C_13 
ROOT
ATOM      1  C   UNL d   1      57.061   0.646  32.919  0.00  0.00     0.093 A 
ATOM      2  N   UNL d   1      56.347   0.632  34.155  0.00  0.00    -0.179 NA
ATOM      3  C   UNL d   1      57.066   0.653  33.744  0.00  0.00     0.284 A 
ATOM      4  C   UNL d   1      56.343   0.617  32.510  0.00  0.00     0.091 A 
ATOM      5  C   UNL d   1      55.630   0.603  33.746  0.00  0.00     0.223 A 
ATOM      6  N   UNL d   1      55.631   0.596  32.926  0.00  0.00    -0.217 NA
ATOM      7  C   UNL d   1      57.773   0.668  32.503  0.00  0.00     0.087 A 
ATOM      8  N   UNL d   1      57.763   0.660  31.686  0.00  0.00    -0.302 N 
ATOM      9  C   UNL d   1      56.338   0.610  31.685  0.00  0.00     0.038 A 
ATOM     10  S   UNL d   1      54.913   0.581  34.160  0.00  0.00    -0.037 SA
ATOM     11  O   UNL d   1      57.780   0.682  34.161  0.00  0.00    -0.265 OA
ATOM     12  C   UNL d   1      57.045   0.632  31.277  0.00  0.00     0.082 A 
ENDROOT
BRANCH   8  13
ATOM     13  C   UNL d   1      58.480   0.682  31.262  0.00  0.00     0.080 C 
BRANCH  13  14
ATOM     14  C   UNL d   1      58.479   0.536  30.448  0.00  0.00     0.019 C 
ATOM     15  C   UNL d   1      59.187   0.348  30.070  0.00  0.00     0.002 C 
ENDBRANCH  13  14
ENDBRANCH   8  13
TORSDOF 2
ENDMDL
MODEL 4
REMARK VINA RESULT:      -2.9      3.877      5.180
REMARK  2 active torsions:
REMARK  status: ('A' for Active; 'I' for Inactive)
REMARK    1  A    between atoms: C_13  and  N_8 
REMARK    2  A    between atoms: C_14  and  C_13 
ROOT
ATOM      1  C   UNL d   1      59.400  -2.287  29.064  0.00  0.00     0.093 A 
ATOM      2  N   UNL d   1      59.754  -3.660  28.892  0.00  0.00    -0.179 NA
ATOM      3  C   UNL d   1      59.173  -3.078  29.006  0.00  0.00     0.284 A 
ATOM      4  C   UNL d   1      60.198  -2.080  29.008  0.00  0.00     0.091 A 
ATOM      5  C   UNL d   1      60.551  -3.453  28.837  0.00  0.00     0.223 A 
ATOM      6  N   UNL d   1      60.770  -2.664  28.895  0.00  0.00    -0.217 NA
ATOM      7  C   UNL d   1      58.828  -1.703  29.177  0.00  0.00     0.087 A 
ATOM      8  N   UNL d   1      59.057  -0.921  29.234  0.00  0.00    -0.302 N 
ATOM      9  C   UNL d   1      60.425  -1.289  29.066  0.00  0.00     0.038 A 
ATOM     10  S   UNL d   1      61.127  -4.036  28.723  0.00  0.00    -0.037 SA
ATOM     11  O   UNL d   1      58.377  -3.294  29.060  0.00  0.00    -0.265 OA
ATOM     12  C   UNL d   1      59.855  -0.714  29.179  0.00  0.00     0.082 A 
ENDROOT
BRANCH   8  13
ATOM     13  C   UNL d   1      58.483  -0.328  29.348  0.00  0.00     0.080 C 
BRANCH  13  14
ATOM     14  C   UNL d   1      58.435   0.060  30.077  0.00  0.00     0.019 C 
ATOM     15  C   UNL d   1      57.854   0.634  30.192  0.00  0.00     0.002 C 
ENDBRANCH  13  14
ENDBRANCH   8  13
TORSDOF 2
ENDMDL
MODEL 5
REMARK VINA RESULT:      -2.4      9.702      9.906
REMARK  2 active torsions:
REMARK  status: ('A' for Active; 'I' for Inactive)
REMARK    1  A    between atoms: C_13  and  N_8 
REMARK    2  A    between atoms: C_14  and  C_13 
ROOT
ATOM      1  C   UNL d   1      59.789  -9.447  33.490  0.00  0.00     0.093 A 
ATOM      2  N   UNL d   1      60.811  -9.172  34.449  0.00  0.00    -0.179 NA
ATOM      3  C   UNL d   1      60.575  -9.261  33.659  0.00  0.00     0.284 A 
ATOM      4  C   UNL d   1      59.244  -9.541  34.105  0.00  0.00     0.091 A 
ATOM      5  C   UNL d   1      60.267  -9.266  35.063  0.00  0.00     0.223 A 
ATOM      6  N   UNL d   1      59.486  -9.450  34.888  0.00  0.00    -0.217 NA
ATOM      7  C   UNL d   1      59.547  -9.537  32.707  0.00  0.00     0.087 A 
ATOM      8  N   UNL d   1      58.768  -9.721  32.544  0.00  0.00    -0.302 N 
ATOM      9  C   UNL d   1      58.459  -9.726  33.936  0.00  0.00     0.038 A 
ATOM     10  S   UNL d   1      60.506  -9.176  35.850  0.00  0.00    -0.037 SA
ATOM     11  O   UNL d   1      61.126  -9.165  33.050  0.00  0.00    -0.265 OA
ATOM     12  C   UNL d   1      58.223  -9.815  33.159  0.00  0.00     0.082 A 
ENDROOT
BRANCH   8  13
ATOM     13  C   UNL d   1      58.519  -9.813  31.754  0.00  0.00     0.080 C 
BRANCH  13  14
ATOM     14  C   UNL d   1      57.719  -9.728  31.563  0.00  0.00     0.019 C 
ATOM     15  C   UNL d   1      57.480  -9.798  30.778  0.00  0.00     0.002 C 
ENDBRANCH  13  14
ENDBRANCH   8  13
TORSDOF 2
ENDMDL
MODEL 6
REMARK VINA RESULT:      -2.4      2.911      3.961
REMARK  2 active torsions:
REMARK  status: ('A' for Active; 'I' for Inactive)
REMARK    1  A    between atoms: C_13  and  N_8 
REMARK    2  A    between atoms: C_14  and  C_13 
ROOT
ATOM      1  C   UNL d   1      59.108  -0.618  29.527  0.00  0.00     0.093 A 
ATOM      2  N   UNL d   1      58.708   0.611  30.135  0.00  0.00    -0.179 NA
ATOM      3  C   UNL d   1      59.252   0.179  29.682  0.00  0.00     0.284 A 
ATOM      4  C   UNL d   1      58.426  -0.980  29.822  0.00  0.00     0.091 A 
ATOM      5  C   UNL d   1      58.027   0.249  30.430  0.00  0.00     0.223 A 
ATOM      6  N   UNL d   1      57.889  -0.545  30.272  0.00  0.00    -0.217 NA
ATOM      7  C   UNL d   1      59.645  -1.053  29.077  0.00  0.00     0.087 A 
ATOM      8  N   UNL d   1      59.499  -1.842  28.926  0.00  0.00    -0.302 N 
ATOM      9  C   UNL d   1      58.282  -1.777  29.667  0.00  0.00     0.038 A 
ATOM     10  S   UNL d   1      57.485   0.682  30.882  0.00  0.00    -0.037 SA
ATOM     11  O   UNL d   1      59.932   0.550  29.390  0.00  0.00    -0.265 OA
ATOM     12  C   UNL d   1      58.816  -2.205  29.221  0.00  0.00     0.082 A 
ENDROOT
BRANCH   8  13
ATOM     13  C   UNL d   1      60.038  -2.285  28.472  0.00  0.00     0.080 C 
BRANCH  13  14
ATOM     14  C   UNL d   1      60.418  -2.938  28.808  0.00  0.00     0.019 C 
ATOM     15  C   UNL d   1      61.124  -3.209  28.480  0.00  0.00     0.002 C 
ENDBRANCH  13  14
ENDBRANCH   8  13
TORSDOF 2
ENDMDL
MODEL 7
REMARK VINA RESULT:      -2.3      9.743     10.048
REMARK  2 active torsions:
REMARK  status: ('A' for Active; 'I' for Inactive)
REMARK    1  A    between atoms: C_13  and  N_8 
REMARK    2  A    between atoms: C_14  and  C_13 
ROOT
ATOM      1  C   UNL d   1      58.850  -9.817  31.193  0.00  0.00     0.093 A 
ATOM      2  N   UNL d   1      58.660  -9.817  29.777  0.00  0.00    -0.179 NA
ATOM      3  C   UNL d   1      59.169  -9.816  30.432  0.00  0.00     0.284 A 
ATOM      4  C   UNL d   1      58.029  -9.818  31.297  0.00  0.00     0.091 A 
ATOM      5  C   UNL d   1      57.841  -9.817  29.882  0.00  0.00     0.223 A 
ATOM      6  N   UNL d   1      57.529  -9.818  30.641  0.00  0.00    -0.217 NA
ATOM      7  C   UNL d   1      59.350  -9.816  31.849  0.00  0.00     0.087 A 
ATOM      8  N   UNL d   1      59.029  -9.817  32.600  0.00  0.00    -0.302 N 
ATOM      9  C   UNL d   1      57.710  -9.818  32.058  0.00  0.00     0.038 A 
ATOM     10  S   UNL d   1      57.336  -9.818  29.227  0.00  0.00    -0.037 SA
ATOM     11  O   UNL d   1      59.988  -9.816  30.318  0.00  0.00    -0.265 OA
ATOM     12  C   UNL d   1      58.209  -9.818  32.705  0.00  0.00     0.082 A 
ENDROOT
BRANCH   8  13
ATOM     13  C   UNL d   1      59.531  -9.816  33.265  0.00  0.00     0.080 C 
BRANCH  13  14
ATOM     14  C   UNL d   1      59.461  -9.218  33.831  0.00  0.00     0.019 C 
ATOM     15  C   UNL d   1      60.036  -9.145  34.417  0.00  0.00     0.002 C 
ENDBRANCH  13  14
ENDBRANCH   8  13
TORSDOF 2
ENDMDL
