MODEL 1
REMARK VINA RESULT:      -5.4      0.000      0.000
REMARK  6 active torsions:
REMARK  status: ('A' for Active; 'I' for Inactive)
REMARK    1  A    between atoms: N_2  and  C_1 
REMARK       I    between atoms: C_4  and  N_2 
REMARK    2  A    between atoms: C_6  and  C_4 
REMARK    3  A    between atoms: C_9  and  C_6 
REMARK    4  A    between atoms: C_8  and  O_15 
REMARK    5  A    between atoms: O_15  and  C_9 
REMARK    6  A    between atoms: O_17  and  C_10 
ROOT
ATOM      1  C   UNL d   1     -41.557-122.906 -51.604  0.00  0.00     0.128 C 
ENDROOT
BRANCH   1   2
ATOM      2  C   UNL d   1     -41.239-122.446 -52.219  0.00  0.00     0.089 C 
BRANCH   2   3
ATOM      3  C   UNL d   1     -41.525-122.538 -52.988  0.00  0.00     0.283 C 
ATOM      4  N   UNL d   1     -41.623-121.873 -53.465  0.00  0.00    -0.183 NA
ATOM      5  O   UNL d   1     -41.711-123.288 -53.274  0.00  0.00    -0.265 OA
BRANCH   4   6
ATOM      6  C   UNL d   1     -41.910-121.967 -54.238  0.00  0.00     0.197 A 
ATOM      7  N   UNL d   1     -42.685-121.855 -54.488  0.00  0.00    -0.219 NA
ATOM      8  C   UNL d   1     -42.718-122.009 -55.291  0.00  0.00     0.108 A 
ATOM      9  C   UNL d   1     -41.957-122.218 -55.540  0.00  0.00     0.059 A 
ATOM     10  S   UNL d   1     -41.456-122.193 -54.890  0.00  0.00    -0.046 SA
ENDBRANCH   4   6
ENDBRANCH   2   3
ENDBRANCH   1   2
BRANCH   1  11
ATOM     11  O   UNL d   1     -41.400-122.479 -50.918  0.00  0.00    -0.305 OA
BRANCH  11  12
ATOM     12  C   UNL d   1     -41.683-122.749 -50.194  0.00  0.00     0.100 A 
ATOM     13  C   UNL d   1     -42.451-122.558 -49.953  0.00  0.00     0.027 A 
ATOM     14  C   UNL d   1     -42.734-122.829 -49.229  0.00  0.00     0.026 A 
ATOM     15  C   UNL d   1     -42.253-123.290 -48.743  0.00  0.00     0.094 A 
ATOM     16  C   UNL d   1     -41.489-123.481 -48.981  0.00  0.00     0.026 A 
ATOM     17  C   UNL d   1     -41.202-123.210 -49.707  0.00  0.00     0.027 A 
BRANCH  15  18
ATOM     18  O   UNL d   1     -42.543-123.560 -48.013  0.00  0.00    -0.328 OA
ATOM     19  C   UNL d   1     -42.232-123.268 -47.309  0.00  0.00     0.181 C 
ENDBRANCH  15  18
ENDBRANCH  11  12
ENDBRANCH   1  11
TORSDOF 6
ENDMDL
MODEL 2
REMARK VINA RESULT:      -4.8      2.276      5.240
REMARK  6 active torsions:
REMARK  status: ('A' for Active; 'I' for Inactive)
REMARK    1  A    between atoms: N_2  and  C_1 
REMARK       I    between atoms: C_4  and  N_2 
REMARK    2  A    between atoms: C_6  and  C_4 
REMARK    3  A    between atoms: C_9  and  C_6 
REMARK    4  A    between atoms: C_8  and  O_15 
REMARK    5  A    between atoms: O_15  and  C_9 
REMARK    6  A    between atoms: O_17  and  C_10 
ROOT
ATOM      1  C   UNL d   1     -41.644-122.915 -51.922  0.00  0.00     0.128 C 
ENDROOT
BRANCH   1   2
ATOM      2  C   UNL d   1     -41.264-122.821 -51.189  0.00  0.00     0.089 C 
BRANCH   2   3
ATOM      3  C   UNL d   1     -41.603-123.142 -50.508  0.00  0.00     0.283 C 
ATOM      4  N   UNL d   1     -41.439-122.801 -49.776  0.00  0.00    -0.183 NA
ATOM      5  O   UNL d   1     -42.101-123.797 -50.562  0.00  0.00    -0.265 OA
BRANCH   4   6
ATOM      6  C   UNL d   1     -41.781-123.125 -49.093  0.00  0.00     0.197 A 
ATOM      7  N   UNL d   1     -42.549-123.004 -48.826  0.00  0.00    -0.219 NA
ATOM      8  C   UNL d   1     -42.649-123.428 -48.134  0.00  0.00     0.108 A 
ATOM      9  C   UNL d   1     -41.936-123.815 -47.970  0.00  0.00     0.059 A 
ATOM     10  S   UNL d   1     -41.398-123.629 -48.562  0.00  0.00    -0.046 SA
ENDBRANCH   4   6
ENDBRANCH   2   3
ENDBRANCH   1   2
BRANCH   1  11
ATOM     11  O   UNL d   1     -41.169-122.512 -52.460  0.00  0.00    -0.305 OA
BRANCH  11  12
ATOM     12  C   UNL d   1     -41.377-122.493 -53.256  0.00  0.00     0.100 A 
ATOM     13  C   UNL d   1     -41.842-121.873 -53.547  0.00  0.00     0.027 A 
ATOM     14  C   UNL d   1     -42.050-121.854 -54.343  0.00  0.00     0.026 A 
ATOM     15  C   UNL d   1     -41.796-122.452 -54.851  0.00  0.00     0.094 A 
ATOM     16  C   UNL d   1     -41.333-123.069 -54.564  0.00  0.00     0.026 A 
ATOM     17  C   UNL d   1     -41.123-123.091 -53.765  0.00  0.00     0.027 A 
BRANCH  15  18
ATOM     18  O   UNL d   1     -42.008-122.428 -55.654  0.00  0.00    -0.328 OA
ATOM     19  C   UNL d   1     -42.618-121.936 -55.907  0.00  0.00     0.181 C 
ENDBRANCH  15  18
ENDBRANCH  11  12
ENDBRANCH   1  11
TORSDOF 6
ENDMDL
