MODEL 1
REMARK VINA RESULT:      -5.6      0.000      0.000
REMARK  5 active torsions:
REMARK  status: ('A' for Active; 'I' for Inactive)
REMARK    1  A    between atoms: C_3  and  C_1 
REMARK    2  A    between atoms: C_2  and  C_3 
REMARK       I    between atoms: N_4  and  C_2 
REMARK    3  A    between atoms: C_10  and  C_8 
REMARK    4  A    between atoms: O_16  and  C_10 
REMARK    5  A    between atoms: C_21  and  O_16 
ROOT
ATOM      1  C   UNL d   1     -41.844-122.690 -50.828  0.00  0.00     0.304 C 
ATOM      2  N   UNL d   1     -41.642-122.882 -51.599  0.00  0.00    -0.269 N 
ATOM      3  C   UNL d   1     -41.552-122.527 -52.981  0.00  0.00     0.081 A 
ATOM      4  C   UNL d   1     -41.755-122.334 -52.203  0.00  0.00     0.088 A 
ATOM      5  O   UNL d   1     -42.158-121.951 -50.658  0.00  0.00    -0.263 OA
ATOM      6  C   UNL d   1     -41.329-123.619 -51.767  0.00  0.00     0.083 A 
ATOM      7  C   UNL d   1     -41.236-123.267 -53.156  0.00  0.00     0.008 A 
ATOM      8  C   UNL d   1     -41.123-123.817 -52.550  0.00  0.00     0.019 A 
ENDROOT
BRANCH   1   9
ATOM      9  C   UNL d   1     -41.730-123.243 -50.219  0.00  0.00     0.253 C 
ATOM     10  O   UNL d   1     -41.123-123.797 -50.279  0.00  0.00    -0.281 OA
BRANCH   9  11
ATOM     11  C   UNL d   1     -42.220-123.234 -49.564  0.00  0.00     0.064 A 
ATOM     12  C   UNL d   1     -43.043-123.189 -49.560  0.00  0.00     0.102 A 
ATOM     13  N   UNL d   1     -43.309-123.195 -48.784  0.00  0.00    -0.244 NA
ATOM     14  C   UNL d   1     -42.648-123.245 -48.296  0.00  0.00     0.082 A 
ATOM     15  C   UNL d   1     -41.976-123.268 -48.775  0.00  0.00     0.022 A 
ATOM     16  C   UNL d   1     -42.569-123.271 -47.478  0.00  0.00     0.019 A 
ATOM     17  C   UNL d   1     -41.230-123.318 -48.436  0.00  0.00     0.002 A 
ATOM     18  C   UNL d   1     -41.153-123.345 -47.610  0.00  0.00     0.000 A 
ATOM     19  C   UNL d   1     -41.823-123.321 -47.139  0.00  0.00     0.002 A 
ENDBRANCH   9  11
ENDBRANCH   1   9
BRANCH   3  20
ATOM     20  C   UNL d   1     -41.664-121.980 -53.589  0.00  0.00     0.302 C 
ATOM     21  O   UNL d   1     -41.493-121.189 -53.467  0.00  0.00    -0.259 OA
BRANCH  20  22
ATOM     22  O   UNL d   1     -41.945-122.234 -54.312  0.00  0.00    -0.271 OA
BRANCH  22  23
ATOM     23  C   UNL d   1     -42.065-121.686 -54.924  0.00  0.00     0.126 C 
ATOM     24  C   UNL d   1     -42.533-121.902 -55.575  0.00  0.00     0.029 C 
ENDBRANCH  22  23
ENDBRANCH  20  22
ENDBRANCH   3  20
TORSDOF 5
ENDMDL
MODEL 2
REMARK VINA RESULT:      -3.4      1.222      5.069
REMARK  5 active torsions:
REMARK  status: ('A' for Active; 'I' for Inactive)
REMARK    1  A    between atoms: C_3  and  C_1 
REMARK    2  A    between atoms: C_2  and  C_3 
REMARK       I    between atoms: N_4  and  C_2 
REMARK    3  A    between atoms: C_10  and  C_8 
REMARK    4  A    between atoms: O_16  and  C_10 
REMARK    5  A    between atoms: C_21  and  O_16 
ROOT
ATOM      1  C   UNL d   1     -42.110-122.359 -51.710  0.00  0.00     0.304 C 
ATOM      2  N   UNL d   1     -41.905-122.793 -51.044  0.00  0.00    -0.269 N 
ATOM      3  C   UNL d   1     -42.069-123.077 -49.653  0.00  0.00     0.081 A 
ATOM      4  C   UNL d   1     -42.274-122.641 -50.325  0.00  0.00     0.088 A 
ATOM      5  O   UNL d   1     -42.684-121.775 -51.658  0.00  0.00    -0.263 OA
ATOM      6  C   UNL d   1     -41.333-123.375 -51.097  0.00  0.00     0.083 A 
ATOM      7  C   UNL d   1     -41.493-123.665 -49.700  0.00  0.00     0.008 A 
ATOM      8  C   UNL d   1     -41.123-123.817 -50.422  0.00  0.00     0.019 A 
ENDROOT
BRANCH   1   9
ATOM      9  C   UNL d   1     -41.738-122.513 -52.436  0.00  0.00     0.253 C 
ATOM     10  O   UNL d   1     -41.123-123.060 -52.472  0.00  0.00    -0.281 OA
BRANCH   9  11
ATOM     11  C   UNL d   1     -41.983-122.120 -53.111  0.00  0.00     0.064 A 
ATOM     12  C   UNL d   1     -42.396-121.407 -53.147  0.00  0.00     0.102 A 
ATOM     13  N   UNL d   1     -42.529-121.215 -53.934  0.00  0.00    -0.244 NA
ATOM     14  C   UNL d   1     -42.197-121.811 -54.395  0.00  0.00     0.082 A 
ATOM     15  C   UNL d   1     -41.860-122.369 -53.888  0.00  0.00     0.022 A 
ATOM     16  C   UNL d   1     -42.157-121.918 -55.209  0.00  0.00     0.019 A 
ATOM     17  C   UNL d   1     -41.485-123.031 -54.197  0.00  0.00     0.002 A 
ATOM     18  C   UNL d   1     -41.446-123.138 -55.020  0.00  0.00     0.000 A 
ATOM     19  C   UNL d   1     -41.782-122.580 -55.517  0.00  0.00     0.002 A 
ENDBRANCH   9  11
ENDBRANCH   1   9
BRANCH   3  20
ATOM     20  C   UNL d   1     -42.436-122.927 -48.930  0.00  0.00     0.302 C 
ATOM     21  O   UNL d   1     -43.208-122.656 -48.909  0.00  0.00    -0.259 OA
BRANCH  20  22
ATOM     22  O   UNL d   1     -42.026-123.052 -48.235  0.00  0.00    -0.271 OA
BRANCH  22  23
ATOM     23  C   UNL d   1     -42.394-122.907 -47.506  0.00  0.00     0.126 C 
ATOM     24  C   UNL d   1     -41.984-123.081 -46.804  0.00  0.00     0.029 C 
ENDBRANCH  22  23
ENDBRANCH  20  22
ENDBRANCH   3  20
TORSDOF 5
ENDMDL
