MODEL 1
REMARK VINA RESULT:      -2.7      0.000      0.000
REMARK  4 active torsions:
REMARK  status: ('A' for Active; 'I' for Inactive)
REMARK    1  A    between atoms: S_10  and  C_6 
REMARK    2  A    between atoms: C_16  and  S_10 
REMARK    3  A    between atoms: C_11  and  C_16 
REMARK       I    between atoms: N_13  and  C_11 
REMARK    4  A    between atoms: C_14  and  N_13 
ROOT
ATOM      1  C   UNL d   1      58.370  -9.623  30.480  0.00  0.00     0.155 A 
ATOM      2  C   UNL d   1      59.157  -9.670  30.738  0.00  0.00     0.107 A 
ATOM      3  N   UNL d   1      57.929  -9.611  31.841  0.00  0.00    -0.250 N 
ATOM      4  C   UNL d   1      57.759  -9.594  31.029  0.00  0.00     0.285 A 
ATOM      5  N   UNL d   1      59.326  -9.687  31.551  0.00  0.00    -0.220 NA
ATOM      6  C   UNL d   1      58.708  -9.657  32.093  0.00  0.00     0.182 A 
ATOM      7  N   UNL d   1      58.369  -9.615  29.656  0.00  0.00    -0.239 NA
ATOM      8  C   UNL d   1      59.646  -9.691  30.075  0.00  0.00     0.037 A 
ATOM      9  C   UNL d   1      59.159  -9.657  29.400  0.00  0.00     0.083 A 
ATOM     10  O   UNL d   1      56.967  -9.547  30.778  0.00  0.00    -0.265 OA
ATOM     11  C   UNL d   1      57.313  -9.581  32.397  0.00  0.00     0.104 C 
ATOM     12  C   UNL d   1      60.464  -9.737  29.990  0.00  0.00     0.003 A 
ATOM     13  C   UNL d   1      59.496  -9.669  28.642  0.00  0.00     0.019 A 
ATOM     14  C   UNL d   1      60.801  -9.749  29.233  0.00  0.00     0.000 A 
ATOM     15  C   UNL d   1      60.319  -9.715  28.565  0.00  0.00     0.002 A 
ENDROOT
BRANCH   6  16
ATOM     16  S   UNL d   1      58.875  -9.674  32.903  0.00  0.00    -0.044 SA
BRANCH  16  17
ATOM     17  C   UNL d   1      59.644  -9.544  33.174  0.00  0.00     0.101 C 
BRANCH  17  18
ATOM     18  C   UNL d   1      59.771  -9.256  33.935  0.00  0.00     0.286 C 
ATOM     19  N   UNL d   1      60.201  -8.565  34.036  0.00  0.00    -0.208 NA
ATOM     20  O   UNL d   1      59.474  -9.649  34.591  0.00  0.00    -0.265 OA
BRANCH  19  21
ATOM     21  C   UNL d   1      60.333  -8.270  34.802  0.00  0.00     0.085 A 
ATOM     22  C   UNL d   1      59.803  -7.741  35.126  0.00  0.00     0.019 A 
ATOM     23  C   UNL d   1      59.934  -7.446  35.891  0.00  0.00     0.002 A 
ATOM     24  C   UNL d   1      59.396  -6.901  36.237  0.00  0.00     0.000 C 
ATOM     25  C   UNL d   1      60.594  -7.686  36.317  0.00  0.00     0.000 A 
ATOM     26  C   UNL d   1      61.131  -8.223  35.983  0.00  0.00     0.002 A 
ATOM     27  C   UNL d   1      60.994  -8.510  35.227  0.00  0.00     0.019 A 
ENDBRANCH  19  21
ENDBRANCH  17  18
ENDBRANCH  16  17
ENDBRANCH   6  16
TORSDOF 4
ENDMDL
MODEL 2
REMARK VINA RESULT:      -2.4      9.122     10.949
REMARK  4 active torsions:
REMARK  status: ('A' for Active; 'I' for Inactive)
REMARK    1  A    between atoms: S_10  and  C_6 
REMARK    2  A    between atoms: C_16  and  S_10 
REMARK    3  A    between atoms: C_11  and  C_16 
REMARK       I    between atoms: N_13  and  C_11 
REMARK    4  A    between atoms: C_14  and  N_13 
ROOT
ATOM      1  C   UNL d   1      56.466   0.680  34.279  0.00  0.00     0.155 A 
ATOM      2  C   UNL d   1      55.970   0.678  33.615  0.00  0.00     0.107 A 
ATOM      3  N   UNL d   1      57.610   0.678  33.420  0.00  0.00    -0.250 N 
ATOM      4  C   UNL d   1      57.282   0.680  34.182  0.00  0.00     0.285 A 
ATOM      5  N   UNL d   1      56.299   0.676  32.852  0.00  0.00    -0.220 NA
ATOM      6  C   UNL d   1      57.117   0.676  32.765  0.00  0.00     0.182 A 
ATOM      7  N   UNL d   1      55.992   0.682  34.954  0.00  0.00    -0.239 NA
ATOM      8  C   UNL d   1      55.188   0.679  33.874  0.00  0.00     0.037 A 
ATOM      9  C   UNL d   1      55.199   0.681  34.708  0.00  0.00     0.083 A 
ATOM     10  O   UNL d   1      57.787   0.682  34.844  0.00  0.00    -0.265 OA
ATOM     11  C   UNL d   1      58.435   0.678  33.321  0.00  0.00     0.104 C 
ATOM     12  C   UNL d   1      54.469   0.678  33.473  0.00  0.00     0.003 A 
ATOM     13  C   UNL d   1      54.487   0.682  35.134  0.00  0.00     0.019 A 
ATOM     14  C   UNL d   1      53.757   0.678  33.898  0.00  0.00     0.000 A 
ATOM     15  C   UNL d   1      53.768   0.681  34.722  0.00  0.00     0.002 A 
ENDROOT
BRANCH   6  16
ATOM     16  S   UNL d   1      57.447   0.674  32.006  0.00  0.00    -0.044 SA
BRANCH  16  17
ATOM     17  C   UNL d   1      57.078   0.264  31.392  0.00  0.00     0.101 C 
BRANCH  17  18
ATOM     18  C   UNL d   1      57.491   0.097  30.699  0.00  0.00     0.286 C 
ATOM     19  N   UNL d   1      57.955  -0.578  30.660  0.00  0.00    -0.208 NA
ATOM     20  O   UNL d   1      57.446   0.597  30.050  0.00  0.00    -0.265 OA
BRANCH  19  21
ATOM     21  C   UNL d   1      58.374  -0.751  29.963  0.00  0.00     0.085 A 
ATOM     22  C   UNL d   1      58.298  -1.486  29.619  0.00  0.00     0.019 A 
ATOM     23  C   UNL d   1      58.717  -1.659  28.924  0.00  0.00     0.002 A 
ATOM     24  C   UNL d   1      58.648  -2.413  28.559  0.00  0.00     0.000 C 
ATOM     25  C   UNL d   1      59.204  -1.090  28.585  0.00  0.00     0.000 A 
ATOM     26  C   UNL d   1      59.278  -0.343  28.938  0.00  0.00     0.002 A 
ATOM     27  C   UNL d   1      58.861  -0.181  29.625  0.00  0.00     0.019 A 
ENDBRANCH  19  21
ENDBRANCH  17  18
ENDBRANCH  16  17
ENDBRANCH   6  16
TORSDOF 4
ENDMDL
MODEL 3
REMARK VINA RESULT:      -2.2      8.316      8.843
REMARK  4 active torsions:
REMARK  status: ('A' for Active; 'I' for Inactive)
REMARK    1  A    between atoms: S_10  and  C_6 
REMARK    2  A    between atoms: C_16  and  S_10 
REMARK    3  A    between atoms: C_11  and  C_16 
REMARK       I    between atoms: N_13  and  C_11 
REMARK    4  A    between atoms: C_14  and  N_13 
ROOT
ATOM      1  C   UNL d   1      60.128  -1.632  29.067  0.00  0.00     0.155 A 
ATOM      2  C   UNL d   1      59.334  -1.868  29.071  0.00  0.00     0.107 A 
ATOM      3  N   UNL d   1      59.734  -0.306  29.431  0.00  0.00    -0.250 N 
ATOM      4  C   UNL d   1      60.328  -0.855  29.246  0.00  0.00     0.285 A 
ATOM      5  N   UNL d   1      58.739  -1.318  29.256  0.00  0.00    -0.220 NA
ATOM      6  C   UNL d   1      58.949  -0.542  29.434  0.00  0.00     0.182 A 
ATOM      7  N   UNL d   1      60.590  -2.286  28.866  0.00  0.00    -0.239 NA
ATOM      8  C   UNL d   1      59.298  -2.667  28.873  0.00  0.00     0.037 A 
ATOM      9  C   UNL d   1      60.079  -2.930  28.745  0.00  0.00     0.083 A 
ATOM     10  O   UNL d   1      61.123  -0.611  29.244  0.00  0.00    -0.265 OA
ATOM     11  C   UNL d   1      59.934   0.479  29.612  0.00  0.00     0.104 C 
ATOM     12  C   UNL d   1      58.669  -3.192  28.791  0.00  0.00     0.003 A 
ATOM     13  C   UNL d   1      60.223  -3.720  28.535  0.00  0.00     0.019 A 
ATOM     14  C   UNL d   1      58.812  -3.981  28.582  0.00  0.00     0.000 A 
ATOM     15  C   UNL d   1      59.584  -4.241  28.455  0.00  0.00     0.002 A 
ENDROOT
BRANCH   6  16
ATOM     16  S   UNL d   1      58.358   0.008  29.619  0.00  0.00    -0.044 SA
BRANCH  16  17
ATOM     17  C   UNL d   1      58.317   0.337  30.375  0.00  0.00     0.101 C 
BRANCH  17  18
ATOM     18  C   UNL d   1      57.659   0.199  30.851  0.00  0.00     0.286 C 
ATOM     19  N   UNL d   1      57.767   0.025  31.645  0.00  0.00    -0.208 NA
ATOM     20  O   UNL d   1      56.899   0.234  30.543  0.00  0.00    -0.265 OA
BRANCH  19  21
ATOM     21  C   UNL d   1      57.106  -0.115  32.130  0.00  0.00     0.085 A 
ATOM     22  C   UNL d   1      56.985   0.349  32.789  0.00  0.00     0.019 A 
ATOM     23  C   UNL d   1      56.325   0.210  33.274  0.00  0.00     0.002 A 
ATOM     24  C   UNL d   1      56.188   0.681  33.956  0.00  0.00     0.000 C 
ATOM     25  C   UNL d   1      55.799  -0.393  33.088  0.00  0.00     0.000 A 
ATOM     26  C   UNL d   1      55.926  -0.864  32.417  0.00  0.00     0.002 A 
ATOM     27  C   UNL d   1      56.581  -0.718  31.944  0.00  0.00     0.019 A 
ENDBRANCH  19  21
ENDBRANCH  17  18
ENDBRANCH  16  17
ENDBRANCH   6  16
TORSDOF 4
ENDMDL
