MODEL 1
REMARK VINA RESULT:      38.1      0.000      0.000
REMARK  3 active torsions:
REMARK  status: ('A' for Active; 'I' for Inactive)
REMARK    1  A    between atoms: C_5  and  S_1 
REMARK    2  A    between atoms: N_7  and  S_1 
REMARK       I    between atoms: N_2  and  C_3 
REMARK    3  A    between atoms: C_3  and  C_9 
ROOT
ATOM      1  C   UNL d   1      45.442 -15.030  44.347  0.00  0.00     0.104 A 
ATOM      2  C   UNL d   1      45.652 -16.432  44.516  0.00  0.00     0.059 A 
ATOM      3  C   UNL d   1      45.180 -15.806  44.258  0.00  0.00     0.018 A 
ATOM      4  C   UNL d   1      46.174 -14.877  44.693  0.00  0.00     0.012 A 
ATOM      5  C   UNL d   1      46.386 -16.282  44.864  0.00  0.00     0.005 A 
ATOM      6  C   UNL d   1      46.646 -15.503  44.952  0.00  0.00     0.001 A 
ATOM      7  C   UNL d   1      46.435 -14.102  44.782  0.00  0.00     0.001 C 
ENDROOT
BRANCH   1   8
ATOM      8  S   UNL d   1      44.975 -14.410  44.091  0.00  0.00     0.272 S 
ATOM      9  O   UNL d   1      45.532 -14.305  43.328  0.00  0.00    -0.200 OA
ATOM     10  O   UNL d   1      44.490 -14.502  44.754  0.00  0.00    -0.200 OA
BRANCH   8  11
ATOM     11  N   UNL d   1      44.538 -13.776  43.782  0.00  0.00    -0.225 N 
ATOM     12  C   UNL d   1      43.732 -13.738  43.915  0.00  0.00     0.118 A 
ATOM     13  C   UNL d   1      43.297 -13.107  43.608  0.00  0.00     0.142 A 
ATOM     14  O   UNL d   1      43.677 -12.516  43.167  0.00  0.00    -0.300 OA
ATOM     15  C   UNL d   1      44.493 -12.564  43.039  0.00  0.00     0.142 A 
ATOM     16  C   UNL d   1      44.931 -13.198  43.347  0.00  0.00     0.118 A 
ENDBRANCH   8  11
ENDBRANCH   1   8
BRANCH   2  17
ATOM     17  C   UNL d   1      45.397 -17.211  44.431  0.00  0.00     0.280 C 
ATOM     18  N   UNL d   1      45.712 -17.682  43.837  0.00  0.00    -0.195 N 
ATOM     19  N   UNL d   1      45.519 -18.457  43.681  0.00  0.00    -0.163 NA
ATOM     20  C   UNL d   1      46.285 -17.441  43.292  0.00  0.00     0.088 A 
ATOM     21  C   UNL d   1      45.966 -18.718  43.038  0.00  0.00     0.103 A 
ATOM     22  C   UNL d   1      45.944 -19.466  42.698  0.00  0.00     0.022 C 
ATOM     23  C   UNL d   1      46.440 -18.087  42.798  0.00  0.00     0.040 A 
ATOM     24  C   UNL d   1      46.640 -16.695  43.247  0.00  0.00     0.021 C 
ATOM     25  O   UNL d   1      44.828 -17.514  44.940  0.00  0.00    -0.265 OA
ENDBRANCH   2  17
TORSDOF 3
ENDMDL
