MODEL 1
REMARK VINA RESULT:       0.1      0.000      0.000
REMARK  3 active torsions:
REMARK  status: ('A' for Active; 'I' for Inactive)
REMARK    1  A    between atoms: C_11  and  N_3 
REMARK    2  A    between atoms: C_10  and  N_6 
REMARK    3  A    between atoms: C_9  and  C_7 
ROOT
ATOM      1  C   UNL d   1      32.610  21.068 -22.229  0.00  0.00     0.106 A 
ATOM      2  C   UNL d   1      32.596  20.437 -21.671  0.00  0.00     0.186 A 
ATOM      3  N   UNL d   1      32.642  19.898 -22.913  0.00  0.00    -0.240 N 
ATOM      4  C   UNL d   1      32.616  19.733 -22.121  0.00  0.00     0.292 A 
ATOM      5  C   UNL d   1      32.637  20.743 -22.979  0.00  0.00     0.271 A 
ATOM      6  N   UNL d   1      32.564  21.569 -20.981  0.00  0.00    -0.211 N 
ATOM      7  C   UNL d   1      32.589  21.762 -21.791  0.00  0.00     0.117 A 
ATOM      8  O   UNL d   1      32.568  20.746 -20.930  0.00  0.00    -0.223 OA
ATOM      9  O   UNL d   1      32.658  21.149 -23.697  0.00  0.00    -0.266 OA
ATOM     10  O   UNL d   1      32.611  18.959 -21.789  0.00  0.00    -0.264 OA
ENDROOT
BRANCH   6  11
ATOM     11  C   UNL d   1      32.538  22.100 -20.349  0.00  0.00     0.088 A 
ATOM     12  C   UNL d   1      33.239  22.256 -19.925  0.00  0.00     0.021 A 
ATOM     13  C   UNL d   1      33.235  22.785 -19.289  0.00  0.00     0.013 A 
ATOM     14  C   UNL d   1      32.515  23.169 -19.068  0.00  0.00     0.058 A 
ATOM     15  C   UNL d   1      31.816  23.005 -19.500  0.00  0.00     0.013 A 
ATOM     16 CL   UNL d   1      32.492  23.688 -18.449  0.00  0.00    -0.082 Cl
ATOM     17  C   UNL d   1      31.840  22.475 -20.131  0.00  0.00     0.021 A 
ENDBRANCH   6  11
BRANCH   7  18
ATOM     18  C   UNL d   1      32.594  22.522 -22.102  0.00  0.00     0.118 A 
ATOM     19  O   UNL d   1      33.241  22.969 -22.360  0.00  0.00    -0.304 OA
ATOM     20  C   UNL d   1      32.968  23.702 -22.627  0.00  0.00     0.123 A 
ATOM     21  C   UNL d   1      32.135  23.690 -22.524  0.00  0.00     0.029 A 
ATOM     22  C   UNL d   1      31.930  22.979 -22.210  0.00  0.00     0.028 A 
ENDBRANCH   7  18
BRANCH   3  23
ATOM     23  C   UNL d   1      32.664  19.263 -23.433  0.00  0.00     0.070 A 
ATOM     24  C   UNL d   1      32.160  18.610 -23.340  0.00  0.00     0.018 A 
ATOM     25  C   UNL d   1      32.195  17.981 -23.871  0.00  0.00     0.002 A 
ATOM     26  C   UNL d   1      32.711  17.979 -24.486  0.00  0.00     0.000 A 
ATOM     27  C   UNL d   1      33.229  18.641 -24.587  0.00  0.00     0.002 A 
ATOM     28  C   UNL d   1      33.208  19.272 -24.072  0.00  0.00     0.018 A 
ENDBRANCH   3  23
TORSDOF 3
ENDMDL
MODEL 2
REMARK VINA RESULT:       1.1      2.065      4.767
REMARK  3 active torsions:
REMARK  status: ('A' for Active; 'I' for Inactive)
REMARK    1  A    between atoms: C_11  and  N_3 
REMARK    2  A    between atoms: C_10  and  N_6 
REMARK    3  A    between atoms: C_9  and  C_7 
ROOT
ATOM      1  C   UNL d   1      32.570  20.317 -22.463  0.00  0.00     0.106 A 
ATOM      2  C   UNL d   1      32.570  19.991 -21.686  0.00  0.00     0.186 A 
ATOM      3  N   UNL d   1      32.553  21.341 -21.575  0.00  0.00    -0.240 N 
ATOM      4  C   UNL d   1      32.559  20.643 -21.164  0.00  0.00     0.292 A 
ATOM      5  C   UNL d   1      32.560  21.132 -22.396  0.00  0.00     0.271 A 
ATOM      6  N   UNL d   1      32.587  18.973 -22.537  0.00  0.00    -0.211 N 
ATOM      7  C   UNL d   1      32.580  19.679 -22.979  0.00  0.00     0.117 A 
ATOM      8  O   UNL d   1      32.580  19.190 -21.741  0.00  0.00    -0.223 OA
ATOM      9  O   UNL d   1      32.556  21.682 -23.011  0.00  0.00    -0.266 OA
ATOM     10  O   UNL d   1      32.556  20.577 -20.324  0.00  0.00    -0.264 OA
ENDROOT
BRANCH   6  11
ATOM     11  C   UNL d   1      32.597  18.205 -22.837  0.00  0.00     0.088 A 
ATOM     12  C   UNL d   1      31.948  17.938 -23.288  0.00  0.00     0.021 A 
ATOM     13  C   UNL d   1      31.940  17.171 -23.597  0.00  0.00     0.013 A 
ATOM     14  C   UNL d   1      32.593  16.654 -23.455  0.00  0.00     0.058 A 
ATOM     15  C   UNL d   1      33.241  16.931 -23.000  0.00  0.00     0.013 A 
ATOM     16 CL   UNL d   1      32.603  15.902 -23.749  0.00  0.00    -0.082 Cl
ATOM     17  C   UNL d   1      33.231  17.699 -22.700  0.00  0.00     0.021 A 
ENDBRANCH   6  11
BRANCH   7  18
ATOM     18  C   UNL d   1      32.584  19.729 -23.800  0.00  0.00     0.118 A 
ATOM     19  O   UNL d   1      31.953  19.622 -24.324  0.00  0.00    -0.304 OA
ATOM     20  C   UNL d   1      32.229  19.730 -25.097  0.00  0.00     0.123 A 
ATOM     21  C   UNL d   1      33.047  19.906 -25.027  0.00  0.00     0.029 A 
ATOM     22  C   UNL d   1      33.241  19.902 -24.247  0.00  0.00     0.028 A 
ENDBRANCH   7  18
BRANCH   3  23
ATOM     23  C   UNL d   1      32.542  22.037 -21.140  0.00  0.00     0.070 A 
ATOM     24  C   UNL d   1      33.241  22.452 -20.970  0.00  0.00     0.018 A 
ATOM     25  C   UNL d   1      33.214  23.149 -20.533  0.00  0.00     0.002 A 
ATOM     26  C   UNL d   1      32.519  23.447 -20.261  0.00  0.00     0.000 A 
ATOM     27  C   UNL d   1      31.802  23.030 -20.430  0.00  0.00     0.002 A 
ATOM     28  C   UNL d   1      31.810  22.339 -20.861  0.00  0.00     0.018 A 
ENDBRANCH   3  23
TORSDOF 3
ENDMDL
MODEL 3
REMARK VINA RESULT:       1.3      0.807      1.023
REMARK  3 active torsions:
REMARK  status: ('A' for Active; 'I' for Inactive)
REMARK    1  A    between atoms: C_11  and  N_3 
REMARK    2  A    between atoms: C_10  and  N_6 
REMARK    3  A    between atoms: C_9  and  C_7 
ROOT
ATOM      1  C   UNL d   1      32.503  21.161 -21.568  0.00  0.00     0.106 A 
ATOM      2  C   UNL d   1      32.787  20.565 -21.046  0.00  0.00     0.186 A 
ATOM      3  N   UNL d   1      32.742  20.041 -22.294  0.00  0.00    -0.240 N 
ATOM      4  C   UNL d   1      32.924  19.891 -21.519  0.00  0.00     0.292 A 
ATOM      5  C   UNL d   1      32.475  20.845 -22.322  0.00  0.00     0.271 A 
ATOM      6  N   UNL d   1      32.560  21.649 -20.315  0.00  0.00    -0.211 N 
ATOM      7  C   UNL d   1      32.366  21.825 -21.105  0.00  0.00     0.117 A 
ATOM      8  O   UNL d   1      32.818  20.865 -20.301  0.00  0.00    -0.223 OA
ATOM      9  O   UNL d   1      32.232  21.225 -23.013  0.00  0.00    -0.266 OA
ATOM     10  O   UNL d   1      33.214  19.156 -21.226  0.00  0.00    -0.264 OA
ENDROOT
BRANCH   6  11
ATOM     11  C   UNL d   1      32.506  22.159 -19.669  0.00  0.00     0.088 A 
ATOM     12  C   UNL d   1      33.180  22.593 -19.439  0.00  0.00     0.021 A 
ATOM     13  C   UNL d   1      33.146  23.110 -18.794  0.00  0.00     0.013 A 
ATOM     14  C   UNL d   1      32.423  23.199 -18.366  0.00  0.00     0.058 A 
ATOM     15  C   UNL d   1      31.750  22.760 -18.605  0.00  0.00     0.013 A 
ATOM     16 CL   UNL d   1      32.371  23.700 -17.734  0.00  0.00    -0.082 Cl
ATOM     17  C   UNL d   1      31.804  22.249 -19.250  0.00  0.00     0.021 A 
ENDBRANCH   6  11
BRANCH   7  18
ATOM     18  C   UNL d   1      32.084  22.547 -21.379  0.00  0.00     0.118 A 
ATOM     19  O   UNL d   1      31.387  22.940 -21.168  0.00  0.00    -0.304 OA
ATOM     20  C   UNL d   1      31.344  23.649 -21.592  0.00  0.00     0.123 A 
ATOM     21  C   UNL d   1      32.035  23.676 -22.068  0.00  0.00     0.029 A 
ATOM     22  C   UNL d   1      32.464  23.012 -21.928  0.00  0.00     0.028 A 
ENDBRANCH   7  18
BRANCH   3  23
ATOM     23  C   UNL d   1      32.847  19.432 -22.834  0.00  0.00     0.070 A 
ATOM     24  C   UNL d   1      33.119  19.579 -23.604  0.00  0.00     0.018 A 
ATOM     25  C   UNL d   1      33.220  18.957 -24.135  0.00  0.00     0.002 A 
ATOM     26  C   UNL d   1      33.058  18.199 -23.926  0.00  0.00     0.000 A 
ATOM     27  C   UNL d   1      32.779  18.040 -23.143  0.00  0.00     0.002 A 
ATOM     28  C   UNL d   1      32.675  18.643 -22.605  0.00  0.00     0.018 A 
ENDBRANCH   3  23
TORSDOF 3
ENDMDL
MODEL 4
REMARK VINA RESULT:       2.8      1.815      4.689
REMARK  3 active torsions:
REMARK  status: ('A' for Active; 'I' for Inactive)
REMARK    1  A    between atoms: C_11  and  N_3 
REMARK    2  A    between atoms: C_10  and  N_6 
REMARK    3  A    between atoms: C_9  and  C_7 
ROOT
ATOM      1  C   UNL d   1      32.685  22.323 -20.657  0.00  0.00     0.106 A 
ATOM      2  C   UNL d   1      32.943  21.634 -20.248  0.00  0.00     0.186 A 
ATOM      3  N   UNL d   1      32.705  22.601 -19.330  0.00  0.00    -0.240 N 
ATOM      4  C   UNL d   1      32.945  21.835 -19.438  0.00  0.00     0.292 A 
ATOM      5  C   UNL d   1      32.541  22.907 -20.103  0.00  0.00     0.271 A 
ATOM      6  N   UNL d   1      32.930  21.339 -21.541  0.00  0.00    -0.211 N 
ATOM      7  C   UNL d   1      32.681  22.129 -21.455  0.00  0.00     0.117 A 
ATOM      8  O   UNL d   1      33.086  21.052 -20.784  0.00  0.00    -0.223 OA
ATOM      9  O   UNL d   1      32.279  23.676 -20.247  0.00  0.00    -0.266 OA
ATOM     10  O   UNL d   1      33.168  21.308 -18.819  0.00  0.00    -0.264 OA
ENDROOT
BRANCH   6  11
ATOM     11  C   UNL d   1      33.006  20.922 -22.249  0.00  0.00     0.088 A 
ATOM     12  C   UNL d   1      32.919  20.092 -22.241  0.00  0.00     0.021 A 
ATOM     13  C   UNL d   1      32.991  19.656 -22.941  0.00  0.00     0.013 A 
ATOM     14  C   UNL d   1      33.155  20.054 -23.668  0.00  0.00     0.058 A 
ATOM     15  C   UNL d   1      33.241  20.888 -23.666  0.00  0.00     0.013 A 
ATOM     16 CL   UNL d   1      33.229  19.645 -24.360  0.00  0.00    -0.082 Cl
ATOM     17  C   UNL d   1      33.165  21.306 -22.959  0.00  0.00     0.021 A 
ENDBRANCH   6  11
BRANCH   7  18
ATOM     18  C   UNL d   1      32.466  22.633 -22.067  0.00  0.00     0.118 A 
ATOM     19  O   UNL d   1      31.709  22.786 -22.366  0.00  0.00    -0.304 OA
ATOM     20  C   UNL d   1      31.773  23.334 -22.983  0.00  0.00     0.123 A 
ATOM     21  C   UNL d   1      32.591  23.510 -23.050  0.00  0.00     0.029 A 
ATOM     22  C   UNL d   1      32.989  23.083 -22.497  0.00  0.00     0.028 A 
ENDBRANCH   7  18
BRANCH   3  23
ATOM     23  C   UNL d   1      32.677  22.886 -18.561  0.00  0.00     0.070 A 
ATOM     24  C   UNL d   1      33.241  22.661 -17.995  0.00  0.00     0.018 A 
ATOM     25  C   UNL d   1      33.199  22.956 -17.227  0.00  0.00     0.002 A 
ATOM     26  C   UNL d   1      32.619  23.464 -17.005  0.00  0.00     0.000 A 
ATOM     27  C   UNL d   1      32.040  23.699 -17.576  0.00  0.00     0.002 A 
ATOM     28  C   UNL d   1      32.066  23.417 -18.340  0.00  0.00     0.018 A 
ENDBRANCH   3  23
TORSDOF 3
ENDMDL
