MODEL 1
REMARK VINA RESULT:      69.6      0.000      0.000
REMARK  5 active torsions:
REMARK  status: ('A' for Active; 'I' for Inactive)
REMARK    1  A    between atoms: N_7  and  S_1 
REMARK    2  A    between atoms: C_10  and  S_1 
REMARK    3  A    between atoms: C_2  and  N_4 
REMARK       I    between atoms: N_4  and  C_8 
REMARK    4  A    between atoms: C_8  and  C_13 
REMARK    5  A    between atoms: O_23  and  C_14 
ROOT
ATOM      1  C   UNL d   1     -51.309  25.784  33.714  0.00  0.00     0.104 A 
ATOM      2  C   UNL d   1     -50.189  26.955  33.930  0.00  0.00     0.058 A 
ATOM      3  C   UNL d   1     -50.677  25.639  34.184  0.00  0.00     0.013 A 
ATOM      4  C   UNL d   1     -51.409  26.525  33.330  0.00  0.00     0.013 A 
ATOM      5  C   UNL d   1     -50.104  26.222  34.301  0.00  0.00     0.005 A 
ATOM      6  C   UNL d   1     -50.840  27.109  33.444  0.00  0.00     0.005 A 
ENDROOT
BRANCH   2   7
ATOM      7  C   UNL d   1     -49.617  27.538  34.048  0.00  0.00     0.281 C 
ATOM      8  N   UNL d   1     -49.385  27.737  34.818  0.00  0.00    -0.183 NA
ATOM      9  O   UNL d   1     -49.276  27.922  33.399  0.00  0.00    -0.265 OA
BRANCH   8  10
ATOM     10  C   UNL d   1     -48.806  28.328  34.921  0.00  0.00     0.197 A 
ATOM     11  N   UNL d   1     -48.566  28.632  35.627  0.00  0.00    -0.219 NA
ATOM     12  C   UNL d   1     -47.982  29.207  35.490  0.00  0.00     0.112 A 
ATOM     13  C   UNL d   1     -47.561  29.675  35.987  0.00  0.00     0.112 A 
ATOM     14  C   UNL d   1     -47.886  29.232  34.691  0.00  0.00     0.052 A 
ATOM     15  C   UNL d   1     -47.008  30.201  35.669  0.00  0.00     0.026 A 
ATOM     16  C   UNL d   1     -46.908  30.231  34.872  0.00  0.00     0.003 A 
ATOM     17  C   UNL d   1     -47.333  29.759  34.372  0.00  0.00     0.008 A 
ATOM     18  S   UNL d   1     -48.388  28.695  34.327  0.00  0.00    -0.047 SA
BRANCH  13  19
ATOM     19  O   UNL d   1     -47.674  29.633  36.798  0.00  0.00    -0.327 OA
ATOM     20  C   UNL d   1     -47.244  30.098  37.294  0.00  0.00     0.181 C 
ENDBRANCH  13  19
ENDBRANCH   8  10
ENDBRANCH   2   7
BRANCH   1  21
ATOM     21  S   UNL d   1     -51.871  25.181  33.612  0.00  0.00     0.272 S 
ATOM     22  O   UNL d   1     -52.413  25.739  33.312  0.00  0.00    -0.200 OA
ATOM     23  O   UNL d   1     -51.330  24.626  33.910  0.00  0.00    -0.200 OA
BRANCH  21  24
ATOM     24  N   UNL d   1     -52.436  24.576  33.509  0.00  0.00    -0.225 N 
ATOM     25  C   UNL d   1     -53.255  24.763  33.507  0.00  0.00     0.118 A 
ATOM     26  C   UNL d   1     -53.801  24.166  33.406  0.00  0.00     0.142 A 
ATOM     27  O   UNL d   1     -53.547  23.385  33.306  0.00  0.00    -0.300 OA
ATOM     28  C   UNL d   1     -52.752  23.189  33.306  0.00  0.00     0.142 A 
ATOM     29  C   UNL d   1     -52.207  23.786  33.407  0.00  0.00     0.118 A 
ENDBRANCH  21  24
ENDBRANCH   1  21
TORSDOF 5
ENDMDL
