MODEL 1
REMARK VINA RESULT:      56.0      0.000      0.000
REMARK  6 active torsions:
REMARK  status: ('A' for Active; 'I' for Inactive)
REMARK    1  A    between atoms: N_3  and  C_1 
REMARK       I    between atoms: C_5  and  N_3 
REMARK    2  A    between atoms: C_19  and  N_3 
REMARK    3  A    between atoms: C_8  and  C_5 
REMARK    4  A    between atoms: C_20  and  C_19 
REMARK    5  A    between atoms: C_23  and  C_20 
REMARK    6  A    between atoms: N_21  and  C_23 
ROOT
ATOM      1  N   UNL d   1      44.705 -16.798  38.704  0.00  0.00    -0.253 N 
ATOM      2  C   UNL d   1      44.459 -17.371  39.247  0.00  0.00     0.266 C 
ATOM      3  O   UNL d   1      43.675 -17.591  39.289  0.00  0.00    -0.267 OA
ENDROOT
BRANCH   1   4
ATOM      4  C   UNL d   1      44.142 -16.447  38.201  0.00  0.00     0.182 A 
ATOM      5  N   UNL d   1      43.754 -15.732  38.339  0.00  0.00    -0.222 NA
ATOM      6  C   UNL d   1      43.245 -15.584  37.712  0.00  0.00     0.089 A 
ATOM      7  C   UNL d   1      42.730 -14.973  37.549  0.00  0.00     0.018 A 
ATOM      8  C   UNL d   1      43.318 -16.214  37.177  0.00  0.00     0.050 A 
ATOM      9  C   UNL d   1      42.282 -14.974  36.860  0.00  0.00     0.002 A 
ATOM     10  C   UNL d   1      42.651 -14.338  38.078  0.00  0.00     0.002 C 
ATOM     11  C   UNL d   1      42.358 -15.599  36.336  0.00  0.00     0.001 A 
ATOM     12  C   UNL d   1      42.878 -16.216  36.500  0.00  0.00     0.008 A 
ATOM     13  S   UNL d   1      43.873 -16.749  37.479  0.00  0.00    -0.048 SA
ENDBRANCH   1   4
BRANCH   1  14
ATOM     14  C   UNL d   1      45.497 -16.575  38.661  0.00  0.00     0.086 C 
BRANCH  14  15
ATOM     15  C   UNL d   1      45.775 -16.170  37.994  0.00  0.00     0.038 C 
BRANCH  15  16
ATOM     16  C   UNL d   1      46.488 -15.759  38.032  0.00  0.00     0.082 C 
BRANCH  16  17
ATOM     17  N   UNL d   1      46.593 -15.073  37.591  0.00  0.00    -0.300 N 
ATOM     18  C   UNL d   1      46.645 -15.114  36.770  0.00  0.00     0.100 C 
ATOM     19  C   UNL d   1      46.645 -14.346  37.971  0.00  0.00     0.100 C 
ENDBRANCH  16  17
ENDBRANCH  15  16
ENDBRANCH  14  15
ENDBRANCH   1  14
BRANCH   2  20
ATOM     20  C   UNL d   1      45.020 -17.717  39.744  0.00  0.00     0.057 A 
ATOM     21  C   UNL d   1      44.908 -17.725  40.560  0.00  0.00     0.013 A 
ATOM     22  C   UNL d   1      45.483 -18.077  41.043  0.00  0.00     0.049 A 
ATOM     23  S   UNL d   1      45.517 -18.165  41.866  0.00  0.00    -0.064 SA
ATOM     24  C   UNL d   1      46.160 -18.417  40.717  0.00  0.00     0.088 A 
ATOM     25  C   UNL d   1      46.222 -18.562  42.042  0.00  0.00     0.135 A 
ATOM     26  N   UNL d   1      46.618 -18.716  41.331  0.00  0.00    -0.236 NA
ATOM     27  C   UNL d   1      46.272 -18.408  39.901  0.00  0.00     0.020 A 
ATOM     28  C   UNL d   1      45.707 -18.061  39.411  0.00  0.00     0.006 A 
ENDBRANCH   2  20
TORSDOF 6
ENDMDL
