MODEL 1
REMARK VINA RESULT:      -5.5      0.000      0.000
REMARK  4 active torsions:
REMARK  status: ('A' for Active; 'I' for Inactive)
REMARK    1  A    between atoms: N_4  and  C_1 
REMARK       I    between atoms: C_10  and  N_4 
REMARK    2  A    between atoms: C_7  and  C_8 
REMARK    3  A    between atoms: O_15  and  C_7 
REMARK    4  A    between atoms: C_17  and  O_15 
ROOT
ATOM      1  C   UNL d   1      57.531  -0.209  31.227  0.00  0.00     0.197 A 
ATOM      2  N   UNL d   1      57.163  -0.921  31.461  0.00  0.00    -0.221 NA
ATOM      3  S   UNL d   1      57.221   0.398  31.688  0.00  0.00    -0.047 SA
ATOM      4  C   UNL d   1      56.662   0.079  32.209  0.00  0.00     0.050 A 
ATOM      5  C   UNL d   1      56.626  -0.743  32.067  0.00  0.00     0.090 A 
ATOM      6  C   UNL d   1      55.677  -0.052  33.222  0.00  0.00     0.064 A 
ATOM      7  C   UNL d   1      56.184   0.420  32.789  0.00  0.00     0.013 A 
ATOM      8  C   UNL d   1      56.112  -1.208  32.508  0.00  0.00     0.020 A 
ATOM      9  C   UNL d   1      55.640  -0.874  33.080  0.00  0.00     0.007 A 
ENDROOT
BRANCH   6  10
ATOM     10  C   UNL d   1      55.192   0.276  33.806  0.00  0.00     0.300 C 
ATOM     11  O   UNL d   1      54.404   0.417  33.657  0.00  0.00    -0.259 OA
BRANCH  10  12
ATOM     12  O   UNL d   1      55.521   0.459  34.547  0.00  0.00    -0.271 OA
BRANCH  12  13
ATOM     13  C   UNL d   1      55.034   0.682  35.176  0.00  0.00     0.126 C 
ATOM     14  C   UNL d   1      55.318   0.674  35.939  0.00  0.00     0.029 C 
ENDBRANCH  12  13
ENDBRANCH  10  12
ENDBRANCH   6  10
BRANCH   1  15
ATOM     15  N   UNL d   1      58.106  -0.133  30.637  0.00  0.00    -0.183 NA
ATOM     16  C   UNL d   1      57.924   0.254  29.931  0.00  0.00     0.281 C 
ATOM     17  O   UNL d   1      57.159   0.568  29.814  0.00  0.00    -0.265 OA
ATOM     18  C   UNL d   1      58.489   0.329  29.350  0.00  0.00     0.068 C 
ENDBRANCH   1  15
TORSDOF 4
ENDMDL
MODEL 2
REMARK VINA RESULT:      -4.8      1.267      4.194
REMARK  4 active torsions:
REMARK  status: ('A' for Active; 'I' for Inactive)
REMARK    1  A    between atoms: N_4  and  C_1 
REMARK       I    between atoms: C_10  and  N_4 
REMARK    2  A    between atoms: C_7  and  C_8 
REMARK    3  A    between atoms: O_15  and  C_7 
REMARK    4  A    between atoms: C_17  and  O_15 
ROOT
ATOM      1  C   UNL d   1      56.222   0.148  33.632  0.00  0.00     0.197 A 
ATOM      2  N   UNL d   1      56.165  -0.566  33.203  0.00  0.00    -0.221 NA
ATOM      3  S   UNL d   1      56.667   0.677  33.183  0.00  0.00    -0.047 SA
ATOM      4  C   UNL d   1      56.890   0.306  32.478  0.00  0.00     0.050 A 
ATOM      5  C   UNL d   1      56.578  -0.468  32.490  0.00  0.00     0.090 A 
ATOM      6  C   UNL d   1      57.460   0.056  31.202  0.00  0.00     0.064 A 
ATOM      7  C   UNL d   1      57.331   0.563  31.830  0.00  0.00     0.013 A 
ATOM      8  C   UNL d   1      56.713  -0.970  31.854  0.00  0.00     0.020 A 
ATOM      9  C   UNL d   1      57.148  -0.718  31.215  0.00  0.00     0.007 A 
ENDROOT
BRANCH   6  10
ATOM     10  C   UNL d   1      57.901   0.300  30.547  0.00  0.00     0.300 C 
ATOM     11  O   UNL d   1      57.528   0.507  29.853  0.00  0.00    -0.259 OA
BRANCH  10  12
ATOM     12  O   UNL d   1      58.729   0.332  30.607  0.00  0.00    -0.271 OA
BRANCH  12  13
ATOM     13  C   UNL d   1      59.179   0.658  29.995  0.00  0.00     0.126 C 
ATOM     14  C   UNL d   1      59.992   0.664  30.041  0.00  0.00     0.029 C 
ENDBRANCH  12  13
ENDBRANCH  10  12
ENDBRANCH   6  10
BRANCH   1  15
ATOM     15  N   UNL d   1      55.890   0.294  34.375  0.00  0.00    -0.183 NA
ATOM     16  C   UNL d   1      55.104   0.537  34.436  0.00  0.00     0.281 C 
ATOM     17  O   UNL d   1      54.644   0.635  33.746  0.00  0.00    -0.265 OA
ATOM     18  C   UNL d   1      54.777   0.681  35.167  0.00  0.00     0.068 C 
ENDBRANCH   1  15
TORSDOF 4
ENDMDL
MODEL 3
REMARK VINA RESULT:      -4.8      0.953      1.162
REMARK  4 active torsions:
REMARK  status: ('A' for Active; 'I' for Inactive)
REMARK    1  A    between atoms: N_4  and  C_1 
REMARK       I    between atoms: C_10  and  N_4 
REMARK    2  A    between atoms: C_7  and  C_8 
REMARK    3  A    between atoms: O_15  and  C_7 
REMARK    4  A    between atoms: C_17  and  O_15 
ROOT
ATOM      1  C   UNL d   1      57.719  -0.041  30.541  0.00  0.00     0.197 A 
ATOM      2  N   UNL d   1      57.447  -0.762  30.862  0.00  0.00    -0.221 NA
ATOM      3  S   UNL d   1      57.464   0.566  31.036  0.00  0.00    -0.047 SA
ATOM      4  C   UNL d   1      57.036   0.237  31.663  0.00  0.00     0.050 A 
ATOM      5  C   UNL d   1      57.025  -0.591  31.555  0.00  0.00     0.090 A 
ATOM      6  C   UNL d   1      56.271   0.091  32.850  0.00  0.00     0.064 A 
ATOM      7  C   UNL d   1      56.656   0.573  32.314  0.00  0.00     0.013 A 
ATOM      8  C   UNL d   1      56.635  -1.065  32.099  0.00  0.00     0.020 A 
ATOM      9  C   UNL d   1      56.260  -0.736  32.741  0.00  0.00     0.007 A 
ENDROOT
BRANCH   6  10
ATOM     10  C   UNL d   1      55.886   0.415  33.506  0.00  0.00     0.300 C 
ATOM     11  O   UNL d   1      56.304   0.592  34.182  0.00  0.00    -0.259 OA
BRANCH  10  12
ATOM     12  O   UNL d   1      55.068   0.555  33.466  0.00  0.00    -0.271 OA
BRANCH  12  13
ATOM     13  C   UNL d   1      54.632   0.682  34.156  0.00  0.00     0.126 C 
ATOM     14  C   UNL d   1      53.819   0.650  34.140  0.00  0.00     0.029 C 
ENDBRANCH  12  13
ENDBRANCH  10  12
ENDBRANCH   6  10
BRANCH   1  15
ATOM     15  N   UNL d   1      58.165   0.044  29.850  0.00  0.00    -0.183 NA
ATOM     16  C   UNL d   1      58.916   0.384  29.882  0.00  0.00     0.281 C 
ATOM     17  O   UNL d   1      59.226   0.642  30.613  0.00  0.00    -0.265 OA
ATOM     18  C   UNL d   1      59.355   0.468  29.201  0.00  0.00     0.068 C 
ENDBRANCH   1  15
TORSDOF 4
ENDMDL
MODEL 4
REMARK VINA RESULT:      -4.2      1.380      4.548
REMARK  4 active torsions:
REMARK  status: ('A' for Active; 'I' for Inactive)
REMARK    1  A    between atoms: N_4  and  C_1 
REMARK       I    between atoms: C_10  and  N_4 
REMARK    2  A    between atoms: C_7  and  C_8 
REMARK    3  A    between atoms: O_15  and  C_7 
REMARK    4  A    between atoms: C_17  and  O_15 
ROOT
ATOM      1  C   UNL d   1      56.637  -0.217  32.704  0.00  0.00     0.197 A 
ATOM      2  N   UNL d   1      57.212   0.381  32.605  0.00  0.00    -0.221 NA
ATOM      3  S   UNL d   1      56.645  -0.687  32.028  0.00  0.00    -0.047 SA
ATOM      4  C   UNL d   1      57.215  -0.393  31.505  0.00  0.00     0.050 A 
ATOM      5  C   UNL d   1      57.568   0.272  31.865  0.00  0.00     0.090 A 
ATOM      6  C   UNL d   1      58.051  -0.224  30.371  0.00  0.00     0.064 A 
ATOM      7  C   UNL d   1      57.461  -0.637  30.756  0.00  0.00     0.013 A 
ATOM      8  C   UNL d   1      58.160   0.681  31.469  0.00  0.00     0.020 A 
ATOM      9  C   UNL d   1      58.404   0.442  30.731  0.00  0.00     0.007 A 
ENDROOT
BRANCH   6  10
ATOM     10  C   UNL d   1      58.307  -0.457  29.620  0.00  0.00     0.300 C 
ATOM     11  O   UNL d   1      58.031  -0.079  28.954  0.00  0.00    -0.259 OA
BRANCH  10  12
ATOM     12  O   UNL d   1      58.851  -1.082  29.556  0.00  0.00    -0.271 OA
BRANCH  12  13
ATOM     13  C   UNL d   1      59.113  -1.332  28.813  0.00  0.00     0.126 C 
ATOM     14  C   UNL d   1      59.582  -1.994  28.744  0.00  0.00     0.029 C 
ENDBRANCH  12  13
ENDBRANCH  10  12
ENDBRANCH   6  10
BRANCH   1  15
ATOM     15  N   UNL d   1      56.150  -0.316  33.365  0.00  0.00    -0.183 NA
ATOM     16  C   UNL d   1      55.459   0.128  33.439  0.00  0.00     0.281 C 
ATOM     17  O   UNL d   1      55.251   0.678  32.845  0.00  0.00    -0.265 OA
ATOM     18  C   UNL d   1      54.979   0.031  34.090  0.00  0.00     0.068 C 
ENDBRANCH   1  15
TORSDOF 4
ENDMDL
MODEL 5
REMARK VINA RESULT:      -3.1      2.766      4.394
REMARK  4 active torsions:
REMARK  status: ('A' for Active; 'I' for Inactive)
REMARK    1  A    between atoms: N_4  and  C_1 
REMARK       I    between atoms: C_10  and  N_4 
REMARK    2  A    between atoms: C_7  and  C_8 
REMARK    3  A    between atoms: O_15  and  C_7 
REMARK    4  A    between atoms: C_17  and  O_15 
ROOT
ATOM      1  C   UNL d   1      59.785  -2.238  28.785  0.00  0.00     0.197 A 
ATOM      2  N   UNL d   1      60.186  -1.509  28.853  0.00  0.00    -0.221 NA
ATOM      3  S   UNL d   1      59.032  -2.142  29.103  0.00  0.00    -0.047 SA
ATOM      4  C   UNL d   1      58.953  -1.363  29.371  0.00  0.00     0.050 A 
ATOM      5  C   UNL d   1      59.672  -0.968  29.216  0.00  0.00     0.090 A 
ATOM      6  C   UNL d   1      58.423  -0.174  29.937  0.00  0.00     0.064 A 
ATOM      7  C   UNL d   1      58.330  -0.960  29.733  0.00  0.00     0.013 A 
ATOM      8  C   UNL d   1      59.754  -0.179  29.425  0.00  0.00     0.020 A 
ATOM      9  C   UNL d   1      59.142   0.221  29.781  0.00  0.00     0.007 A 
ENDROOT
BRANCH   6  10
ATOM     10  C   UNL d   1      57.808   0.242  30.300  0.00  0.00     0.300 C 
ATOM     11  O   UNL d   1      57.288   0.682  29.854  0.00  0.00    -0.259 OA
BRANCH  10  12
ATOM     12  O   UNL d   1      57.728   0.205  31.126  0.00  0.00    -0.271 OA
BRANCH  12  13
ATOM     13  C   UNL d   1      57.125   0.623  31.507  0.00  0.00     0.126 C 
ATOM     14  C   UNL d   1      57.000   0.529  32.306  0.00  0.00     0.029 C 
ENDBRANCH  12  13
ENDBRANCH  10  12
ENDBRANCH   6  10
BRANCH   1  15
ATOM     15  N   UNL d   1      60.094  -2.931  28.455  0.00  0.00    -0.183 NA
ATOM     16  C   UNL d   1      60.679  -3.353  28.855  0.00  0.00     0.281 C 
ATOM     17  O   UNL d   1      60.959  -3.081  29.593  0.00  0.00    -0.265 OA
ATOM     18  C   UNL d   1      60.983  -4.035  28.530  0.00  0.00     0.068 C 
ENDBRANCH   1  15
TORSDOF 4
ENDMDL
MODEL 6
REMARK VINA RESULT:      -2.9      1.816      2.695
REMARK  4 active torsions:
REMARK  status: ('A' for Active; 'I' for Inactive)
REMARK    1  A    between atoms: N_4  and  C_1 
REMARK       I    between atoms: C_10  and  N_4 
REMARK    2  A    between atoms: C_7  and  C_8 
REMARK    3  A    between atoms: O_15  and  C_7 
REMARK    4  A    between atoms: C_17  and  O_15 
ROOT
ATOM      1  C   UNL d   1      58.731  -0.916  29.489  0.00  0.00     0.197 A 
ATOM      2  N   UNL d   1      58.774  -0.112  29.708  0.00  0.00    -0.221 NA
ATOM      3  S   UNL d   1      58.168  -1.278  29.969  0.00  0.00    -0.047 SA
ATOM      4  C   UNL d   1      57.857  -0.714  30.488  0.00  0.00     0.050 A 
ATOM      5  C   UNL d   1      58.234   0.013  30.325  0.00  0.00     0.090 A 
ATOM      6  C   UNL d   1      57.093  -0.089  31.508  0.00  0.00     0.064 A 
ATOM      7  C   UNL d   1      57.286  -0.759  31.082  0.00  0.00     0.013 A 
ATOM      8  C   UNL d   1      58.033   0.680  30.760  0.00  0.00     0.020 A 
ATOM      9  C   UNL d   1      57.471   0.638  31.346  0.00  0.00     0.007 A 
ENDROOT
BRANCH   6  10
ATOM     10  C   UNL d   1      56.523  -0.120  32.106  0.00  0.00     0.300 C 
ATOM     11  O   UNL d   1      56.177   0.563  32.381  0.00  0.00    -0.259 OA
BRANCH  10  12
ATOM     12  O   UNL d   1      56.310  -0.859  32.422  0.00  0.00    -0.271 OA
BRANCH  12  13
ATOM     13  C   UNL d   1      55.865  -0.902  33.117  0.00  0.00     0.126 C 
ATOM     14  C   UNL d   1      55.557  -1.614  33.364  0.00  0.00     0.029 C 
ENDBRANCH  12  13
ENDBRANCH  10  12
ENDBRANCH   6  10
BRANCH   1  15
ATOM     15  N   UNL d   1      59.176  -1.280  28.894  0.00  0.00    -0.183 NA
ATOM     16  C   UNL d   1      59.955  -1.506  29.041  0.00  0.00     0.281 C 
ATOM     17  O   UNL d   1      60.295  -1.367  29.791  0.00  0.00    -0.265 OA
ATOM     18  C   UNL d   1      60.393  -1.864  28.456  0.00  0.00     0.068 C 
ENDBRANCH   1  15
TORSDOF 4
ENDMDL
