MODEL 1
REMARK VINA RESULT:      -3.9      0.000      0.000
REMARK  3 active torsions:
REMARK  status: ('A' for Active; 'I' for Inactive)
REMARK    1  A    between atoms: C_8  and  S_1 
REMARK    2  A    between atoms: N_10  and  S_1 
REMARK    3  A    between atoms: C_17  and  N_10 
ROOT
ATOM      1  C   UNL d   1      33.206  20.970 -22.064  0.00  0.00     0.043 A 
ATOM      2  C   UNL d   1      33.190  21.776 -22.234  0.00  0.00     0.196 A 
ATOM      3  C   UNL d   1      33.210  21.265 -20.666  0.00  0.00     0.196 A 
ATOM      4  C   UNL d   1      33.216  20.715 -21.279  0.00  0.00     0.042 A 
ATOM      5  C   UNL d   1      33.184  22.329 -21.621  0.00  0.00     0.042 A 
ATOM      6  C   UNL d   1      33.194  22.073 -20.836  0.00  0.00     0.042 A 
ATOM      7  C   UNL d   1      33.229  19.616 -22.506  0.00  0.00     0.105 A 
ATOM      8  C   UNL d   1      33.212  20.421 -22.676  0.00  0.00     0.016 A 
ATOM      9  C   UNL d   1      33.232  19.910 -21.108  0.00  0.00     0.004 A 
ATOM     10  O   UNL d   1      33.180  22.031 -23.019  0.00  0.00    -0.287 OA
ATOM     11  O   UNL d   1      33.220  21.009 -19.881  0.00  0.00    -0.287 OA
ATOM     12  C   UNL d   1      33.239  19.360 -21.721  0.00  0.00     0.013 A 
ATOM     13  C   UNL d   1      33.168  23.134 -21.791  0.00  0.00     0.003 A 
ATOM     14  C   UNL d   1      33.188  22.623 -20.223  0.00  0.00     0.003 A 
ATOM     15  C   UNL d   1      33.172  23.436 -20.392  0.00  0.00     0.000 A 
ATOM     16  C   UNL d   1      33.162  23.692 -21.176  0.00  0.00     0.000 A 
ENDROOT
BRANCH   7  17
ATOM     17  S   UNL d   1      33.235  19.057 -23.131  0.00  0.00     0.285 S 
ATOM     18  O   UNL d   1      33.241  18.433 -22.576  0.00  0.00    -0.198 OA
ATOM     19  O   UNL d   1      33.229  19.683 -23.680  0.00  0.00    -0.198 OA
BRANCH  17  20
ATOM     20  N   UNL d   1      33.241  18.501 -23.749  0.00  0.00    -0.158 NA
BRANCH  20  21
ATOM     21  C   UNL d   1      32.534  18.157 -24.005  0.00  0.00     0.094 A 
ATOM     22  C   UNL d   1      32.131  18.484 -24.650  0.00  0.00     0.020 A 
ATOM     23  C   UNL d   1      31.418  18.142 -24.912  0.00  0.00     0.002 A 
ATOM     24  C   UNL d   1      31.112  17.475 -24.527  0.00  0.00     0.000 A 
ATOM     25  C   UNL d   1      31.525  17.149 -23.874  0.00  0.00     0.002 A 
ATOM     26  C   UNL d   1      32.229  17.493 -23.621  0.00  0.00     0.020 A 
ENDBRANCH  20  21
ENDBRANCH  17  20
ENDBRANCH   7  17
TORSDOF 3
ENDMDL
MODEL 2
REMARK VINA RESULT:      -3.5      0.894      1.840
REMARK  3 active torsions:
REMARK  status: ('A' for Active; 'I' for Inactive)
REMARK    1  A    between atoms: C_8  and  S_1 
REMARK    2  A    between atoms: N_10  and  S_1 
REMARK    3  A    between atoms: C_17  and  N_10 
ROOT
ATOM      1  C   UNL d   1      33.233  19.976 -22.284  0.00  0.00     0.043 A 
ATOM      2  C   UNL d   1      33.234  20.167 -21.483  0.00  0.00     0.196 A 
ATOM      3  C   UNL d   1      33.237  21.366 -22.617  0.00  0.00     0.196 A 
ATOM      4  C   UNL d   1      33.235  20.576 -22.851  0.00  0.00     0.042 A 
ATOM      5  C   UNL d   1      33.236  20.958 -21.246  0.00  0.00     0.042 A 
ATOM      6  C   UNL d   1      33.237  21.557 -21.813  0.00  0.00     0.042 A 
ATOM      7  C   UNL d   1      33.231  18.997 -23.319  0.00  0.00     0.105 A 
ATOM      8  C   UNL d   1      33.231  19.188 -22.518  0.00  0.00     0.016 A 
ATOM      9  C   UNL d   1      33.235  20.386 -23.652  0.00  0.00     0.004 A 
ATOM     10  O   UNL d   1      33.232  19.567 -20.916  0.00  0.00    -0.287 OA
ATOM     11  O   UNL d   1      33.239  21.965 -23.183  0.00  0.00    -0.287 OA
ATOM     12  C   UNL d   1      33.232  19.596 -23.886  0.00  0.00     0.013 A 
ATOM     13  C   UNL d   1      33.236  21.149 -20.445  0.00  0.00     0.003 A 
ATOM     14  C   UNL d   1      33.240  22.347 -21.578  0.00  0.00     0.003 A 
ATOM     15  C   UNL d   1      33.240  22.543 -20.771  0.00  0.00     0.000 A 
ATOM     16  C   UNL d   1      33.238  21.944 -20.204  0.00  0.00     0.000 A 
ENDROOT
BRANCH   7  17
ATOM     17  S   UNL d   1      33.229  18.193 -23.557  0.00  0.00     0.285 S 
ATOM     18  O   UNL d   1      33.240  18.427 -24.358  0.00  0.00    -0.198 OA
ATOM     19  O   UNL d   1      33.217  17.965 -22.756  0.00  0.00    -0.198 OA
BRANCH  17  20
ATOM     20  N   UNL d   1      33.226  17.396 -23.794  0.00  0.00    -0.158 NA
BRANCH  20  21
ATOM     21  C   UNL d   1      32.512  17.018 -23.970  0.00  0.00     0.094 A 
ATOM     22  C   UNL d   1      32.097  16.629 -23.368  0.00  0.00     0.020 A 
ATOM     23  C   UNL d   1      31.378  16.246 -23.539  0.00  0.00     0.002 A 
ATOM     24  C   UNL d   1      31.078  16.254 -24.311  0.00  0.00     0.000 A 
ATOM     25  C   UNL d   1      31.503  16.649 -24.917  0.00  0.00     0.002 A 
ATOM     26  C   UNL d   1      32.214  17.025 -24.739  0.00  0.00     0.020 A 
ENDBRANCH  20  21
ENDBRANCH  17  20
ENDBRANCH   7  17
TORSDOF 3
ENDMDL
MODEL 3
REMARK VINA RESULT:      -2.7      1.523      5.358
REMARK  3 active torsions:
REMARK  status: ('A' for Active; 'I' for Inactive)
REMARK    1  A    between atoms: C_8  and  S_1 
REMARK    2  A    between atoms: N_10  and  S_1 
REMARK    3  A    between atoms: C_17  and  N_10 
ROOT
ATOM      1  C   UNL d   1      31.363  17.637 -23.986  0.00  0.00     0.043 A 
ATOM      2  C   UNL d   1      30.570  17.641 -24.207  0.00  0.00     0.196 A 
ATOM      3  C   UNL d   1      31.439  16.240 -24.276  0.00  0.00     0.196 A 
ATOM      4  C   UNL d   1      31.798  16.936 -24.021  0.00  0.00     0.042 A 
ATOM      5  C   UNL d   1      30.208  16.944 -24.462  0.00  0.00     0.042 A 
ATOM      6  C   UNL d   1      30.642  16.243 -24.497  0.00  0.00     0.042 A 
ATOM      7  C   UNL d   1      32.516  18.328 -23.511  0.00  0.00     0.105 A 
ATOM      8  C   UNL d   1      31.722  18.332 -23.732  0.00  0.00     0.016 A 
ATOM      9  C   UNL d   1      32.591  16.931 -23.801  0.00  0.00     0.004 A 
ATOM     10  O   UNL d   1      30.136  18.342 -24.172  0.00  0.00    -0.287 OA
ATOM     11  O   UNL d   1      31.873  15.539 -24.310  0.00  0.00    -0.287 OA
ATOM     12  C   UNL d   1      32.950  17.628 -23.546  0.00  0.00     0.013 A 
ATOM     13  C   UNL d   1      29.415  16.948 -24.683  0.00  0.00     0.003 A 
ATOM     14  C   UNL d   1      30.283  15.547 -24.752  0.00  0.00     0.003 A 
ATOM     15  C   UNL d   1      29.483  15.548 -24.975  0.00  0.00     0.000 A 
ATOM     16  C   UNL d   1      29.049  16.249 -24.940  0.00  0.00     0.000 A 
ENDROOT
BRANCH   7  17
ATOM     17  S   UNL d   1      32.880  19.037 -23.252  0.00  0.00     0.285 S 
ATOM     18  O   UNL d   1      32.595  19.434 -23.929  0.00  0.00    -0.198 OA
ATOM     19  O   UNL d   1      33.162  18.637 -22.579  0.00  0.00    -0.198 OA
BRANCH  17  20
ATOM     20  N   UNL d   1      33.241  19.741 -22.996  0.00  0.00    -0.158 NA
BRANCH  20  21
ATOM     21  C   UNL d   1      32.983  20.112 -22.304  0.00  0.00     0.094 A 
ATOM     22  C   UNL d   1      32.462  20.753 -22.354  0.00  0.00     0.020 A 
ATOM     23  C   UNL d   1      32.198  21.131 -21.660  0.00  0.00     0.002 A 
ATOM     24  C   UNL d   1      32.457  20.864 -20.919  0.00  0.00     0.000 A 
ATOM     25  C   UNL d   1      32.985  20.214 -20.875  0.00  0.00     0.002 A 
ATOM     26  C   UNL d   1      33.241  19.846 -21.566  0.00  0.00     0.020 A 
ENDBRANCH  20  21
ENDBRANCH  17  20
ENDBRANCH   7  17
TORSDOF 3
ENDMDL
MODEL 4
REMARK VINA RESULT:      -2.2      2.599      5.437
REMARK  3 active torsions:
REMARK  status: ('A' for Active; 'I' for Inactive)
REMARK    1  A    between atoms: C_8  and  S_1 
REMARK    2  A    between atoms: N_10  and  S_1 
REMARK    3  A    between atoms: C_17  and  N_10 
ROOT
ATOM      1  C   UNL d   1      30.410  17.167 -24.006  0.00  0.00     0.043 A 
ATOM      2  C   UNL d   1      29.648  17.372 -24.243  0.00  0.00     0.196 A 
ATOM      3  C   UNL d   1      29.881  16.093 -23.227  0.00  0.00     0.196 A 
ATOM      4  C   UNL d   1      30.526  16.528 -23.498  0.00  0.00     0.042 A 
ATOM      5  C   UNL d   1      29.000  16.938 -23.972  0.00  0.00     0.042 A 
ATOM      6  C   UNL d   1      29.116  16.298 -23.464  0.00  0.00     0.042 A 
ATOM      7  C   UNL d   1      31.816  17.396 -24.041  0.00  0.00     0.105 A 
ATOM      8  C   UNL d   1      31.054  17.601 -24.277  0.00  0.00     0.016 A 
ATOM      9  C   UNL d   1      31.287  16.322 -23.261  0.00  0.00     0.004 A 
ATOM     10  O   UNL d   1      29.532  18.012 -24.750  0.00  0.00    -0.287 OA
ATOM     11  O   UNL d   1      29.997  15.453 -22.719  0.00  0.00    -0.287 OA
ATOM     12  C   UNL d   1      31.932  16.756 -23.533  0.00  0.00     0.013 A 
ATOM     13  C   UNL d   1      28.238  17.143 -24.208  0.00  0.00     0.003 A 
ATOM     14  C   UNL d   1      28.471  15.864 -23.193  0.00  0.00     0.003 A 
ATOM     15  C   UNL d   1      27.701  16.068 -23.429  0.00  0.00     0.000 A 
ATOM     16  C   UNL d   1      27.585  16.708 -23.937  0.00  0.00     0.000 A 
ENDROOT
BRANCH   7  17
ATOM     17  S   UNL d   1      32.472  17.839 -24.317  0.00  0.00     0.285 S 
ATOM     18  O   UNL d   1      32.125  17.883 -25.075  0.00  0.00    -0.198 OA
ATOM     19  O   UNL d   1      32.814  17.791 -23.559  0.00  0.00    -0.198 OA
BRANCH  17  20
ATOM     20  N   UNL d   1      33.122  18.278 -24.593  0.00  0.00    -0.158 NA
BRANCH  20  21
ATOM     21  C   UNL d   1      33.161  19.092 -24.454  0.00  0.00     0.094 A 
ATOM     22  C   UNL d   1      33.201  19.615 -25.095  0.00  0.00     0.020 A 
ATOM     23  C   UNL d   1      33.241  20.435 -24.962  0.00  0.00     0.002 A 
ATOM     24  C   UNL d   1      33.241  20.729 -24.187  0.00  0.00     0.000 A 
ATOM     25  C   UNL d   1      33.200  20.196 -23.541  0.00  0.00     0.002 A 
ATOM     26  C   UNL d   1      33.161  19.385 -23.683  0.00  0.00     0.020 A 
ENDBRANCH  20  21
ENDBRANCH  17  20
ENDBRANCH   7  17
TORSDOF 3
ENDMDL
MODEL 5
REMARK VINA RESULT:      -1.7      1.550      2.959
REMARK  3 active torsions:
REMARK  status: ('A' for Active; 'I' for Inactive)
REMARK    1  A    between atoms: C_8  and  S_1 
REMARK    2  A    between atoms: N_10  and  S_1 
REMARK    3  A    between atoms: C_17  and  N_10 
ROOT
ATOM      1  C   UNL d   1      32.495  19.022 -23.433  0.00  0.00     0.043 A 
ATOM      2  C   UNL d   1      32.508  19.251 -22.642  0.00  0.00     0.196 A 
ATOM      3  C   UNL d   1      32.965  20.315 -23.818  0.00  0.00     0.196 A 
ATOM      4  C   UNL d   1      32.723  19.554 -24.021  0.00  0.00     0.042 A 
ATOM      5  C   UNL d   1      32.749  20.014 -22.437  0.00  0.00     0.042 A 
ATOM      6  C   UNL d   1      32.978  20.546 -23.024  0.00  0.00     0.042 A 
ATOM      7  C   UNL d   1      32.241  18.032 -24.427  0.00  0.00     0.105 A 
ATOM      8  C   UNL d   1      32.254  18.262 -23.636  0.00  0.00     0.016 A 
ATOM      9  C   UNL d   1      32.711  19.326 -24.812  0.00  0.00     0.004 A 
ATOM     10  O   UNL d   1      32.279  18.719 -22.055  0.00  0.00    -0.287 OA
ATOM     11  O   UNL d   1      33.193  20.847 -24.406  0.00  0.00    -0.287 OA
ATOM     12  C   UNL d   1      32.470  18.564 -25.015  0.00  0.00     0.013 A 
ATOM     13  C   UNL d   1      32.762  20.243 -21.646  0.00  0.00     0.003 A 
ATOM     14  C   UNL d   1      33.219  21.307 -22.822  0.00  0.00     0.003 A 
ATOM     15  C   UNL d   1      33.233  21.541 -22.024  0.00  0.00     0.000 A 
ATOM     16  C   UNL d   1      33.005  21.009 -21.437  0.00  0.00     0.000 A 
ENDROOT
BRANCH   7  17
ATOM     17  S   UNL d   1      31.996  17.258 -24.633  0.00  0.00     0.285 S 
ATOM     18  O   UNL d   1      31.290  17.565 -24.957  0.00  0.00    -0.198 OA
ATOM     19  O   UNL d   1      32.701  16.957 -24.308  0.00  0.00    -0.198 OA
BRANCH  17  20
ATOM     20  N   UNL d   1      31.750  16.490 -24.837  0.00  0.00    -0.158 NA
BRANCH  20  21
ATOM     21  C   UNL d   1      31.069  16.168 -24.497  0.00  0.00     0.094 A 
ATOM     22  C   UNL d   1      31.120  15.787 -23.763  0.00  0.00     0.020 A 
ATOM     23  C   UNL d   1      30.438  15.461 -23.416  0.00  0.00     0.002 A 
ATOM     24  C   UNL d   1      29.707  15.517 -23.804  0.00  0.00     0.000 A 
ATOM     25  C   UNL d   1      29.662  15.903 -24.547  0.00  0.00     0.002 A 
ATOM     26  C   UNL d   1      30.342  16.223 -24.883  0.00  0.00     0.020 A 
ENDBRANCH  20  21
ENDBRANCH  17  20
ENDBRANCH   7  17
TORSDOF 3
ENDMDL
