MODEL 1
REMARK VINA RESULT:       0.9      0.000      0.000
REMARK  4 active torsions:
REMARK  status: ('A' for Active; 'I' for Inactive)
REMARK    1  A    between atoms: C_4  and  C_1 
REMARK    2  A    between atoms: N_5  and  C_2 
REMARK       I    between atoms: N_9  and  C_4 
REMARK       I    between atoms: C_7  and  N_5 
REMARK    3  A    between atoms: C_13  and  C_7 
REMARK    4  A    between atoms: C_11  and  N_9 
ROOT
ATOM      1  C   UNL d   1      32.345  17.817 -24.242  0.00  0.00     0.175 A 
ATOM      2  C   UNL d   1      32.672  17.959 -23.558  0.00  0.00     0.114 A 
ATOM      3  O   UNL d   1      32.299  17.053 -24.329  0.00  0.00    -0.301 OA
ATOM      4  C   UNL d   1      32.830  17.284 -23.220  0.00  0.00     0.043 A 
ATOM      5  C   UNL d   1      32.598  16.720 -23.698  0.00  0.00     0.102 A 
ATOM      6  C   UNL d   1      33.150  17.105 -22.547  0.00  0.00     0.004 A 
ATOM      7  C   UNL d   1      32.688  15.986 -23.502  0.00  0.00     0.025 A 
ATOM      8  C   UNL d   1      33.241  16.363 -22.348  0.00  0.00     0.000 A 
ATOM      9  C   UNL d   1      33.010  15.807 -22.825  0.00  0.00     0.002 A 
ENDROOT
BRANCH   1  10
ATOM     10  C   UNL d   1      32.107  18.339 -24.746  0.00  0.00     0.303 C 
ATOM     11  N   UNL d   1      30.650  18.290 -25.074  0.00  0.00    -0.206 NA
ATOM     12  O   UNL d   1      32.528  18.877 -25.096  0.00  0.00    -0.263 OA
BRANCH  11  13
ATOM     13  C   UNL d   1      30.166  17.722 -24.715  0.00  0.00     0.085 A 
ATOM     14  C   UNL d   1      30.039  16.992 -25.086  0.00  0.00     0.019 A 
ATOM     15  C   UNL d   1      29.555  16.423 -24.727  0.00  0.00     0.002 A 
ATOM     16  C   UNL d   1      29.426  15.690 -25.096  0.00  0.00     0.000 C 
ATOM     17  C   UNL d   1      29.191  16.577 -23.991  0.00  0.00     0.000 A 
ATOM     18  C   UNL d   1      29.321  17.317 -23.617  0.00  0.00     0.002 A 
ATOM     19  C   UNL d   1      28.709  16.011 -23.633  0.00  0.00     0.000 C 
ATOM     20  C   UNL d   1      29.814  17.889 -23.988  0.00  0.00     0.019 A 
ENDBRANCH  11  13
ENDBRANCH   1  10
BRANCH   2  21
ATOM     21  N   UNL d   1      32.816  18.658 -23.265  0.00  0.00    -0.204 NA
ATOM     22  C   UNL d   1      32.421  18.914 -22.583  0.00  0.00     0.302 C 
ATOM     23  O   UNL d   1      31.864  18.415 -22.209  0.00  0.00    -0.263 OA
BRANCH  22  24
ATOM     24  C   UNL d   1      32.578  19.671 -22.269  0.00  0.00     0.158 A 
ATOM     25  O   UNL d   1      32.300  20.402 -22.561  0.00  0.00    -0.300 OA
ATOM     26  C   UNL d   1      32.594  21.003 -22.078  0.00  0.00     0.123 A 
ATOM     27  C   UNL d   1      33.060  20.657 -21.478  0.00  0.00     0.029 A 
ATOM     28  C   UNL d   1      33.053  19.844 -21.591  0.00  0.00     0.032 A 
ENDBRANCH  22  24
ENDBRANCH   2  21
TORSDOF 4
ENDMDL
MODEL 2
REMARK VINA RESULT:       3.2      1.564      3.136
REMARK  4 active torsions:
REMARK  status: ('A' for Active; 'I' for Inactive)
REMARK    1  A    between atoms: C_4  and  C_1 
REMARK    2  A    between atoms: N_5  and  C_2 
REMARK       I    between atoms: N_9  and  C_4 
REMARK       I    between atoms: C_7  and  N_5 
REMARK    3  A    between atoms: C_13  and  C_7 
REMARK    4  A    between atoms: C_11  and  N_9 
ROOT
ATOM      1  C   UNL d   1      33.114  19.441 -22.709  0.00  0.00     0.175 A 
ATOM      2  C   UNL d   1      33.180  20.204 -22.802  0.00  0.00     0.114 A 
ATOM      3  O   UNL d   1      33.079  19.119 -23.408  0.00  0.00    -0.301 OA
ATOM      4  C   UNL d   1      33.187  20.357 -23.558  0.00  0.00     0.043 A 
ATOM      5  C   UNL d   1      33.124  19.683 -23.936  0.00  0.00     0.102 A 
ATOM      6  C   UNL d   1      33.241  21.012 -23.953  0.00  0.00     0.004 A 
ATOM      7  C   UNL d   1      33.116  19.669 -24.700  0.00  0.00     0.025 A 
ATOM      8  C   UNL d   1      33.233  20.997 -24.726  0.00  0.00     0.000 A 
ATOM      9  C   UNL d   1      33.170  20.327 -25.097  0.00  0.00     0.002 A 
ENDROOT
BRANCH   1  10
ATOM     10  C   UNL d   1      33.087  19.068 -22.043  0.00  0.00     0.303 C 
ATOM     11  N   UNL d   1      32.688  17.631 -22.135  0.00  0.00    -0.206 NA
ATOM     12  O   UNL d   1      33.241  19.346 -21.345  0.00  0.00    -0.263 OA
BRANCH  11  13
ATOM     13  C   UNL d   1      32.515  17.298 -22.873  0.00  0.00     0.085 A 
ATOM     14  C   UNL d   1      31.729  17.253 -23.133  0.00  0.00     0.019 A 
ATOM     15  C   UNL d   1      31.556  16.920 -23.872  0.00  0.00     0.002 A 
ATOM     16  C   UNL d   1      30.769  16.873 -24.136  0.00  0.00     0.000 C 
ATOM     17  C   UNL d   1      32.166  16.627 -24.361  0.00  0.00     0.000 A 
ATOM     18  C   UNL d   1      32.961  16.674 -24.097  0.00  0.00     0.002 A 
ATOM     19  C   UNL d   1      31.994  16.296 -25.097  0.00  0.00     0.000 C 
ATOM     20  C   UNL d   1      33.129  17.013 -23.345  0.00  0.00     0.019 A 
ENDBRANCH  11  13
ENDBRANCH   1  10
BRANCH   2  21
ATOM     21  N   UNL d   1      33.231  20.723 -22.234  0.00  0.00    -0.204 NA
ATOM     22  C   UNL d   1      32.544  21.026 -21.883  0.00  0.00     0.302 C 
ATOM     23  O   UNL d   1      31.792  20.770 -22.145  0.00  0.00    -0.263 OA
BRANCH  22  24
ATOM     24  C   UNL d   1      32.602  21.587 -21.268  0.00  0.00     0.158 A 
ATOM     25  O   UNL d   1      33.140  21.577 -20.631  0.00  0.00    -0.300 OA
ATOM     26  C   UNL d   1      32.997  22.240 -20.159  0.00  0.00     0.123 A 
ATOM     27  C   UNL d   1      32.367  22.672 -20.495  0.00  0.00     0.029 A 
ATOM     28  C   UNL d   1      32.123  22.278 -21.173  0.00  0.00     0.032 A 
ENDBRANCH  22  24
ENDBRANCH   2  21
TORSDOF 4
ENDMDL
MODEL 3
REMARK VINA RESULT:       3.8      1.975      3.979
REMARK  4 active torsions:
REMARK  status: ('A' for Active; 'I' for Inactive)
REMARK    1  A    between atoms: C_4  and  C_1 
REMARK    2  A    between atoms: N_5  and  C_2 
REMARK       I    between atoms: N_9  and  C_4 
REMARK       I    between atoms: C_7  and  N_5 
REMARK    3  A    between atoms: C_13  and  C_7 
REMARK    4  A    between atoms: C_11  and  N_9 
ROOT
ATOM      1  C   UNL d   1      33.124  20.621 -22.372  0.00  0.00     0.175 A 
ATOM      2  C   UNL d   1      33.069  21.391 -22.394  0.00  0.00     0.114 A 
ATOM      3  O   UNL d   1      33.198  20.368 -23.097  0.00  0.00    -0.301 OA
ATOM      4  C   UNL d   1      33.108  21.617 -23.130  0.00  0.00     0.043 A 
ATOM      5  C   UNL d   1      33.188  20.982 -23.568  0.00  0.00     0.102 A 
ATOM      6  C   UNL d   1      33.082  22.307 -23.461  0.00  0.00     0.004 A 
ATOM      7  C   UNL d   1      33.241  21.042 -24.328  0.00  0.00     0.025 A 
ATOM      8  C   UNL d   1      33.135  22.368 -24.230  0.00  0.00     0.000 A 
ATOM      9  C   UNL d   1      33.215  21.737 -24.660  0.00  0.00     0.002 A 
ENDROOT
BRANCH   1  10
ATOM     10  C   UNL d   1      33.109  20.184 -21.746  0.00  0.00     0.303 C 
ATOM     11  N   UNL d   1      32.784  18.745 -21.982  0.00  0.00    -0.206 NA
ATOM     12  O   UNL d   1      33.241  20.401 -21.021  0.00  0.00    -0.263 OA
BRANCH  11  13
ATOM     13  C   UNL d   1      32.636  18.477 -22.751  0.00  0.00     0.085 A 
ATOM     14  C   UNL d   1      31.888  18.586 -23.091  0.00  0.00     0.019 A 
ATOM     15  C   UNL d   1      31.739  18.319 -23.861  0.00  0.00     0.002 A 
ATOM     16  C   UNL d   1      30.990  18.426 -24.204  0.00  0.00     0.000 C 
ATOM     17  C   UNL d   1      32.337  17.938 -24.302  0.00  0.00     0.000 A 
ATOM     18  C   UNL d   1      33.094  17.828 -23.957  0.00  0.00     0.002 A 
ATOM     19  C   UNL d   1      32.190  17.671 -25.069  0.00  0.00     0.000 C 
ATOM     20  C   UNL d   1      33.237  18.103 -23.175  0.00  0.00     0.019 A 
ENDBRANCH  11  13
ENDBRANCH   1  10
BRANCH   2  21
ATOM     21  N   UNL d   1      32.989  21.852 -21.781  0.00  0.00    -0.204 NA
ATOM     22  C   UNL d   1      32.234  22.023 -21.483  0.00  0.00     0.302 C 
ATOM     23  O   UNL d   1      31.556  21.696 -21.848  0.00  0.00    -0.263 OA
BRANCH  22  24
ATOM     24  C   UNL d   1      32.150  22.523 -20.820  0.00  0.00     0.158 A 
ATOM     25  O   UNL d   1      32.276  22.318 -20.021  0.00  0.00    -0.300 OA
ATOM     26  C   UNL d   1      32.128  22.985 -19.556  0.00  0.00     0.123 A 
ATOM     27  C   UNL d   1      31.909  23.614 -20.059  0.00  0.00     0.029 A 
ATOM     28  C   UNL d   1      31.921  23.336 -20.831  0.00  0.00     0.032 A 
ENDBRANCH  22  24
ENDBRANCH   2  21
TORSDOF 4
ENDMDL
