MODEL 1
REMARK VINA RESULT:      -2.6      0.000      0.000
REMARK  2 active torsions:
REMARK  status: ('A' for Active; 'I' for Inactive)
REMARK    1  A    between atoms: C_3  and  C_1 
REMARK       I    between atoms: C_2  and  N_4 
REMARK    2  A    between atoms: N_4  and  C_9 
ROOT
ATOM      1  C   UNL d   1      29.073  15.934 -23.583  0.00  0.00     0.065 A 
ATOM      2  C   UNL d   1      29.462  16.124 -24.283  0.00  0.00     0.008 A 
ATOM      3  C   UNL d   1      29.494  15.608 -22.955  0.00  0.00     0.008 A 
ATOM      4  C   UNL d   1      30.702  15.660 -23.728  0.00  0.00     0.085 A 
ATOM      5  C   UNL d   1      30.280  15.986 -24.356  0.00  0.00     0.019 A 
ATOM      6  C   UNL d   1      30.304  15.472 -23.027  0.00  0.00     0.019 A 
ENDROOT
BRANCH   4   7
ATOM      7  N   UNL d   1      31.512  15.523 -23.796  0.00  0.00    -0.208 NA
ATOM      8  C   UNL d   1      32.044  16.147 -23.686  0.00  0.00     0.279 C 
ATOM      9  O   UNL d   1      32.854  16.009 -23.755  0.00  0.00    -0.265 OA
ATOM     10  C   UNL d   1      31.763  16.900 -23.509  0.00  0.00     0.068 C 
ENDBRANCH   4   7
BRANCH   1  11
ATOM     11  C   UNL d   1      28.258  16.071 -23.510  0.00  0.00     0.211 C 
ATOM     12  O   UNL d   1      27.724  15.456 -23.634  0.00  0.00    -0.644 OA
ATOM     13  O   UNL d   1      27.982  16.820 -23.314  0.00  0.00    -0.644 OA
ENDBRANCH   1  11
TORSDOF 2
ENDMDL
MODEL 2
REMARK VINA RESULT:      -2.4      5.638      6.713
REMARK  2 active torsions:
REMARK  status: ('A' for Active; 'I' for Inactive)
REMARK    1  A    between atoms: C_3  and  C_1 
REMARK       I    between atoms: C_2  and  N_4 
REMARK    2  A    between atoms: N_4  and  C_9 
ROOT
ATOM      1  C   UNL d   1      32.412  22.441 -21.246  0.00  0.00     0.065 A 
ATOM      2  C   UNL d   1      32.974  22.239 -21.814  0.00  0.00     0.008 A 
ATOM      3  C   UNL d   1      32.116  21.865 -20.739  0.00  0.00     0.008 A 
ATOM      4  C   UNL d   1      32.944  20.875 -21.367  0.00  0.00     0.085 A 
ATOM      5  C   UNL d   1      33.241  21.452 -21.874  0.00  0.00     0.019 A 
ATOM      6  C   UNL d   1      32.380  21.086 -20.799  0.00  0.00     0.019 A 
ENDROOT
BRANCH   4   7
ATOM      7  N   UNL d   1      33.206  20.095 -21.424  0.00  0.00    -0.208 NA
ATOM      8  C   UNL d   1      32.979  19.634 -22.072  0.00  0.00     0.279 C 
ATOM      9  O   UNL d   1      33.241  18.854 -22.128  0.00  0.00    -0.265 OA
ATOM     10  C   UNL d   1      32.494  19.953 -22.655  0.00  0.00     0.068 C 
ENDBRANCH   4   7
BRANCH   1  11
ATOM     11  C   UNL d   1      32.146  23.225 -21.186  0.00  0.00     0.211 C 
ATOM     12  O   UNL d   1      31.826  23.603 -21.843  0.00  0.00    -0.644 OA
ATOM     13  O   UNL d   1      32.202  23.624 -20.469  0.00  0.00    -0.644 OA
ENDBRANCH   1  11
TORSDOF 2
ENDMDL
MODEL 3
REMARK VINA RESULT:      -2.4      1.152      3.157
REMARK  2 active torsions:
REMARK  status: ('A' for Active; 'I' for Inactive)
REMARK    1  A    between atoms: C_3  and  C_1 
REMARK       I    between atoms: C_2  and  N_4 
REMARK    2  A    between atoms: N_4  and  C_9 
ROOT
ATOM      1  C   UNL d   1      31.092  16.845 -24.090  0.00  0.00     0.065 A 
ATOM      2  C   UNL d   1      30.490  17.066 -24.607  0.00  0.00     0.008 A 
ATOM      3  C   UNL d   1      30.983  16.207 -23.582  0.00  0.00     0.008 A 
ATOM      4  C   UNL d   1      29.663  16.004 -24.109  0.00  0.00     0.085 A 
ATOM      5  C   UNL d   1      29.773  16.643 -24.617  0.00  0.00     0.019 A 
ATOM      6  C   UNL d   1      30.272  15.788 -23.592  0.00  0.00     0.019 A 
ENDROOT
BRANCH   4   7
ATOM      7  N   UNL d   1      28.953  15.583 -24.115  0.00  0.00    -0.208 NA
ATOM      8  C   UNL d   1      28.302  15.874 -23.697  0.00  0.00     0.279 C 
ATOM      9  O   UNL d   1      27.593  15.453 -23.704  0.00  0.00    -0.265 OA
ATOM     10  C   UNL d   1      28.363  16.579 -23.278  0.00  0.00     0.068 C 
ENDBRANCH   4   7
BRANCH   1  11
ATOM     11  C   UNL d   1      31.807  17.266 -24.081  0.00  0.00     0.211 C 
ATOM     12  O   UNL d   1      32.445  17.005 -24.531  0.00  0.00    -0.644 OA
ATOM     13  O   UNL d   1      31.879  17.945 -23.622  0.00  0.00    -0.644 OA
ENDBRANCH   1  11
TORSDOF 2
ENDMDL
MODEL 4
REMARK VINA RESULT:      -2.2      1.693      3.581
REMARK  2 active torsions:
REMARK  status: ('A' for Active; 'I' for Inactive)
REMARK    1  A    between atoms: C_3  and  C_1 
REMARK       I    between atoms: C_2  and  N_4 
REMARK    2  A    between atoms: N_4  and  C_9 
ROOT
ATOM      1  C   UNL d   1      32.426  17.968 -23.628  0.00  0.00     0.065 A 
ATOM      2  C   UNL d   1      32.012  18.093 -24.329  0.00  0.00     0.008 A 
ATOM      3  C   UNL d   1      32.401  17.231 -23.263  0.00  0.00     0.008 A 
ATOM      4  C   UNL d   1      31.543  16.736 -24.302  0.00  0.00     0.085 A 
ATOM      5  C   UNL d   1      31.568  17.475 -24.667  0.00  0.00     0.019 A 
ATOM      6  C   UNL d   1      31.962  16.618 -23.598  0.00  0.00     0.019 A 
ENDROOT
BRANCH   4   7
ATOM      7  N   UNL d   1      31.106  16.121 -24.634  0.00  0.00    -0.208 NA
ATOM      8  C   UNL d   1      30.295  16.068 -24.481  0.00  0.00     0.279 C 
ATOM      9  O   UNL d   1      29.858  15.453 -24.814  0.00  0.00    -0.265 OA
ATOM     10  C   UNL d   1      29.928  16.626 -24.000  0.00  0.00     0.068 C 
ENDBRANCH   4   7
BRANCH   1  11
ATOM     11  C   UNL d   1      32.867  18.584 -23.291  0.00  0.00     0.211 C 
ATOM     12  O   UNL d   1      33.217  19.153 -23.773  0.00  0.00    -0.644 OA
ATOM     13  O   UNL d   1      32.956  18.629 -22.474  0.00  0.00    -0.644 OA
ENDBRANCH   1  11
TORSDOF 2
ENDMDL
MODEL 5
REMARK VINA RESULT:      -2.2      7.977      8.988
REMARK  2 active torsions:
REMARK  status: ('A' for Active; 'I' for Inactive)
REMARK    1  A    between atoms: C_3  and  C_1 
REMARK       I    between atoms: C_2  and  N_4 
REMARK    2  A    between atoms: N_4  and  C_9 
ROOT
ATOM      1  C   UNL d   1      32.775  23.101 -18.064  0.00  0.00     0.065 A 
ATOM      2  C   UNL d   1      33.128  22.421 -18.366  0.00  0.00     0.008 A 
ATOM      3  C   UNL d   1      32.533  23.699 -18.574  0.00  0.00     0.008 A 
ATOM      4  C   UNL d   1      32.999  22.938 -19.699  0.00  0.00     0.085 A 
ATOM      5  C   UNL d   1      33.241  22.339 -19.187  0.00  0.00     0.019 A 
ATOM      6  C   UNL d   1      32.645  23.618 -19.388  0.00  0.00     0.019 A 
ENDROOT
BRANCH   4   7
ATOM      7  N   UNL d   1      33.109  22.861 -20.512  0.00  0.00    -0.208 NA
ATOM      8  C   UNL d   1      32.576  22.410 -20.956  0.00  0.00     0.279 C 
ATOM      9  O   UNL d   1      32.687  22.334 -21.770  0.00  0.00    -0.265 OA
ATOM     10  C   UNL d   1      31.941  22.042 -20.586  0.00  0.00     0.068 C 
ENDBRANCH   4   7
BRANCH   1  11
ATOM     11  C   UNL d   1      32.662  23.182 -17.246  0.00  0.00     0.211 C 
ATOM     12  O   UNL d   1      33.190  22.830 -16.720  0.00  0.00    -0.644 OA
ATOM     13  O   UNL d   1      32.024  23.614 -16.958  0.00  0.00    -0.644 OA
ENDBRANCH   1  11
TORSDOF 2
ENDMDL
MODEL 6
REMARK VINA RESULT:      -2.1      5.372      6.740
REMARK  2 active torsions:
REMARK  status: ('A' for Active; 'I' for Inactive)
REMARK    1  A    between atoms: C_3  and  C_1 
REMARK       I    between atoms: C_2  and  N_4 
REMARK    2  A    between atoms: N_4  and  C_9 
ROOT
ATOM      1  C   UNL d   1      33.174  20.208 -21.991  0.00  0.00     0.065 A 
ATOM      2  C   UNL d   1      33.222  20.054 -21.183  0.00  0.00     0.008 A 
ATOM      3  C   UNL d   1      33.144  20.985 -22.259  0.00  0.00     0.008 A 
ATOM      4  C   UNL d   1      33.210  21.463 -20.907  0.00  0.00     0.085 A 
ATOM      5  C   UNL d   1      33.240  20.684 -20.639  0.00  0.00     0.019 A 
ATOM      6  C   UNL d   1      33.162  21.610 -21.720  0.00  0.00     0.019 A 
ENDROOT
BRANCH   4   7
ATOM      7  N   UNL d   1      33.228  22.090 -20.371  0.00  0.00    -0.208 NA
ATOM      8  C   UNL d   1      32.536  22.517 -20.219  0.00  0.00     0.279 C 
ATOM      9  O   UNL d   1      32.555  23.143 -19.683  0.00  0.00    -0.265 OA
ATOM     10  C   UNL d   1      31.836  22.316 -20.601  0.00  0.00     0.068 C 
ENDBRANCH   4   7
BRANCH   1  11
ATOM     11  C   UNL d   1      33.156  19.580 -22.533  0.00  0.00     0.211 C 
ATOM     12  O   UNL d   1      33.072  18.806 -22.265  0.00  0.00    -0.644 OA
ATOM     13  O   UNL d   1      33.222  19.730 -23.339  0.00  0.00    -0.644 OA
ENDBRANCH   1  11
TORSDOF 2
ENDMDL
MODEL 7
REMARK VINA RESULT:      -2.1      1.996      2.586
REMARK  2 active torsions:
REMARK  status: ('A' for Active; 'I' for Inactive)
REMARK    1  A    between atoms: C_3  and  C_1 
REMARK       I    between atoms: C_2  and  N_4 
REMARK    2  A    between atoms: N_4  and  C_9 
ROOT
ATOM      1  C   UNL d   1      31.017  16.503 -23.908  0.00  0.00     0.065 A 
ATOM      2  C   UNL d   1      30.672  17.206 -24.162  0.00  0.00     0.008 A 
ATOM      3  C   UNL d   1      31.834  16.452 -23.829  0.00  0.00     0.008 A 
ATOM      4  C   UNL d   1      31.969  17.813 -24.262  0.00  0.00     0.085 A 
ATOM      5  C   UNL d   1      31.151  17.865 -24.340  0.00  0.00     0.019 A 
ATOM      6  C   UNL d   1      32.308  17.104 -24.005  0.00  0.00     0.019 A 
ENDROOT
BRANCH   4   7
ATOM      7  N   UNL d   1      32.446  18.463 -24.437  0.00  0.00    -0.208 NA
ATOM      8  C   UNL d   1      32.760  18.918 -23.821  0.00  0.00     0.279 C 
ATOM      9  O   UNL d   1      33.237  19.567 -23.997  0.00  0.00    -0.265 OA
ATOM     10  C   UNL d   1      32.595  18.722 -23.039  0.00  0.00     0.068 C 
ENDBRANCH   4   7
BRANCH   1  11
ATOM     11  C   UNL d   1      30.540  15.847 -23.731  0.00  0.00     0.211 C 
ATOM     12  O   UNL d   1      30.139  15.455 -24.333  0.00  0.00    -0.644 OA
ATOM     13  O   UNL d   1      30.468  15.588 -22.953  0.00  0.00    -0.644 OA
ENDBRANCH   1  11
TORSDOF 2
ENDMDL
MODEL 8
REMARK VINA RESULT:      -1.8      7.060      7.641
REMARK  2 active torsions:
REMARK  status: ('A' for Active; 'I' for Inactive)
REMARK    1  A    between atoms: C_3  and  C_1 
REMARK       I    between atoms: C_2  and  N_4 
REMARK    2  A    between atoms: N_4  and  C_9 
ROOT
ATOM      1  C   UNL d   1      32.484  22.356 -21.334  0.00  0.00     0.065 A 
ATOM      2  C   UNL d   1      32.105  23.072 -21.485  0.00  0.00     0.008 A 
ATOM      3  C   UNL d   1      33.048  22.072 -21.861  0.00  0.00     0.008 A 
ATOM      4  C   UNL d   1      32.859  23.223 -22.697  0.00  0.00     0.085 A 
ATOM      5  C   UNL d   1      32.293  23.507 -22.169  0.00  0.00     0.019 A 
ATOM      6  C   UNL d   1      33.235  22.504 -22.539  0.00  0.00     0.019 A 
ENDROOT
BRANCH   4   7
ATOM      7  N   UNL d   1      33.048  23.651 -23.376  0.00  0.00    -0.208 NA
ATOM      8  C   UNL d   1      33.052  23.272 -24.111  0.00  0.00     0.279 C 
ATOM      9  O   UNL d   1      33.241  23.701 -24.789  0.00  0.00    -0.265 OA
ATOM     10  C   UNL d   1      32.867  22.472 -24.162  0.00  0.00     0.068 C 
ENDBRANCH   4   7
BRANCH   1  11
ATOM     11  C   UNL d   1      32.296  21.922 -20.652  0.00  0.00     0.211 C 
ATOM     12  O   UNL d   1      32.710  22.055 -19.953  0.00  0.00    -0.644 OA
ATOM     13  O   UNL d   1      31.696  21.360 -20.674  0.00  0.00    -0.644 OA
ENDBRANCH   1  11
TORSDOF 2
ENDMDL
