MODEL 1
REMARK VINA RESULT:     -10.0      0.000      0.000
REMARK  4 active torsions:
REMARK  status: ('A' for Active; 'I' for Inactive)
REMARK    1  A    between atoms: C_8  and  N_1 
REMARK    2  A    between atoms: C_7  and  C_2 
REMARK    3  A    between atoms: C_9  and  C_7 
REMARK    4  A    between atoms: C_17  and  C_8 
ROOT
ATOM      1  N   UNL d   1      53.108  33.889  53.624  0.00  0.00    -0.224 N 
ATOM      2  C   UNL d   1      53.707  32.619  53.868  0.00  0.00     0.117 A 
ATOM      3  C   UNL d   1      53.391  33.171  53.338  0.00  0.00     0.273 A 
ATOM      4  C   UNL d   1      53.138  34.056  54.419  0.00  0.00     0.359 A 
ATOM      5  N   UNL d   1      53.451  33.506  54.935  0.00  0.00    -0.153 NA
ATOM      6  C   UNL d   1      53.736  32.786  54.662  0.00  0.00     0.288 A 
ATOM      7  O   UNL d   1      52.857  34.768  54.707  0.00  0.00    -0.244 OA
ATOM      8  O   UNL d   1      53.361  33.004  52.541  0.00  0.00    -0.266 OA
ATOM      9  O   UNL d   1      54.048  32.243  55.192  0.00  0.00    -0.265 OA
ENDROOT
BRANCH   1  10
ATOM     10  C   UNL d   1      52.793  34.438  53.095  0.00  0.00     0.087 C 
BRANCH  10  11
ATOM     11  C   UNL d   1      51.997  34.383  52.878  0.00  0.00     0.018 A 
ATOM     12  C   UNL d   1      51.414  34.493  53.432  0.00  0.00     0.002 A 
ATOM     13  C   UNL d   1      50.618  34.437  53.217  0.00  0.00     0.000 A 
ATOM     14  C   UNL d   1      50.422  34.269  52.431  0.00  0.00     0.000 A 
ATOM     15  C   UNL d   1      51.005  34.159  51.877  0.00  0.00     0.000 A 
ATOM     16  C   UNL d   1      51.801  34.215  52.094  0.00  0.00     0.002 A 
ENDBRANCH  10  11
ENDBRANCH   1  10
BRANCH   2  17
ATOM     17  C   UNL d   1      53.996  31.889  53.584  0.00  0.00     0.034 C 
BRANCH  17  18
ATOM     18  C   UNL d   1      53.489  31.256  53.499  0.00  0.00     0.100 A 
ATOM     19  O   UNL d   1      52.667  31.191  53.520  0.00  0.00    -0.305 OA
ATOM     20  C   UNL d   1      52.476  30.419  53.400  0.00  0.00     0.123 A 
ATOM     21  C   UNL d   1      53.151  29.984  53.302  0.00  0.00     0.029 A 
ATOM     22  C   UNL d   1      53.786  30.499  53.362  0.00  0.00     0.027 A 
ENDBRANCH  17  18
ENDBRANCH   2  17
TORSDOF 4
ENDMDL
MODEL 2
REMARK VINA RESULT:     -10.0      0.746      3.321
REMARK  4 active torsions:
REMARK  status: ('A' for Active; 'I' for Inactive)
REMARK    1  A    between atoms: C_8  and  N_1 
REMARK    2  A    between atoms: C_7  and  C_2 
REMARK    3  A    between atoms: C_9  and  C_7 
REMARK    4  A    between atoms: C_17  and  C_8 
ROOT
ATOM      1  N   UNL d   1      53.729  32.584  53.800  0.00  0.00    -0.224 N 
ATOM      2  C   UNL d   1      52.958  33.767  53.609  0.00  0.00     0.117 A 
ATOM      3  C   UNL d   1      53.289  33.072  53.305  0.00  0.00     0.273 A 
ATOM      4  C   UNL d   1      53.838  32.781  54.581  0.00  0.00     0.359 A 
ATOM      5  N   UNL d   1      53.508  33.468  54.874  0.00  0.00    -0.153 NA
ATOM      6  C   UNL d   1      53.067  33.964  54.390  0.00  0.00     0.288 A 
ATOM      7  O   UNL d   1      54.274  32.299  55.077  0.00  0.00    -0.244 OA
ATOM      8  O   UNL d   1      53.180  32.875  52.521  0.00  0.00    -0.266 OA
ATOM      9  O   UNL d   1      52.741  34.651  54.697  0.00  0.00    -0.265 OA
ENDROOT
BRANCH   1  10
ATOM     10  C   UNL d   1      54.059  31.892  53.495  0.00  0.00     0.087 C 
BRANCH  10  11
ATOM     11  C   UNL d   1      53.618  31.193  53.509  0.00  0.00     0.018 A 
ATOM     12  C   UNL d   1      53.608  30.728  54.175  0.00  0.00     0.002 A 
ATOM     13  C   UNL d   1      53.168  30.029  54.191  0.00  0.00     0.000 A 
ATOM     14  C   UNL d   1      52.737  29.807  53.520  0.00  0.00     0.000 A 
ATOM     15  C   UNL d   1      52.746  30.272  52.854  0.00  0.00     0.000 A 
ATOM     16  C   UNL d   1      53.187  30.971  52.840  0.00  0.00     0.002 A 
ENDBRANCH  10  11
ENDBRANCH   1  10
BRANCH   2  17
ATOM     17  C   UNL d   1      52.510  34.267  53.111  0.00  0.00     0.034 C 
BRANCH  17  18
ATOM     18  C   UNL d   1      51.712  34.135  53.014  0.00  0.00     0.100 A 
ATOM     19  O   UNL d   1      51.145  33.766  53.485  0.00  0.00    -0.305 OA
ATOM     20  C   UNL d   1      50.440  33.802  53.099  0.00  0.00     0.123 A 
ATOM     21  C   UNL d   1      50.536  34.184  52.392  0.00  0.00     0.029 A 
ATOM     22  C   UNL d   1      51.327  34.394  52.332  0.00  0.00     0.027 A 
ENDBRANCH  17  18
ENDBRANCH   2  17
TORSDOF 4
ENDMDL
MODEL 3
REMARK VINA RESULT:      -9.3      1.766      2.842
REMARK  4 active torsions:
REMARK  status: ('A' for Active; 'I' for Inactive)
REMARK    1  A    between atoms: C_8  and  N_1 
REMARK    2  A    between atoms: C_7  and  C_2 
REMARK    3  A    between atoms: C_9  and  C_7 
REMARK    4  A    between atoms: C_17  and  C_8 
ROOT
ATOM      1  N   UNL d   1      53.393  32.157  53.179  0.00  0.00    -0.224 N 
ATOM      2  C   UNL d   1      53.143  30.755  53.243  0.00  0.00     0.117 A 
ATOM      3  C   UNL d   1      53.671  31.391  53.297  0.00  0.00     0.273 A 
ATOM      4  C   UNL d   1      52.609  32.288  53.011  0.00  0.00     0.359 A 
ATOM      5  N   UNL d   1      52.095  31.656  52.960  0.00  0.00    -0.153 NA
ATOM      6  C   UNL d   1      52.360  30.887  53.075  0.00  0.00     0.288 A 
ATOM      7  O   UNL d   1      52.329  33.048  52.893  0.00  0.00    -0.244 OA
ATOM      8  O   UNL d   1      54.457  31.258  53.466  0.00  0.00    -0.266 OA
ATOM      9  O   UNL d   1      51.833  30.261  53.020  0.00  0.00    -0.265 OA
ENDROOT
BRANCH   1  10
ATOM     10  C   UNL d   1      53.920  32.789  53.234  0.00  0.00     0.087 C 
BRANCH  10  11
ATOM     11  C   UNL d   1      54.050  33.147  53.968  0.00  0.00     0.018 A 
ATOM     12  C   UNL d   1      53.458  33.571  54.327  0.00  0.00     0.002 A 
ATOM     13  C   UNL d   1      53.586  33.929  55.061  0.00  0.00     0.000 A 
ATOM     14  C   UNL d   1      54.325  33.850  55.425  0.00  0.00     0.000 A 
ATOM     15  C   UNL d   1      54.916  33.426  55.066  0.00  0.00     0.000 A 
ATOM     16  C   UNL d   1      54.787  33.068  54.332  0.00  0.00     0.002 A 
ENDBRANCH  10  11
ENDBRANCH   1  10
BRANCH   2  17
ATOM     17  C   UNL d   1      53.419  29.975  53.362  0.00  0.00     0.034 C 
BRANCH  17  18
ATOM     18  C   UNL d   1      53.357  29.629  54.097  0.00  0.00     0.100 A 
ATOM     19  O   UNL d   1      53.088  29.908  54.825  0.00  0.00    -0.305 OA
ATOM     20  C   UNL d   1      53.158  29.311  55.361  0.00  0.00     0.123 A 
ATOM     21  C   UNL d   1      53.464  28.656  54.999  0.00  0.00     0.029 A 
ATOM     22  C   UNL d   1      53.591  28.846  54.211  0.00  0.00     0.027 A 
ENDBRANCH  17  18
ENDBRANCH   2  17
TORSDOF 4
ENDMDL
MODEL 4
REMARK VINA RESULT:      -8.9      1.386      3.469
REMARK  4 active torsions:
REMARK  status: ('A' for Active; 'I' for Inactive)
REMARK    1  A    between atoms: C_8  and  N_1 
REMARK    2  A    between atoms: C_7  and  C_2 
REMARK    3  A    between atoms: C_9  and  C_7 
REMARK    4  A    between atoms: C_17  and  C_8 
ROOT
ATOM      1  N   UNL d   1      52.702  32.230  52.999  0.00  0.00    -0.224 N 
ATOM      2  C   UNL d   1      53.232  33.396  53.622  0.00  0.00     0.117 A 
ATOM      3  C   UNL d   1      53.353  32.683  53.221  0.00  0.00     0.273 A 
ATOM      4  C   UNL d   1      51.949  32.479  53.171  0.00  0.00     0.359 A 
ATOM      5  N   UNL d   1      51.838  33.185  53.568  0.00  0.00    -0.153 NA
ATOM      6  C   UNL d   1      52.479  33.646  53.795  0.00  0.00     0.288 A 
ATOM      7  O   UNL d   1      51.300  32.032  52.953  0.00  0.00    -0.244 OA
ATOM      8  O   UNL d   1      54.109  32.432  53.048  0.00  0.00    -0.266 OA
ATOM      9  O   UNL d   1      52.353  34.352  54.192  0.00  0.00    -0.265 OA
ENDROOT
BRANCH   1  10
ATOM     10  C   UNL d   1      52.824  31.518  52.599  0.00  0.00     0.087 C 
BRANCH  10  11
ATOM     11  C   UNL d   1      52.922  30.821  53.033  0.00  0.00     0.018 A 
ATOM     12  C   UNL d   1      52.276  30.383  53.255  0.00  0.00     0.002 A 
ATOM     13  C   UNL d   1      52.372  29.686  53.689  0.00  0.00     0.000 A 
ATOM     14  C   UNL d   1      53.135  29.439  53.893  0.00  0.00     0.000 A 
ATOM     15  C   UNL d   1      53.781  29.877  53.671  0.00  0.00     0.000 A 
ATOM     16  C   UNL d   1      53.683  30.574  53.237  0.00  0.00     0.002 A 
ENDBRANCH  10  11
ENDBRANCH   1  10
BRANCH   2  17
ATOM     17  C   UNL d   1      53.888  33.861  53.851  0.00  0.00     0.034 C 
BRANCH  17  18
ATOM     18  C   UNL d   1      54.256  33.721  54.564  0.00  0.00     0.100 A 
ATOM     19  O   UNL d   1      53.997  33.387  55.271  0.00  0.00    -0.305 OA
ATOM     20  C   UNL d   1      54.613  33.395  55.790  0.00  0.00     0.123 A 
ATOM     21  C   UNL d   1      55.261  33.724  55.437  0.00  0.00     0.029 A 
ATOM     22  C   UNL d   1      55.047  33.931  54.672  0.00  0.00     0.027 A 
ENDBRANCH  17  18
ENDBRANCH   2  17
TORSDOF 4
ENDMDL
MODEL 5
REMARK VINA RESULT:      -8.6      1.222      2.353
REMARK  4 active torsions:
REMARK  status: ('A' for Active; 'I' for Inactive)
REMARK    1  A    between atoms: C_8  and  N_1 
REMARK    2  A    between atoms: C_7  and  C_2 
REMARK    3  A    between atoms: C_9  and  C_7 
REMARK    4  A    between atoms: C_17  and  C_8 
ROOT
ATOM      1  N   UNL d   1      52.759  32.524  52.786  0.00  0.00    -0.224 N 
ATOM      2  C   UNL d   1      53.944  32.340  53.555  0.00  0.00     0.117 A 
ATOM      3  C   UNL d   1      53.461  32.827  53.091  0.00  0.00     0.273 A 
ATOM      4  C   UNL d   1      52.542  31.756  52.937  0.00  0.00     0.359 A 
ATOM      5  N   UNL d   1      53.024  31.283  53.397  0.00  0.00    -0.153 NA
ATOM      6  C   UNL d   1      53.727  31.573  53.707  0.00  0.00     0.288 A 
ATOM      7  O   UNL d   1      51.845  31.452  52.636  0.00  0.00    -0.244 OA
ATOM      8  O   UNL d   1      53.679  33.597  52.939  0.00  0.00    -0.266 OA
ATOM      9  O   UNL d   1      54.201  31.087  54.166  0.00  0.00    -0.265 OA
ENDROOT
BRANCH   1  10
ATOM     10  C   UNL d   1      52.279  33.010  52.323  0.00  0.00     0.087 C 
BRANCH  10  11
ATOM     11  C   UNL d   1      51.720  33.496  52.691  0.00  0.00     0.018 A 
ATOM     12  C   UNL d   1      51.073  33.170  53.059  0.00  0.00     0.002 A 
ATOM     13  C   UNL d   1      50.514  33.655  53.427  0.00  0.00     0.000 A 
ATOM     14  C   UNL d   1      50.620  34.475  53.416  0.00  0.00     0.000 A 
ATOM     15  C   UNL d   1      51.266  34.801  53.048  0.00  0.00     0.000 A 
ATOM     16  C   UNL d   1      51.825  34.315  52.680  0.00  0.00     0.002 A 
ENDBRANCH  10  11
ENDBRANCH   1  10
BRANCH   2  17
ATOM     17  C   UNL d   1      54.658  32.641  53.869  0.00  0.00     0.034 C 
BRANCH  17  18
ATOM     18  C   UNL d   1      54.656  33.028  54.586  0.00  0.00     0.100 A 
ATOM     19  O   UNL d   1      54.195  32.947  55.264  0.00  0.00    -0.305 OA
ATOM     20  C   UNL d   1      54.449  33.487  55.804  0.00  0.00     0.123 A 
ATOM     21  C   UNL d   1      55.061  33.914  55.493  0.00  0.00     0.029 A 
ATOM     22  C   UNL d   1      55.196  33.635  54.734  0.00  0.00     0.027 A 
ENDBRANCH  17  18
ENDBRANCH   2  17
TORSDOF 4
ENDMDL
MODEL 6
REMARK VINA RESULT:      -8.5      1.355      3.539
REMARK  4 active torsions:
REMARK  status: ('A' for Active; 'I' for Inactive)
REMARK    1  A    between atoms: C_8  and  N_1 
REMARK    2  A    between atoms: C_7  and  C_2 
REMARK    3  A    between atoms: C_9  and  C_7 
REMARK    4  A    between atoms: C_17  and  C_8 
ROOT
ATOM      1  N   UNL d   1      53.764  32.292  53.401  0.00  0.00    -0.224 N 
ATOM      2  C   UNL d   1      52.503  32.572  52.798  0.00  0.00     0.117 A 
ATOM      3  C   UNL d   1      53.265  32.817  53.009  0.00  0.00     0.273 A 
ATOM      4  C   UNL d   1      53.512  31.541  53.579  0.00  0.00     0.359 A 
ATOM      5  N   UNL d   1      52.759  31.306  53.367  0.00  0.00    -0.153 NA
ATOM      6  C   UNL d   1      52.252  31.820  52.976  0.00  0.00     0.288 A 
ATOM      7  O   UNL d   1      54.004  31.016  53.968  0.00  0.00    -0.244 OA
ATOM      8  O   UNL d   1      53.518  33.571  52.830  0.00  0.00    -0.266 OA
ATOM      9  O   UNL d   1      51.498  31.572  52.769  0.00  0.00    -0.265 OA
ENDROOT
BRANCH   1  10
ATOM     10  C   UNL d   1      54.523  32.538  53.611  0.00  0.00     0.087 C 
BRANCH  10  11
ATOM     11  C   UNL d   1      54.635  32.945  54.322  0.00  0.00     0.018 A 
ATOM     12  C   UNL d   1      54.267  32.693  55.000  0.00  0.00     0.002 A 
ATOM     13  C   UNL d   1      54.378  33.099  55.711  0.00  0.00     0.000 A 
ATOM     14  C   UNL d   1      54.869  33.764  55.725  0.00  0.00     0.000 A 
ATOM     15  C   UNL d   1      55.238  34.016  55.047  0.00  0.00     0.000 A 
ATOM     16  C   UNL d   1      55.126  33.609  54.336  0.00  0.00     0.002 A 
ENDBRANCH  10  11
ENDBRANCH   1  10
BRANCH   2  17
ATOM     17  C   UNL d   1      51.992  33.099  52.400  0.00  0.00     0.034 C 
BRANCH  17  18
ATOM     18  C   UNL d   1      51.461  33.548  52.824  0.00  0.00     0.100 A 
ATOM     19  O   UNL d   1      51.233  33.545  53.617  0.00  0.00    -0.305 OA
ATOM     20  C   UNL d   1      50.680  34.121  53.718  0.00  0.00     0.123 A 
ATOM     21  C   UNL d   1      50.544  34.494  53.015  0.00  0.00     0.029 A 
ATOM     22  C   UNL d   1      51.027  34.144  52.452  0.00  0.00     0.027 A 
ENDBRANCH  17  18
ENDBRANCH   2  17
TORSDOF 4
ENDMDL
