MODEL 1
REMARK VINA RESULT:      21.2      0.000      0.000
REMARK  3 active torsions:
REMARK  status: ('A' for Active; 'I' for Inactive)
REMARK    1  A    between atoms: C_2  and  S_1 
REMARK    2  A    between atoms: N_3  and  S_1 
REMARK    3  A    between atoms: O_17  and  C_7 
ROOT
ATOM      1  S   UNL d   1     -51.535  24.946  33.456  0.00  0.00     0.273 S 
ATOM      2  O   UNL d   1     -51.063  24.268  33.306  0.00  0.00    -0.200 OA
ATOM      3  O   UNL d   1     -51.998  25.621  33.605  0.00  0.00    -0.200 OA
ENDROOT
BRANCH   1   4
ATOM      4  C   UNL d   1     -50.844  25.437  33.414  0.00  0.00     0.127 A 
ATOM      5  C   UNL d   1     -50.109  25.080  33.413  0.00  0.00     0.026 A 
ATOM      6  C   UNL d   1     -49.422  25.539  33.373  0.00  0.00     0.059 A 
ATOM      7 CL   UNL d   1     -48.677  25.170  33.372  0.00  0.00    -0.082 Cl
ATOM      8  C   UNL d   1     -49.476  26.372  33.333  0.00  0.00     0.013 A 
ATOM      9  C   UNL d   1     -50.240  26.725  33.335  0.00  0.00     0.026 A 
ATOM     10  C   UNL d   1     -50.916  26.254  33.375  0.00  0.00     0.106 A 
BRANCH  10  11
ATOM     11  O   UNL d   1     -51.662  26.623  33.376  0.00  0.00    -0.327 OA
ATOM     12  C   UNL d   1     -51.715  27.445  33.307  0.00  0.00     0.181 C 
ENDBRANCH  10  11
ENDBRANCH   1   4
BRANCH   1  13
ATOM     13  N   UNL d   1     -52.213  24.478  33.499  0.00  0.00    -0.226 N 
ATOM     14  C   UNL d   1     -52.963  24.806  33.450  0.00  0.00     0.111 A 
ATOM     15  C   UNL d   1     -53.641  24.337  33.493  0.00  0.00     0.100 A 
ATOM     16  N   UNL d   1     -53.572  23.522  33.587  0.00  0.00    -0.299 N 
ATOM     17  C   UNL d   1     -52.821  23.189  33.637  0.00  0.00     0.100 A 
ATOM     18  C   UNL d   1     -54.093  23.194  33.616  0.00  0.00     0.100 C 
ATOM     19  C   UNL d   1     -52.146  23.660  33.593  0.00  0.00     0.111 A 
ENDBRANCH   1  13
TORSDOF 3
ENDMDL
