MODEL 1
REMARK VINA RESULT:      -5.3      0.000      0.000
REMARK  5 active torsions:
REMARK  status: ('A' for Active; 'I' for Inactive)
REMARK    1  A    between atoms: C_10  and  C_3 
REMARK    2  A    between atoms: N_12  and  C_4 
REMARK    3  A    between atoms: N_11  and  C_15 
REMARK    4  A    between atoms: C_14  and  N_12 
REMARK    5  A    between atoms: C_15  and  C_14 
ROOT
ATOM      1  C   UNL d   1     -41.509-122.513 -53.033  0.00  0.00     0.167 A 
ATOM      2  N   UNL d   1     -41.386-123.073 -52.435  0.00  0.00    -0.195 N 
ATOM      3  C   UNL d   1     -41.628-122.921 -53.731  0.00  0.00     0.057 A 
ATOM      4  C   UNL d   1     -41.251-122.824 -51.665  0.00  0.00     0.167 A 
ATOM      5  N   UNL d   1     -41.433-123.813 -52.777  0.00  0.00    -0.161 NA
ATOM      6  N   UNL d   1     -41.493-121.713 -52.852  0.00  0.00    -0.227 NA
ATOM      7  C   UNL d   1     -41.236-122.015 -51.488  0.00  0.00     0.058 A 
ATOM      8  C   UNL d   1     -41.580-123.728 -53.566  0.00  0.00     0.124 A 
ATOM      9  C   UNL d   1     -41.356-121.467 -52.074  0.00  0.00     0.086 A 
ATOM     10  C   UNL d   1     -41.338-120.660 -51.880  0.00  0.00     0.021 C 
ENDROOT
BRANCH   4  11
ATOM     11  N   UNL d   1     -41.128-123.383 -51.067  0.00  0.00    -0.224 NA
BRANCH  11  12
ATOM     12  C   UNL d   1     -41.330-123.203 -50.293  0.00  0.00     0.120 C 
BRANCH  12  13
ATOM     13  C   UNL d   1     -41.448-123.813 -49.745  0.00  0.00     0.101 C 
BRANCH  13  14
ATOM     14  N   UNL d   1     -41.685-123.641 -48.974  0.00  0.00    -0.298 N 
ATOM     15  C   UNL d   1     -42.483-123.496 -48.820  0.00  0.00     0.107 A 
ATOM     16  C   UNL d   1     -42.727-123.323 -48.043  0.00  0.00     0.142 A 
ATOM     17  O   UNL d   1     -42.177-123.296 -47.437  0.00  0.00    -0.300 OA
ATOM     18  C   UNL d   1     -41.373-123.443 -47.597  0.00  0.00     0.142 A 
ATOM     19  C   UNL d   1     -41.132-123.615 -48.364  0.00  0.00     0.107 A 
ENDBRANCH  13  14
ENDBRANCH  12  13
ENDBRANCH  11  12
ENDBRANCH   4  11
BRANCH   3  20
ATOM     20  C   UNL d   1     -41.767-122.512 -54.436  0.00  0.00     0.004 A 
ATOM     21  C   UNL d   1     -41.149-122.419 -54.984  0.00  0.00     0.000 A 
ATOM     22  C   UNL d   1     -41.279-122.017 -55.682  0.00  0.00     0.000 A 
ATOM     23  C   UNL d   1     -42.030-121.698 -55.847  0.00  0.00     0.000 A 
ATOM     24  C   UNL d   1     -42.639-121.789 -55.308  0.00  0.00     0.000 A 
ATOM     25  C   UNL d   1     -42.505-122.196 -54.603  0.00  0.00     0.000 A 
ENDBRANCH   3  20
TORSDOF 5
ENDMDL
MODEL 2
REMARK VINA RESULT:      -4.0      1.928      5.257
REMARK  5 active torsions:
REMARK  status: ('A' for Active; 'I' for Inactive)
REMARK    1  A    between atoms: C_10  and  C_3 
REMARK    2  A    between atoms: N_12  and  C_4 
REMARK    3  A    between atoms: N_11  and  C_15 
REMARK    4  A    between atoms: C_14  and  N_12 
REMARK    5  A    between atoms: C_15  and  C_14 
ROOT
ATOM      1  C   UNL d   1     -41.674-122.522 -50.528  0.00  0.00     0.167 A 
ATOM      2  N   UNL d   1     -41.544-122.850 -51.278  0.00  0.00    -0.195 N 
ATOM      3  C   UNL d   1     -41.934-123.123 -50.039  0.00  0.00     0.057 A 
ATOM      4  C   UNL d   1     -41.277-122.372 -51.890  0.00  0.00     0.167 A 
ATOM      5  N   UNL d   1     -41.727-123.645 -51.235  0.00  0.00    -0.161 NA
ATOM      6  N   UNL d   1     -41.535-121.724 -50.402  0.00  0.00    -0.227 NA
ATOM      7  C   UNL d   1     -41.139-121.567 -51.757  0.00  0.00     0.058 A 
ATOM      8  C   UNL d   1     -41.965-123.817 -50.484  0.00  0.00     0.124 A 
ATOM      9  C   UNL d   1     -41.266-121.247 -51.023  0.00  0.00     0.086 A 
ATOM     10  C   UNL d   1     -41.123-120.437 -50.906  0.00  0.00     0.021 C 
ENDROOT
BRANCH   4  11
ATOM     11  N   UNL d   1     -41.147-122.699 -52.639  0.00  0.00    -0.224 NA
BRANCH  11  12
ATOM     12  C   UNL d   1     -41.434-122.318 -53.306  0.00  0.00     0.120 C 
BRANCH  12  13
ATOM     13  C   UNL d   1     -41.375-122.683 -54.047  0.00  0.00     0.101 C 
BRANCH  13  14
ATOM     14  N   UNL d   1     -41.807-122.396 -54.689  0.00  0.00    -0.298 N 
ATOM     15  C   UNL d   1     -41.417-121.975 -55.282  0.00  0.00     0.107 A 
ATOM     16  C   UNL d   1     -41.849-121.684 -55.932  0.00  0.00     0.142 A 
ATOM     17  O   UNL d   1     -42.656-121.815 -55.980  0.00  0.00    -0.300 OA
ATOM     18  C   UNL d   1     -43.046-122.241 -55.379  0.00  0.00     0.142 A 
ATOM     19  C   UNL d   1     -42.619-122.528 -54.737  0.00  0.00     0.107 A 
ENDBRANCH  13  14
ENDBRANCH  12  13
ENDBRANCH  11  12
ENDBRANCH   4  11
BRANCH   3  20
ATOM     20  C   UNL d   1     -42.113-122.970 -49.247  0.00  0.00     0.004 A 
ATOM     21  C   UNL d   1     -42.899-122.809 -49.028  0.00  0.00     0.000 A 
ATOM     22  C   UNL d   1     -43.082-122.657 -48.248  0.00  0.00     0.000 A 
ATOM     23  C   UNL d   1     -42.484-122.662 -47.669  0.00  0.00     0.000 A 
ATOM     24  C   UNL d   1     -41.711-122.820 -47.883  0.00  0.00     0.000 A 
ATOM     25  C   UNL d   1     -41.527-122.974 -48.673  0.00  0.00     0.000 A 
ENDBRANCH   3  20
TORSDOF 5
ENDMDL
