MODEL 1
REMARK VINA RESULT:      -2.1      0.000      0.000
REMARK  6 active torsions:
REMARK  status: ('A' for Active; 'I' for Inactive)
REMARK    1  A    between atoms: N_6  and  S_1 
REMARK    2  A    between atoms: C_7  and  S_1 
REMARK       I    between atoms: C_2  and  N_4 
REMARK    3  A    between atoms: C_8  and  C_2 
REMARK    4  A    between atoms: C_3  and  C_12 
REMARK       I    between atoms: N_5  and  C_3 
REMARK    5  A    between atoms: C_23  and  N_6 
REMARK    6  A    between atoms: O_29  and  C_26 
ROOT
ATOM      1  C   UNL d   1      32.511  18.039 -23.661  0.00  0.00     0.057 A 
ATOM      2  C   UNL d   1      32.997  18.967 -22.389  0.00  0.00     0.094 A 
ATOM      3  C   UNL d   1      32.551  17.718 -22.899  0.00  0.00     0.006 A 
ATOM      4  C   UNL d   1      32.715  18.826 -23.785  0.00  0.00     0.006 A 
ATOM      5  C   UNL d   1      32.796  18.190 -22.262  0.00  0.00     0.020 A 
ATOM      6  C   UNL d   1      32.958  19.291 -23.147  0.00  0.00     0.020 A 
ENDROOT
BRANCH   1   7
ATOM      7  C   UNL d   1      32.265  17.568 -24.303  0.00  0.00     0.265 C 
ATOM      8  N   UNL d   1      31.485  17.287 -24.345  0.00  0.00    -0.269 N 
ATOM      9  C   UNL d   1      31.243  16.820 -24.981  0.00  0.00     0.102 A 
ATOM     10  C   UNL d   1      30.948  17.476 -23.747  0.00  0.00     0.102 A 
ATOM     11  C   UNL d   1      30.467  16.544 -25.018  0.00  0.00     0.102 A 
ATOM     12  N   UNL d   1      29.940  16.739 -24.415  0.00  0.00    -0.267 N 
ATOM     13  C   UNL d   1      29.165  16.466 -24.448  0.00  0.00     0.288 C 
ATOM     14  C   UNL d   1      30.177  17.202 -23.783  0.00  0.00     0.102 A 
ATOM     15  O   UNL d   1      28.922  15.996 -25.087  0.00  0.00    -0.264 OA
ATOM     16  O   UNL d   1      32.805  17.378 -24.903  0.00  0.00    -0.267 OA
BRANCH  13  17
ATOM     17  C   UNL d   1      28.635  16.654 -23.855  0.00  0.00     0.156 A 
ATOM     18  O   UNL d   1      28.423  17.418 -23.607  0.00  0.00    -0.300 OA
ATOM     19  C   UNL d   1      27.876  17.342 -23.000  0.00  0.00     0.123 A 
ATOM     20  C   UNL d   1      27.741  16.540 -22.862  0.00  0.00     0.029 A 
ATOM     21  C   UNL d   1      28.210  16.115 -23.390  0.00  0.00     0.032 A 
ENDBRANCH  13  17
ENDBRANCH   1   7
BRANCH   2  22
ATOM     22  N   UNL d   1      33.241  19.435 -21.754  0.00  0.00    -0.158 NA
BRANCH  22  23
ATOM     23  S   UNL d   1      32.906  20.172 -21.643  0.00  0.00     0.285 S 
ATOM     24  O   UNL d   1      33.077  20.130 -20.836  0.00  0.00    -0.198 OA
ATOM     25  O   UNL d   1      32.733  20.222 -22.446  0.00  0.00    -0.198 OA
BRANCH  23  26
ATOM     26  C   UNL d   1      32.568  20.917 -21.528  0.00  0.00     0.107 A 
ATOM     27  C   UNL d   1      32.796  21.551 -22.004  0.00  0.00     0.037 A 
ATOM     28  C   UNL d   1      32.458  22.296 -21.889  0.00  0.00     0.095 A 
ATOM     29  C   UNL d   1      31.893  22.403 -21.298  0.00  0.00     0.024 A 
ATOM     30  C   UNL d   1      31.667  21.774 -20.825  0.00  0.00     0.003 A 
ATOM     31  C   UNL d   1      32.002  21.029 -20.937  0.00  0.00     0.013 A 
BRANCH  28  32
ATOM     32  O   UNL d   1      32.684  22.941 -22.367  0.00  0.00    -0.328 OA
ATOM     33  C   UNL d   1      32.729  23.702 -22.046  0.00  0.00     0.181 C 
ENDBRANCH  28  32
ENDBRANCH  23  26
ENDBRANCH  22  23
ENDBRANCH   2  22
TORSDOF 6
ENDMDL
MODEL 2
REMARK VINA RESULT:      -1.9      1.506      5.745
REMARK  6 active torsions:
REMARK  status: ('A' for Active; 'I' for Inactive)
REMARK    1  A    between atoms: N_6  and  S_1 
REMARK    2  A    between atoms: C_7  and  S_1 
REMARK       I    between atoms: C_2  and  N_4 
REMARK    3  A    between atoms: C_8  and  C_2 
REMARK    4  A    between atoms: C_3  and  C_12 
REMARK       I    between atoms: N_5  and  C_3 
REMARK    5  A    between atoms: C_23  and  N_6 
REMARK    6  A    between atoms: O_29  and  C_26 
ROOT
ATOM      1  C   UNL d   1      32.918  19.516 -24.241  0.00  0.00     0.057 A 
ATOM      2  C   UNL d   1      32.617  17.908 -24.046  0.00  0.00     0.094 A 
ATOM      3  C   UNL d   1      32.492  19.246 -23.584  0.00  0.00     0.006 A 
ATOM      4  C   UNL d   1      33.193  18.979 -24.799  0.00  0.00     0.006 A 
ATOM      5  C   UNL d   1      32.344  18.435 -23.491  0.00  0.00     0.020 A 
ATOM      6  C   UNL d   1      33.042  18.173 -24.702  0.00  0.00     0.020 A 
ENDROOT
BRANCH   1   7
ATOM      7  C   UNL d   1      33.069  20.330 -24.337  0.00  0.00     0.265 C 
ATOM      8  N   UNL d   1      33.049  20.843 -23.685  0.00  0.00    -0.269 N 
ATOM      9  C   UNL d   1      33.199  21.649 -23.781  0.00  0.00     0.102 A 
ATOM     10  C   UNL d   1      32.878  20.545 -22.934  0.00  0.00     0.102 A 
ATOM     11  C   UNL d   1      33.177  22.153 -23.130  0.00  0.00     0.102 A 
ATOM     12  N   UNL d   1      33.005  21.843 -22.385  0.00  0.00    -0.267 N 
ATOM     13  C   UNL d   1      32.983  22.344 -21.733  0.00  0.00     0.288 C 
ATOM     14  C   UNL d   1      32.856  21.045 -22.286  0.00  0.00     0.102 A 
ATOM     15  O   UNL d   1      33.133  23.154 -21.830  0.00  0.00    -0.264 OA
ATOM     16  O   UNL d   1      33.241  20.629 -25.092  0.00  0.00    -0.267 OA
BRANCH  13  17
ATOM     17  C   UNL d   1      32.813  22.047 -20.991  0.00  0.00     0.156 A 
ATOM     18  O   UNL d   1      32.183  21.543 -20.793  0.00  0.00    -0.300 OA
ATOM     19  C   UNL d   1      32.228  21.387 -19.988  0.00  0.00     0.123 A 
ATOM     20  C   UNL d   1      32.879  21.788 -19.677  0.00  0.00     0.029 A 
ATOM     21  C   UNL d   1      33.240  22.195 -20.295  0.00  0.00     0.032 A 
ENDBRANCH  13  17
ENDBRANCH   1   7
BRANCH   2  22
ATOM     22  N   UNL d   1      32.468  17.101 -23.952  0.00  0.00    -0.158 NA
BRANCH  22  23
ATOM     23  S   UNL d   1      31.747  16.793 -24.181  0.00  0.00     0.285 S 
ATOM     24  O   UNL d   1      31.847  17.117 -24.934  0.00  0.00    -0.198 OA
ATOM     25  O   UNL d   1      31.641  16.467 -23.433  0.00  0.00    -0.198 OA
BRANCH  23  26
ATOM     26  C   UNL d   1      31.019  16.483 -24.416  0.00  0.00     0.107 A 
ATOM     27  C   UNL d   1      30.321  16.879 -24.225  0.00  0.00     0.037 A 
ATOM     28  C   UNL d   1      29.592  16.568 -24.459  0.00  0.00     0.095 A 
ATOM     29  C   UNL d   1      29.565  15.862 -24.884  0.00  0.00     0.024 A 
ATOM     30  C   UNL d   1      30.257  15.469 -25.073  0.00  0.00     0.003 A 
ATOM     31  C   UNL d   1      30.987  15.776 -24.841  0.00  0.00     0.013 A 
BRANCH  28  32
ATOM     32  O   UNL d   1      28.883  16.964 -24.269  0.00  0.00    -0.328 OA
ATOM     33  C   UNL d   1      28.180  16.538 -24.174  0.00  0.00     0.181 C 
ENDBRANCH  28  32
ENDBRANCH  23  26
ENDBRANCH  22  23
ENDBRANCH   2  22
TORSDOF 6
ENDMDL
