MODEL 1
REMARK VINA RESULT:      71.2      0.000      0.000
REMARK  6 active torsions:
REMARK  status: ('A' for Active; 'I' for Inactive)
REMARK    1  A    between atoms: C_2  and  N_10 
REMARK    2  A    between atoms: N_8  and  C_2 
REMARK    3  A    between atoms: C_4  and  N_8 
REMARK    4  A    between atoms: N_10  and  C_16 
REMARK    5  A    between atoms: C_22  and  C_13 
REMARK    6  A    between atoms: C_16  and  C_15 
ROOT
ATOM      1  C   UNL d   1      61.143  48.951  50.187  0.00  0.00     0.221 C 
ATOM      2  S   UNL d   1      61.243  49.172  49.399  0.00  0.00    -0.037 SA
ENDROOT
BRANCH   1   3
ATOM      3  N   UNL d   1      61.190  48.153  50.400  0.00  0.00    -0.216 NA
BRANCH   3   4
ATOM      4  C   UNL d   1      61.919  47.758  50.385  0.00  0.00     0.101 C 
BRANCH   4   5
ATOM      5  C   UNL d   1      61.990  47.041  49.979  0.00  0.00     0.019 A 
ATOM      6  C   UNL d   1      62.672  46.869  49.546  0.00  0.00     0.003 A 
ATOM      7  C   UNL d   1      62.734  46.151  49.143  0.00  0.00     0.019 A 
ATOM      8  C   UNL d   1      62.119  45.610  49.172  0.00  0.00     0.081 A 
ATOM      9  C   UNL d   1      61.436  45.782  49.605  0.00  0.00     0.019 A 
ATOM     10  N   UNL d   1      62.023  44.862  48.833  0.00  0.00    -0.246 NA
ATOM     11  C   UNL d   1      61.371  46.494  50.007  0.00  0.00     0.003 A 
ATOM     12  C   UNL d   1      60.924  45.138  49.530  0.00  0.00     0.021 A 
ATOM     13  C   UNL d   1      61.279  44.579  49.061  0.00  0.00     0.082 A 
ATOM     14  C   UNL d   1      60.948  43.852  48.851  0.00  0.00     0.021 C 
ENDBRANCH   4   5
ENDBRANCH   3   4
ENDBRANCH   1   3
BRANCH   1  15
ATOM     15  N   UNL d   1      60.997  49.523  50.761  0.00  0.00    -0.217 NA
BRANCH  15  16
ATOM     16  C   UNL d   1      60.255  49.571  51.113  0.00  0.00     0.084 A 
ATOM     17  C   UNL d   1      60.190  49.660  51.931  0.00  0.00     0.018 A 
ATOM     18  C   UNL d   1      59.447  49.708  52.284  0.00  0.00     0.002 A 
ATOM     19  C   UNL d   1      60.872  49.701  52.400  0.00  0.00     0.002 C 
ATOM     20  C   UNL d   1      58.761  49.667  51.817  0.00  0.00     0.000 A 
ATOM     21  C   UNL d   1      58.825  49.578  51.000  0.00  0.00     0.002 A 
ATOM     22  C   UNL d   1      59.576  49.530  50.648  0.00  0.00     0.018 A 
BRANCH  22  23
ATOM     23  C   UNL d   1      59.640  49.441  49.831  0.00  0.00     0.002 C 
ATOM     24  C   UNL d   1      59.043  49.703  49.338  0.00  0.00     0.000 C 
ENDBRANCH  22  23
ENDBRANCH  15  16
ENDBRANCH   1  15
TORSDOF 6
ENDMDL
