MODEL 1
REMARK VINA RESULT:      -6.7      0.000      0.000
REMARK  5 active torsions:
REMARK  status: ('A' for Active; 'I' for Inactive)
REMARK    1  A    between atoms: N_4  and  C_1 
REMARK       I    between atoms: C_7  and  N_4 
REMARK    2  A    between atoms: C_8  and  C_7 
REMARK    3  A    between atoms: C_12  and  C_8 
REMARK    4  A    between atoms: S_10  and  C_12 
REMARK    5  A    between atoms: C_11  and  S_10 
ROOT
ATOM      1  C   UNL d   1     -46.280  13.558  22.736  0.00  0.00     0.070 C 
ENDROOT
BRANCH   1   2
ATOM      2  C   UNL d   1     -45.907  12.878  22.990  0.00  0.00     0.281 C 
ATOM      3  N   UNL d   1     -45.286  12.549  22.560  0.00  0.00    -0.187 NA
ATOM      4  O   UNL d   1     -46.169  12.525  23.696  0.00  0.00    -0.265 OA
BRANCH   3   5
ATOM      5  C   UNL d   1     -44.894  11.818  22.844  0.00  0.00     0.194 A 
ATOM      6  N   UNL d   1     -44.089  11.772  22.668  0.00  0.00    -0.107 NA
ATOM      7  O   UNL d   1     -43.801  11.067  22.965  0.00  0.00    -0.210 OA
ATOM      8  C   UNL d   1     -44.434  10.672  23.327  0.00  0.00     0.128 A 
ATOM      9  C   UNL d   1     -45.106  11.150  23.245  0.00  0.00     0.068 A 
ATOM     10  C   UNL d   1     -44.393   9.941  23.698  0.00  0.00     0.029 C 
ENDBRANCH   3   5
ENDBRANCH   1   2
BRANCH   1  11
ATOM     11  C   UNL d   1     -47.089  13.668  22.814  0.00  0.00     0.040 C 
BRANCH  11  12
ATOM     12  S   UNL d   1     -47.444  14.365  22.550  0.00  0.00    -0.086 SA
BRANCH  12  13
ATOM     13  C   UNL d   1     -48.279  14.426  22.536  0.00  0.00     0.029 A 
ATOM     14  C   UNL d   1     -48.653  15.052  22.924  0.00  0.00     0.007 A 
ATOM     15  C   UNL d   1     -49.489  15.112  22.911  0.00  0.00     0.012 A 
ATOM     16  C   UNL d   1     -49.929  14.544  22.508  0.00  0.00     0.058 A 
ATOM     17  C   UNL d   1     -49.551  13.919  22.121  0.00  0.00     0.012 A 
ATOM     18 CL   UNL d   1     -50.761  14.606  22.496  0.00  0.00    -0.082 Cl
ATOM     19  C   UNL d   1     -48.727  13.862  22.136  0.00  0.00     0.007 A 
ENDBRANCH  12  13
ENDBRANCH  11  12
ENDBRANCH   1  11
TORSDOF 5
ENDMDL
MODEL 2
REMARK VINA RESULT:      -6.6      1.393      1.900
REMARK  5 active torsions:
REMARK  status: ('A' for Active; 'I' for Inactive)
REMARK    1  A    between atoms: N_4  and  C_1 
REMARK       I    between atoms: C_7  and  N_4 
REMARK    2  A    between atoms: C_8  and  C_7 
REMARK    3  A    between atoms: C_12  and  C_8 
REMARK    4  A    between atoms: S_10  and  C_12 
REMARK    5  A    between atoms: C_11  and  S_10 
ROOT
ATOM      1  C   UNL d   1     -46.522  12.929  23.087  0.00  0.00     0.070 C 
ENDROOT
BRANCH   1   2
ATOM      2  C   UNL d   1     -45.800  13.000  22.710  0.00  0.00     0.281 C 
ATOM      3  N   UNL d   1     -45.294  12.355  22.638  0.00  0.00    -0.187 NA
ATOM      4  O   UNL d   1     -45.590  13.743  22.400  0.00  0.00    -0.265 OA
BRANCH   3   5
ATOM      5  C   UNL d   1     -44.523  12.445  22.231  0.00  0.00     0.194 A 
ATOM      6  N   UNL d   1     -43.956  11.885  22.444  0.00  0.00    -0.107 NA
ATOM      7  O   UNL d   1     -43.272  12.038  22.023  0.00  0.00    -0.210 OA
ATOM      8  C   UNL d   1     -43.417  12.699  21.544  0.00  0.00     0.128 A 
ATOM      9  C   UNL d   1     -44.197  12.942  21.683  0.00  0.00     0.068 A 
ATOM     10  C   UNL d   1     -42.880  13.044  21.030  0.00  0.00     0.029 C 
ENDBRANCH   3   5
ENDBRANCH   1   2
BRANCH   1  11
ATOM     11  C   UNL d   1     -47.233  13.057  22.699  0.00  0.00     0.040 C 
BRANCH  11  12
ATOM     12  S   UNL d   1     -47.948  12.875  23.067  0.00  0.00    -0.086 SA
BRANCH  12  13
ATOM     13  C   UNL d   1     -48.668  12.978  22.650  0.00  0.00     0.029 A 
ATOM     14  C   UNL d   1     -48.982  12.354  22.210  0.00  0.00     0.007 A 
ATOM     15  C   UNL d   1     -49.701  12.458  21.793  0.00  0.00     0.012 A 
ATOM     16  C   UNL d   1     -50.087  13.185  21.827  0.00  0.00     0.058 A 
ATOM     17  C   UNL d   1     -49.769  13.807  22.268  0.00  0.00     0.012 A 
ATOM     18 CL   UNL d   1     -50.804  13.286  21.410  0.00  0.00    -0.082 Cl
ATOM     19  C   UNL d   1     -49.060  13.702  22.678  0.00  0.00     0.007 A 
ENDBRANCH  12  13
ENDBRANCH  11  12
ENDBRANCH   1  11
TORSDOF 5
ENDMDL
MODEL 3
REMARK VINA RESULT:      -5.4      2.816      5.351
REMARK  5 active torsions:
REMARK  status: ('A' for Active; 'I' for Inactive)
REMARK    1  A    between atoms: N_4  and  C_1 
REMARK       I    between atoms: C_7  and  N_4 
REMARK    2  A    between atoms: C_8  and  C_7 
REMARK    3  A    between atoms: C_12  and  C_8 
REMARK    4  A    between atoms: S_10  and  C_12 
REMARK    5  A    between atoms: C_11  and  S_10 
ROOT
ATOM      1  C   UNL d   1     -47.619  13.744  22.395  0.00  0.00     0.070 C 
ENDROOT
BRANCH   1   2
ATOM      2  C   UNL d   1     -48.346  14.043  22.618  0.00  0.00     0.281 C 
ATOM      3  N   UNL d   1     -48.579  14.802  22.398  0.00  0.00    -0.187 NA
ATOM      4  O   UNL d   1     -48.846  13.560  23.075  0.00  0.00    -0.265 OA
BRANCH   3   5
ATOM      5  C   UNL d   1     -49.361  15.109  22.644  0.00  0.00     0.194 A 
ATOM      6  N   UNL d   1     -49.896  15.221  22.025  0.00  0.00    -0.107 NA
ATOM      7  O   UNL d   1     -50.595  15.507  22.338  0.00  0.00    -0.210 OA
ATOM      8  C   UNL d   1     -50.493  15.575  23.158  0.00  0.00     0.128 A 
ATOM      9  C   UNL d   1     -49.722  15.324  23.335  0.00  0.00     0.068 A 
ATOM     10  C   UNL d   1     -51.057  15.841  23.690  0.00  0.00     0.029 C 
ENDBRANCH   3   5
ENDBRANCH   1   2
BRANCH   1  11
ATOM     11  C   UNL d   1     -47.214  13.194  22.849  0.00  0.00     0.040 C 
BRANCH  11  12
ATOM     12  S   UNL d   1     -46.395  13.120  22.782  0.00  0.00    -0.086 SA
BRANCH  12  13
ATOM     13  C   UNL d   1     -46.025  12.398  22.992  0.00  0.00     0.029 A 
ATOM     14  C   UNL d   1     -46.415  11.865  23.489  0.00  0.00     0.007 A 
ATOM     15  C   UNL d   1     -46.045  11.143  23.698  0.00  0.00     0.012 A 
ATOM     16  C   UNL d   1     -45.294  10.973  23.405  0.00  0.00     0.058 A 
ATOM     17  C   UNL d   1     -44.908  11.509  22.909  0.00  0.00     0.012 A 
ATOM     18 CL   UNL d   1     -44.927  10.253  23.615  0.00  0.00    -0.082 Cl
ATOM     19  C   UNL d   1     -45.275  12.220  22.704  0.00  0.00     0.007 A 
ENDBRANCH  12  13
ENDBRANCH  11  12
ENDBRANCH   1  11
TORSDOF 5
ENDMDL
MODEL 4
REMARK VINA RESULT:      -5.0      8.114      9.266
REMARK  5 active torsions:
REMARK  status: ('A' for Active; 'I' for Inactive)
REMARK    1  A    between atoms: N_4  and  C_1 
REMARK       I    between atoms: C_7  and  N_4 
REMARK    2  A    between atoms: C_8  and  C_7 
REMARK    3  A    between atoms: C_12  and  C_8 
REMARK    4  A    between atoms: S_10  and  C_12 
REMARK    5  A    between atoms: C_11  and  S_10 
ROOT
ATOM      1  C   UNL d   1     -40.340  14.365  18.624  0.00  0.00     0.070 C 
ENDROOT
BRANCH   1   2
ATOM      2  C   UNL d   1     -39.873  14.189  17.976  0.00  0.00     0.281 C 
ATOM      3  N   UNL d   1     -39.600  14.784  17.476  0.00  0.00    -0.187 NA
ATOM      4  O   UNL d   1     -39.679  13.393  17.835  0.00  0.00    -0.265 OA
BRANCH   3   5
ATOM      5  C   UNL d   1     -39.100  14.582  16.786  0.00  0.00     0.194 A 
ATOM      6  N   UNL d   1     -38.768  15.233  16.402  0.00  0.00    -0.107 NA
ATOM      7  O   UNL d   1     -38.320  14.961  15.775  0.00  0.00    -0.210 OA
ATOM      8  C   UNL d   1     -38.375  14.133  15.770  0.00  0.00     0.128 A 
ATOM      9  C   UNL d   1     -38.863  13.912  16.402  0.00  0.00     0.068 A 
ATOM     10  C   UNL d   1     -38.011  13.633  15.232  0.00  0.00     0.029 C 
ENDBRANCH   3   5
ENDBRANCH   1   2
BRANCH   1  11
ATOM     11  C   UNL d   1     -40.034  14.413  19.383  0.00  0.00     0.040 C 
BRANCH  11  12
ATOM     12  S   UNL d   1     -40.495  14.708  20.001  0.00  0.00    -0.086 SA
BRANCH  12  13
ATOM     13  C   UNL d   1     -40.129  14.929  20.722  0.00  0.00     0.029 A 
ATOM     14  C   UNL d   1     -40.208  15.701  21.003  0.00  0.00     0.007 A 
ATOM     15  C   UNL d   1     -39.842  15.922  21.724  0.00  0.00     0.012 A 
ATOM     16  C   UNL d   1     -39.407  15.363  22.145  0.00  0.00     0.058 A 
ATOM     17  C   UNL d   1     -39.332  14.591  21.860  0.00  0.00     0.012 A 
ATOM     18 CL   UNL d   1     -39.044  15.585  22.863  0.00  0.00    -0.082 Cl
ATOM     19  C   UNL d   1     -39.693  14.376  21.149  0.00  0.00     0.007 A 
ENDBRANCH  12  13
ENDBRANCH  11  12
ENDBRANCH   1  11
TORSDOF 5
ENDMDL
MODEL 5
REMARK VINA RESULT:      -4.8      8.539      9.412
REMARK  5 active torsions:
REMARK  status: ('A' for Active; 'I' for Inactive)
REMARK    1  A    between atoms: N_4  and  C_1 
REMARK       I    between atoms: C_7  and  N_4 
REMARK    2  A    between atoms: C_8  and  C_7 
REMARK    3  A    between atoms: C_12  and  C_8 
REMARK    4  A    between atoms: S_10  and  C_12 
REMARK    5  A    between atoms: C_11  and  S_10 
ROOT
ATOM      1  C   UNL d   1     -39.053  15.491  19.283  0.00  0.00     0.070 C 
ENDROOT
BRANCH   1   2
ATOM      2  C   UNL d   1     -39.693  15.525  18.776  0.00  0.00     0.281 C 
ATOM      3  N   UNL d   1     -39.614  15.335  17.979  0.00  0.00    -0.187 NA
ATOM      4  O   UNL d   1     -40.428  15.757  19.087  0.00  0.00    -0.265 OA
BRANCH   3   5
ATOM      5  C   UNL d   1     -40.308  15.375  17.446  0.00  0.00     0.194 A 
ATOM      6  N   UNL d   1     -40.427  14.700  16.987  0.00  0.00    -0.107 NA
ATOM      7  O   UNL d   1     -41.089  14.819  16.522  0.00  0.00    -0.210 OA
ATOM      8  C   UNL d   1     -41.383  15.575  16.695  0.00  0.00     0.128 A 
ATOM      9  C   UNL d   1     -40.889  15.909  17.271  0.00  0.00     0.068 A 
ATOM     10  C   UNL d   1     -42.044  15.921  16.354  0.00  0.00     0.029 C 
ENDBRANCH   3   5
ENDBRANCH   1   2
BRANCH   1  11
ATOM     11  C   UNL d   1     -39.043  15.003  19.942  0.00  0.00     0.040 C 
BRANCH  11  12
ATOM     12  S   UNL d   1     -38.411  15.031  20.472  0.00  0.00    -0.086 SA
BRANCH  12  13
ATOM     13  C   UNL d   1     -38.445  14.585  21.182  0.00  0.00     0.029 A 
ATOM     14  C   UNL d   1     -38.596  14.964  21.900  0.00  0.00     0.007 A 
ATOM     15  C   UNL d   1     -38.630  14.518  22.608  0.00  0.00     0.012 A 
ATOM     16  C   UNL d   1     -38.512  13.703  22.579  0.00  0.00     0.058 A 
ATOM     17  C   UNL d   1     -38.361  13.328  21.859  0.00  0.00     0.012 A 
ATOM     18 CL   UNL d   1     -38.546  13.261  23.287  0.00  0.00    -0.082 Cl
ATOM     19  C   UNL d   1     -38.328  13.770  21.162  0.00  0.00     0.007 A 
ENDBRANCH  12  13
ENDBRANCH  11  12
ENDBRANCH   1  11
TORSDOF 5
ENDMDL
MODEL 6
REMARK VINA RESULT:      -4.6      4.437      6.087
REMARK  5 active torsions:
REMARK  status: ('A' for Active; 'I' for Inactive)
REMARK    1  A    between atoms: N_4  and  C_1 
REMARK       I    between atoms: C_7  and  N_4 
REMARK    2  A    between atoms: C_8  and  C_7 
REMARK    3  A    between atoms: C_12  and  C_8 
REMARK    4  A    between atoms: S_10  and  C_12 
REMARK    5  A    between atoms: C_11  and  S_10 
ROOT
ATOM      1  C   UNL d   1     -43.119  12.971  21.106  0.00  0.00     0.070 C 
ENDROOT
BRANCH   1   2
ATOM      2  C   UNL d   1     -43.730  12.827  21.629  0.00  0.00     0.281 C 
ATOM      3  N   UNL d   1     -44.418  13.281  21.613  0.00  0.00    -0.187 NA
ATOM      4  O   UNL d   1     -43.640  12.211  22.179  0.00  0.00    -0.265 OA
BRANCH   3   5
ATOM      5  C   UNL d   1     -45.065  13.117  22.180  0.00  0.00     0.194 A 
ATOM      6  N   UNL d   1     -45.379  13.788  22.544  0.00  0.00    -0.107 NA
ATOM      7  O   UNL d   1     -45.973  13.549  23.053  0.00  0.00    -0.210 OA
ATOM      8  C   UNL d   1     -46.027  12.724  23.004  0.00  0.00     0.128 A 
ATOM      9  C   UNL d   1     -45.458  12.468  22.458  0.00  0.00     0.068 A 
ATOM     10  C   UNL d   1     -46.552  12.253  23.423  0.00  0.00     0.029 C 
ENDBRANCH   3   5
ENDBRANCH   1   2
BRANCH   1  11
ATOM     11  C   UNL d   1     -42.476  13.440  21.303  0.00  0.00     0.040 C 
BRANCH  11  12
ATOM     12  S   UNL d   1     -41.908  13.629  20.735  0.00  0.00    -0.086 SA
BRANCH  12  13
ATOM     13  C   UNL d   1     -41.305  14.181  20.920  0.00  0.00     0.029 A 
ATOM     14  C   UNL d   1     -40.588  13.917  21.234  0.00  0.00     0.007 A 
ATOM     15  C   UNL d   1     -39.985  14.469  21.419  0.00  0.00     0.012 A 
ATOM     16  C   UNL d   1     -40.116  15.272  21.284  0.00  0.00     0.058 A 
ATOM     17  C   UNL d   1     -40.834  15.531  20.970  0.00  0.00     0.012 A 
ATOM     18 CL   UNL d   1     -39.513  15.819  21.469  0.00  0.00    -0.082 Cl
ATOM     19  C   UNL d   1     -41.427  14.985  20.788  0.00  0.00     0.007 A 
ENDBRANCH  12  13
ENDBRANCH  11  12
ENDBRANCH   1  11
TORSDOF 5
ENDMDL
MODEL 7
REMARK VINA RESULT:      -4.2      2.892      5.186
REMARK  5 active torsions:
REMARK  status: ('A' for Active; 'I' for Inactive)
REMARK    1  A    between atoms: N_4  and  C_1 
REMARK       I    between atoms: C_7  and  N_4 
REMARK    2  A    between atoms: C_8  and  C_7 
REMARK    3  A    between atoms: C_12  and  C_8 
REMARK    4  A    between atoms: S_10  and  C_12 
REMARK    5  A    between atoms: C_11  and  S_10 
ROOT
ATOM      1  C   UNL d   1     -47.521  12.646  22.946  0.00  0.00     0.070 C 
ENDROOT
BRANCH   1   2
ATOM      2  C   UNL d   1     -48.217  13.008  22.715  0.00  0.00     0.281 C 
ATOM      3  N   UNL d   1     -48.749  12.625  22.217  0.00  0.00    -0.187 NA
ATOM      4  O   UNL d   1     -48.373  13.774  22.997  0.00  0.00    -0.265 OA
BRANCH   3   5
ATOM      5  C   UNL d   1     -49.491  13.024  21.977  0.00  0.00     0.194 A 
ATOM      6  N   UNL d   1     -50.052  12.526  21.632  0.00  0.00    -0.107 NA
ATOM      7  O   UNL d   1     -50.708  12.973  21.439  0.00  0.00    -0.210 OA
ATOM      8  C   UNL d   1     -50.553  13.755  21.666  0.00  0.00     0.128 A 
ATOM      9  C   UNL d   1     -49.794  13.773  21.999  0.00  0.00     0.068 A 
ATOM     10  C   UNL d   1     -51.064  14.390  21.575  0.00  0.00     0.029 C 
ENDBRANCH   3   5
ENDBRANCH   1   2
BRANCH   1  11
ATOM     11  C   UNL d   1     -46.795  12.849  22.624  0.00  0.00     0.040 C 
BRANCH  11  12
ATOM     12  S   UNL d   1     -46.096  12.664  23.021  0.00  0.00    -0.086 SA
BRANCH  12  13
ATOM     13  C   UNL d   1     -45.369  12.667  22.604  0.00  0.00     0.029 A 
ATOM     14  C   UNL d   1     -44.847  12.032  22.681  0.00  0.00     0.007 A 
ATOM     15  C   UNL d   1     -44.120  12.036  22.264  0.00  0.00     0.012 A 
ATOM     16  C   UNL d   1     -43.935  12.677  21.780  0.00  0.00     0.058 A 
ATOM     17  C   UNL d   1     -44.460  13.310  21.706  0.00  0.00     0.012 A 
ATOM     18 CL   UNL d   1     -43.210  12.678  21.365  0.00  0.00    -0.082 Cl
ATOM     19  C   UNL d   1     -45.176  13.304  22.118  0.00  0.00     0.007 A 
ENDBRANCH  12  13
ENDBRANCH  11  12
ENDBRANCH   1  11
TORSDOF 5
ENDMDL
