MODEL 1
REMARK VINA RESULT:      -1.8      0.000      0.000
REMARK  5 active torsions:
REMARK  status: ('A' for Active; 'I' for Inactive)
REMARK    1  A    between atoms: N_4  and  S_1 
REMARK    2  A    between atoms: C_10  and  S_1 
REMARK    3  A    between atoms: C_2  and  N_9 
REMARK    4  A    between atoms: C_13  and  C_3 
REMARK    5  A    between atoms: C_11  and  C_8 
REMARK       I    between atoms: N_9  and  C_11 
REMARK       I    between atoms: C_15  and  N_12 
ROOT
ATOM      1  N   UNL d   1      32.694  17.785 -23.839  0.00  0.00    -0.200 NA
ATOM      2  C   UNL d   1      32.099  17.231 -23.681  0.00  0.00     0.296 C 
ATOM      3  O   UNL d   1      31.569  17.368 -23.063  0.00  0.00    -0.264 OA
ENDROOT
BRANCH   1   4
ATOM      4  C   UNL d   1      32.758  18.470 -23.383  0.00  0.00     0.119 A 
ATOM      5  C   UNL d   1      32.713  19.244 -23.649  0.00  0.00     0.084 A 
ATOM      6  C   UNL d   1      32.807  19.754 -23.002  0.00  0.00     0.016 A 
ATOM      7  C   UNL d   1      32.812  20.574 -22.938  0.00  0.00     0.020 A 
ATOM      8  C   UNL d   1      32.912  19.284 -22.333  0.00  0.00     0.049 A 
ATOM      9  C   UNL d   1      32.920  20.924 -22.208  0.00  0.00     0.083 A 
ATOM     10  N   UNL d   1      33.026  20.453 -21.527  0.00  0.00    -0.272 N 
ATOM     11  C   UNL d   1      33.021  19.635 -21.595  0.00  0.00     0.089 A 
ATOM     12  C   UNL d   1      33.136  20.816 -20.781  0.00  0.00     0.265 C 
ATOM     13  O   UNL d   1      33.241  20.347 -20.112  0.00  0.00    -0.267 OA
ATOM     14  C   UNL d   1      33.140  21.640 -20.721  0.00  0.00     0.066 C 
ATOM     15  S   UNL d   1      32.882  18.493 -22.561  0.00  0.00    -0.066 SA
BRANCH   5  16
ATOM     16  C   UNL d   1      32.592  19.483 -24.434  0.00  0.00     0.299 C 
ATOM     17  O   UNL d   1      31.833  19.530 -24.738  0.00  0.00    -0.264 OA
ATOM     18  N   UNL d   1      33.240  19.668 -24.895  0.00  0.00    -0.102 N 
ENDBRANCH   5  16
ENDBRANCH   1   4
BRANCH   2  19
ATOM     19  C   UNL d   1      32.037  16.554 -24.134  0.00  0.00     0.133 A 
ATOM     20  N   UNL d   1      31.329  16.224 -24.422  0.00  0.00    -0.226 N 
ATOM     21  C   UNL d   1      31.529  15.538 -24.854  0.00  0.00     0.092 A 
ATOM     22  C   UNL d   1      32.346  15.453 -24.828  0.00  0.00     0.021 A 
ATOM     23  C   UNL d   1      32.662  16.076 -24.386  0.00  0.00     0.025 A 
BRANCH  20  24
ATOM     24  S   UNL d   1      30.565  16.521 -24.303  0.00  0.00     0.277 S 
ATOM     25  O   UNL d   1      30.480  15.982 -23.688  0.00  0.00    -0.199 OA
ATOM     26  O   UNL d   1      30.656  17.063 -24.925  0.00  0.00    -0.199 OA
BRANCH  24  27
ATOM     27  C   UNL d   1      29.803  16.790 -24.155  0.00  0.00     0.133 A 
ATOM     28  S   UNL d   1      29.377  17.326 -24.613  0.00  0.00    -0.074 SA
ATOM     29  C   UNL d   1      28.637  17.437 -24.260  0.00  0.00     0.036 A 
ATOM     30  C   UNL d   1      28.609  16.965 -23.580  0.00  0.00     0.008 A 
ATOM     31  C   UNL d   1      29.328  16.566 -23.516  0.00  0.00     0.020 A 
ENDBRANCH  24  27
ENDBRANCH  20  24
ENDBRANCH   2  19
TORSDOF 5
ENDMDL
MODEL 2
REMARK VINA RESULT:      -0.7      1.319      2.100
REMARK  5 active torsions:
REMARK  status: ('A' for Active; 'I' for Inactive)
REMARK    1  A    between atoms: N_4  and  S_1 
REMARK    2  A    between atoms: C_10  and  S_1 
REMARK    3  A    between atoms: C_2  and  N_9 
REMARK    4  A    between atoms: C_13  and  C_3 
REMARK    5  A    between atoms: C_11  and  C_8 
REMARK       I    between atoms: N_9  and  C_11 
REMARK       I    between atoms: C_15  and  N_12 
ROOT
ATOM      1  N   UNL d   1      32.963  18.145 -23.283  0.00  0.00    -0.200 NA
ATOM      2  C   UNL d   1      32.655  17.725 -23.926  0.00  0.00     0.296 C 
ATOM      3  O   UNL d   1      32.391  18.136 -24.592  0.00  0.00    -0.264 OA
ENDROOT
BRANCH   1   4
ATOM      4  C   UNL d   1      33.006  18.969 -23.304  0.00  0.00     0.119 A 
ATOM      5  C   UNL d   1      33.027  19.477 -22.662  0.00  0.00     0.084 A 
ATOM      6  C   UNL d   1      33.070  20.257 -22.940  0.00  0.00     0.016 A 
ATOM      7  C   UNL d   1      33.104  20.982 -22.554  0.00  0.00     0.020 A 
ATOM      8  C   UNL d   1      33.075  20.223 -23.763  0.00  0.00     0.049 A 
ATOM      9  C   UNL d   1      33.144  21.673 -22.989  0.00  0.00     0.083 A 
ATOM     10  N   UNL d   1      33.150  21.645 -23.823  0.00  0.00    -0.272 N 
ATOM     11  C   UNL d   1      33.115  20.918 -24.205  0.00  0.00     0.089 A 
ATOM     12  C   UNL d   1      33.191  22.354 -24.264  0.00  0.00     0.265 C 
ATOM     13  O   UNL d   1      33.196  22.321 -25.088  0.00  0.00    -0.267 OA
ATOM     14  C   UNL d   1      33.225  23.081 -23.874  0.00  0.00     0.066 C 
ATOM     15  S   UNL d   1      33.036  19.433 -23.993  0.00  0.00    -0.066 SA
BRANCH   5  16
ATOM     16  C   UNL d   1      33.008  19.253 -21.863  0.00  0.00     0.299 C 
ATOM     17  O   UNL d   1      33.223  18.494 -21.643  0.00  0.00    -0.264 OA
ATOM     18  N   UNL d   1      32.773  19.800 -21.305  0.00  0.00    -0.102 N 
ENDBRANCH   5  16
ENDBRANCH   1   4
BRANCH   2  19
ATOM     19  C   UNL d   1      32.613  16.909 -23.903  0.00  0.00     0.133 A 
ATOM     20  N   UNL d   1      31.928  16.453 -24.026  0.00  0.00    -0.226 N 
ATOM     21  C   UNL d   1      32.144  15.649 -23.951  0.00  0.00     0.092 A 
ATOM     22  C   UNL d   1      32.948  15.619 -23.785  0.00  0.00     0.021 A 
ATOM     23  C   UNL d   1      33.240  16.392 -23.755  0.00  0.00     0.025 A 
BRANCH  20  24
ATOM     24  S   UNL d   1      31.170  16.741 -24.193  0.00  0.00     0.277 S 
ATOM     25  O   UNL d   1      31.418  16.872 -24.966  0.00  0.00    -0.199 OA
ATOM     26  O   UNL d   1      30.924  16.608 -23.412  0.00  0.00    -0.199 OA
BRANCH  24  27
ATOM     27  C   UNL d   1      30.429  17.034 -24.396  0.00  0.00     0.133 A 
ATOM     28  S   UNL d   1      29.743  16.982 -23.944  0.00  0.00    -0.074 SA
ATOM     29  C   UNL d   1      29.130  17.350 -24.360  0.00  0.00     0.036 A 
ATOM     30  C   UNL d   1      29.443  17.630 -25.074  0.00  0.00     0.008 A 
ATOM     31  C   UNL d   1      30.245  17.436 -25.096  0.00  0.00     0.020 A 
ENDBRANCH  24  27
ENDBRANCH  20  24
ENDBRANCH   2  19
TORSDOF 5
ENDMDL
