MODEL 1
REMARK VINA RESULT:      12.7      0.000      0.000
REMARK  4 active torsions:
REMARK  status: ('A' for Active; 'I' for Inactive)
REMARK    1  A    between atoms: C_6  and  C_1 
REMARK    2  A    between atoms: N_7  and  C_2 
REMARK    3  A    between atoms: C_8  and  C_5 
REMARK    4  A    between atoms: O_10  and  C_6 
ROOT
ATOM      1  C   UNL d   1      45.255 -13.389  43.957  0.00  0.00     0.186 A 
ATOM      2  C   UNL d   1      45.876 -13.189  44.496  0.00  0.00     0.193 A 
ATOM      3  N   UNL d   1      45.045 -14.161  44.081  0.00  0.00    -0.213 NA
ATOM      4  O   UNL d   1      46.024 -13.889  44.950  0.00  0.00    -0.271 OA
ATOM      5  C   UNL d   1      45.485 -14.465  44.657  0.00  0.00     0.184 A 
ENDROOT
BRANCH   5   6
ATOM      6  C   UNL d   1      45.281 -15.177  44.761  0.00  0.00     0.041 A 
ATOM      7  C   UNL d   1      46.079 -15.402  44.634  0.00  0.00     0.004 A 
ATOM      8  C   UNL d   1      46.300 -16.200  44.667  0.00  0.00     0.000 A 
ATOM      9  C   UNL d   1      45.725 -16.769  44.827  0.00  0.00     0.000 A 
ATOM     10  C   UNL d   1      44.927 -16.545  44.954  0.00  0.00     0.000 A 
ATOM     11  C   UNL d   1      44.728 -15.757  44.918  0.00  0.00     0.004 A 
ENDBRANCH   5   6
BRANCH   1  12
ATOM     12  C   UNL d   1      45.083 -12.839  43.544  0.00  0.00     0.317 C 
ATOM     13  O   UNL d   1      44.571 -12.123  43.607  0.00  0.00    -0.257 OA
BRANCH  12  14
ATOM     14  O   UNL d   1      45.303 -12.679  42.861  0.00  0.00    -0.294 OA
ATOM     15  C   UNL d   1      44.866 -12.329  42.210  0.00  0.00     0.185 C 
ENDBRANCH  12  14
ENDBRANCH   1  12
BRANCH   2  16
ATOM     16  N   UNL d   1      46.072 -12.568  44.424  0.00  0.00    -0.281 N 
ATOM     17  C   UNL d   1      45.463 -12.270  44.858  0.00  0.00     0.101 C 
ATOM     18  C   UNL d   1      46.615 -12.081  44.108  0.00  0.00     0.101 C 
ENDBRANCH   2  16
TORSDOF 4
ENDMDL
MODEL 2
REMARK VINA RESULT:      14.0      3.366      5.185
REMARK  4 active torsions:
REMARK  status: ('A' for Active; 'I' for Inactive)
REMARK    1  A    between atoms: C_6  and  C_1 
REMARK    2  A    between atoms: N_7  and  C_2 
REMARK    3  A    between atoms: C_8  and  C_5 
REMARK    4  A    between atoms: O_10  and  C_6 
ROOT
ATOM      1  C   UNL d   1      46.216 -18.573  43.293  0.00  0.00     0.186 A 
ATOM      2  C   UNL d   1      46.361 -18.844  44.081  0.00  0.00     0.193 A 
ATOM      3  N   UNL d   1      46.115 -17.770  43.312  0.00  0.00    -0.213 NA
ATOM      4  O   UNL d   1      46.342 -18.154  44.573  0.00  0.00    -0.271 OA
ATOM      5  C   UNL d   1      46.186 -17.512  44.051  0.00  0.00     0.184 A 
ENDROOT
BRANCH   5   6
ATOM      6  C   UNL d   1      46.091 -16.770  44.055  0.00  0.00     0.041 A 
ATOM      7  C   UNL d   1      45.504 -16.869  44.644  0.00  0.00     0.004 A 
ATOM      8  C   UNL d   1      45.107 -16.211  44.955  0.00  0.00     0.000 A 
ATOM      9  C   UNL d   1      45.298 -15.458  44.676  0.00  0.00     0.000 A 
ATOM     10  C   UNL d   1      45.885 -15.359  44.086  0.00  0.00     0.000 A 
ATOM     11  C   UNL d   1      46.264 -16.016  43.793  0.00  0.00     0.004 A 
ENDBRANCH   5   6
BRANCH   1  12
ATOM     12  C   UNL d   1      46.220 -19.109  42.829  0.00  0.00     0.317 C 
ATOM     13  O   UNL d   1      45.868 -19.917  42.778  0.00  0.00    -0.257 OA
BRANCH  12  14
ATOM     14  O   UNL d   1      46.554 -19.162  42.177  0.00  0.00    -0.294 OA
ATOM     15  C   UNL d   1      46.229 -19.100  41.385  0.00  0.00     0.185 C 
ENDBRANCH  12  14
ENDBRANCH   1  12
BRANCH   2  16
ATOM     16  N   UNL d   1      46.448 -19.493  44.104  0.00  0.00    -0.281 N 
ATOM     17  C   UNL d   1      46.253 -19.545  44.883  0.00  0.00     0.101 C 
ATOM     18  C   UNL d   1      46.647 -20.147  43.697  0.00  0.00     0.101 C 
ENDBRANCH   2  16
TORSDOF 4
ENDMDL
MODEL 3
REMARK VINA RESULT:      14.7      3.319      5.257
REMARK  4 active torsions:
REMARK  status: ('A' for Active; 'I' for Inactive)
REMARK    1  A    between atoms: C_6  and  C_1 
REMARK    2  A    between atoms: N_7  and  C_2 
REMARK    3  A    between atoms: C_8  and  C_5 
REMARK    4  A    between atoms: O_10  and  C_6 
ROOT
ATOM      1  C   UNL d   1      46.155 -18.626  43.734  0.00  0.00     0.186 A 
ATOM      2  C   UNL d   1      46.277 -18.366  42.938  0.00  0.00     0.193 A 
ATOM      3  N   UNL d   1      45.953 -17.986  44.186  0.00  0.00    -0.213 NA
ATOM      4  O   UNL d   1      46.135 -17.530  42.941  0.00  0.00    -0.271 OA
ATOM      5  C   UNL d   1      45.937 -17.340  43.737  0.00  0.00     0.184 A 
ENDROOT
BRANCH   5   6
ATOM      6  C   UNL d   1      45.749 -16.756  44.166  0.00  0.00     0.041 A 
ATOM      7  C   UNL d   1      45.781 -16.271  43.484  0.00  0.00     0.004 A 
ATOM      8  C   UNL d   1      45.618 -15.461  43.538  0.00  0.00     0.000 A 
ATOM      9  C   UNL d   1      45.424 -15.138  44.272  0.00  0.00     0.000 A 
ATOM     10  C   UNL d   1      45.393 -15.623  44.955  0.00  0.00     0.000 A 
ATOM     11  C   UNL d   1      45.556 -16.417  44.884  0.00  0.00     0.004 A 
ENDBRANCH   5   6
BRANCH   1  12
ATOM     12  C   UNL d   1      46.260 -19.324  43.798  0.00  0.00     0.317 C 
ATOM     13  O   UNL d   1      46.026 -20.052  43.357  0.00  0.00    -0.257 OA
BRANCH  12  14
ATOM     14  O   UNL d   1      46.637 -19.697  44.306  0.00  0.00    -0.294 OA
ATOM     15  C   UNL d   1      46.370 -20.297  44.859  0.00  0.00     0.185 C 
ENDBRANCH  12  14
ENDBRANCH   1  12
BRANCH   2  16
ATOM     16  N   UNL d   1      46.443 -18.860  42.542  0.00  0.00    -0.281 N 
ATOM     17  C   UNL d   1      46.647 -18.374  41.933  0.00  0.00     0.101 C 
ATOM     18  C   UNL d   1      46.505 -19.649  42.462  0.00  0.00     0.101 C 
ENDBRANCH   2  16
TORSDOF 4
ENDMDL
MODEL 4
REMARK VINA RESULT:      15.3      6.907      8.041
REMARK  4 active torsions:
REMARK  status: ('A' for Active; 'I' for Inactive)
REMARK    1  A    between atoms: C_6  and  C_1 
REMARK    2  A    between atoms: N_7  and  C_2 
REMARK    3  A    between atoms: C_8  and  C_5 
REMARK    4  A    between atoms: O_10  and  C_6 
ROOT
ATOM      1  C   UNL d   1      44.980 -14.800  36.910  0.00  0.00     0.186 A 
ATOM      2  C   UNL d   1      45.235 -15.553  36.622  0.00  0.00     0.193 A 
ATOM      3  N   UNL d   1      44.171 -14.779  36.895  0.00  0.00    -0.213 NA
ATOM      4  O   UNL d   1      44.530 -15.982  36.433  0.00  0.00    -0.271 OA
ATOM      5  C   UNL d   1      43.895 -15.462  36.619  0.00  0.00     0.184 A 
ENDROOT
BRANCH   5   6
ATOM      6  C   UNL d   1      43.147 -15.429  36.610  0.00  0.00     0.041 A 
ATOM      7  C   UNL d   1      43.135 -16.248  36.433  0.00  0.00     0.004 A 
ATOM      8  C   UNL d   1      42.415 -16.645  36.332  0.00  0.00     0.000 A 
ATOM      9  C   UNL d   1      41.710 -16.223  36.409  0.00  0.00     0.000 A 
ATOM     10  C   UNL d   1      41.722 -15.404  36.586  0.00  0.00     0.000 A 
ATOM     11  C   UNL d   1      42.438 -15.030  36.682  0.00  0.00     0.004 A 
ENDBRANCH   5   6
BRANCH   1  12
ATOM     12  C   UNL d   1      45.530 -14.389  37.087  0.00  0.00     0.317 C 
ATOM     13  O   UNL d   1      46.283 -14.125  36.709  0.00  0.00    -0.257 OA
BRANCH  12  14
ATOM     14  O   UNL d   1      45.657 -14.018  37.709  0.00  0.00    -0.294 OA
ATOM     15  C   UNL d   1      46.006 -13.242  37.824  0.00  0.00     0.185 C 
ENDBRANCH  12  14
ENDBRANCH   1  12
BRANCH   2  16
ATOM     16  N   UNL d   1      45.889 -15.605  36.620  0.00  0.00    -0.281 N 
ATOM     17  C   UNL d   1      45.878 -16.402  36.735  0.00  0.00     0.101 C 
ATOM     18  C   UNL d   1      46.581 -15.220  36.554  0.00  0.00     0.101 C 
ENDBRANCH   2  16
TORSDOF 4
ENDMDL
