MODEL 1
REMARK VINA RESULT:      23.3      0.000      0.000
REMARK  6 active torsions:
REMARK  status: ('A' for Active; 'I' for Inactive)
REMARK    1  A    between atoms: C_2  and  N_1 
REMARK       I    between atoms: C_3  and  N_9 
REMARK    2  A    between atoms: C_5  and  C_3 
REMARK    3  A    between atoms: C_6  and  C_5 
REMARK    4  A    between atoms: C_7  and  C_6 
REMARK    5  A    between atoms: O_14  and  C_7 
REMARK    6  A    between atoms: N_9  and  C_11 
ROOT
ATOM      1  C   UNL d   1     -52.008  23.720  33.512  0.00  0.00     0.258 C 
ATOM      2  N   UNL d   1     -52.155  24.532  33.530  0.00  0.00    -0.321 N 
ATOM      3  O   UNL d   1     -51.244  23.449  33.420  0.00  0.00    -0.267 OA
ATOM      4  H   UNL d   1     -52.918  24.803  33.621  0.00  0.00     0.169 HD
ENDROOT
BRANCH   2   5
ATOM      5  C   UNL d   1     -51.526  25.054  33.455  0.00  0.00     0.061 A 
ATOM      6  C   UNL d   1     -51.676  25.877  33.450  0.00  0.00     0.041 A 
ATOM      7  C   UNL d   1     -51.050  26.412  33.375  0.00  0.00     0.128 A 
ATOM      8  C   UNL d   1     -50.277  26.125  33.306  0.00  0.00     0.024 A 
ATOM      9  C   UNL d   1     -50.127  25.315  33.312  0.00  0.00     0.003 A 
ATOM     10  C   UNL d   1     -50.745  24.789  33.385  0.00  0.00     0.017 A 
BRANCH   7  11
ATOM     11  N   UNL d   1     -51.193  27.221  33.369  0.00  0.00    -0.114 N 
ATOM     12  O   UNL d   1     -50.570  27.758  33.424  0.00  0.00    -0.532 OA
ATOM     13  O   UNL d   1     -51.971  27.495  33.307  0.00  0.00    -0.532 OA
ENDBRANCH   7  11
ENDBRANCH   2   5
BRANCH   1  14
ATOM     14  C   UNL d   1     -52.628  23.189  33.585  0.00  0.00     0.066 C 
BRANCH  14  15
ATOM     15  C   UNL d   1     -53.083  23.196  34.264  0.00  0.00     0.073 C 
BRANCH  15  16
ATOM     16  C   UNL d   1     -53.901  23.310  34.222  0.00  0.00     0.296 C 
ATOM     17  O   UNL d   1     -54.296  23.191  33.509  0.00  0.00    -0.259 OA
BRANCH  16  18
ATOM     18  O   UNL d   1     -54.312  23.540  34.896  0.00  0.00    -0.296 OA
ATOM     19  C   UNL d   1     -54.834  24.182  34.867  0.00  0.00     0.185 C 
ENDBRANCH  16  18
ENDBRANCH  15  16
ENDBRANCH  14  15
ENDBRANCH   1  14
TORSDOF 6
ENDMDL
