MODEL 1
REMARK VINA RESULT:      -9.0      0.000      0.000
REMARK  5 active torsions:
REMARK  status: ('A' for Active; 'I' for Inactive)
REMARK    1  A    between atoms: C_3  and  C_1 
REMARK    2  A    between atoms: C_5  and  C_3 
REMARK    3  A    between atoms: C_13  and  C_5 
REMARK    4  A    between atoms: C_10  and  C_11 
REMARK    5  A    between atoms: O_16  and  C_10 
ROOT
ATOM      1  C   UNL d   1      53.026  33.132  53.425  0.00  0.00     0.092 C 
ATOM      2  C   UNL d   1      53.379  33.406  54.121  0.00  0.00     0.103 C 
ATOM      3  N   UNL d   1      53.728  33.682  54.816  0.00  0.00    -0.191 NA
ENDROOT
BRANCH   1   4
ATOM      4  C   UNL d   1      52.314  33.459  53.166  0.00  0.00     0.120 A 
ATOM      5  N   UNL d   1      51.617  33.510  53.613  0.00  0.00    -0.238 NA
ATOM      6  C   UNL d   1      51.043  33.876  53.140  0.00  0.00     0.088 A 
ATOM      7  C   UNL d   1      50.256  34.071  53.289  0.00  0.00     0.020 A 
ATOM      8  C   UNL d   1      51.387  34.047  52.409  0.00  0.00     0.049 A 
ATOM      9  C   UNL d   1      49.811  34.441  52.698  0.00  0.00     0.002 A 
ATOM     10  C   UNL d   1      50.148  34.615  51.965  0.00  0.00     0.001 A 
ATOM     11  C   UNL d   1      50.934  34.420  51.817  0.00  0.00     0.008 A 
ATOM     12  S   UNL d   1      52.172  33.789  52.428  0.00  0.00    -0.066 SA
ENDBRANCH   1   4
BRANCH   1  13
ATOM     13  C   UNL d   1      53.392  32.531  52.996  0.00  0.00     0.012 C 
BRANCH  13  14
ATOM     14  C   UNL d   1      53.330  31.750  53.241  0.00  0.00     0.001 A 
ATOM     15  C   UNL d   1      53.744  31.489  53.896  0.00  0.00     0.000 A 
ATOM     16  C   UNL d   1      53.685  30.705  54.146  0.00  0.00     0.005 A 
ATOM     17  C   UNL d   1      53.204  30.176  53.732  0.00  0.00     0.063 A 
ATOM     18  C   UNL d   1      52.783  30.431  53.072  0.00  0.00     0.005 A 
ATOM     19  C   UNL d   1      52.843  31.220  52.821  0.00  0.00     0.000 A 
BRANCH  17  20
ATOM     20  C   UNL d   1      53.145  29.392  53.982  0.00  0.00     0.296 C 
ATOM     21  O   UNL d   1      52.800  28.824  53.482  0.00  0.00    -0.259 OA
BRANCH  20  22
ATOM     22  O   UNL d   1      53.426  29.172  54.723  0.00  0.00    -0.296 OA
ATOM     23  C   UNL d   1      53.382  28.382  54.964  0.00  0.00     0.185 C 
ENDBRANCH  20  22
ENDBRANCH  17  20
ENDBRANCH  13  14
ENDBRANCH   1  13
TORSDOF 5
ENDMDL
MODEL 2
REMARK VINA RESULT:      -8.2      3.007      4.960
REMARK  5 active torsions:
REMARK  status: ('A' for Active; 'I' for Inactive)
REMARK    1  A    between atoms: C_3  and  C_1 
REMARK    2  A    between atoms: C_5  and  C_3 
REMARK    3  A    between atoms: C_13  and  C_5 
REMARK    4  A    between atoms: C_10  and  C_11 
REMARK    5  A    between atoms: O_16  and  C_10 
ROOT
ATOM      1  C   UNL d   1      52.030  33.239  53.065  0.00  0.00     0.092 C 
ATOM      2  C   UNL d   1      51.526  32.591  53.167  0.00  0.00     0.103 C 
ATOM      3  N   UNL d   1      51.025  31.943  53.272  0.00  0.00    -0.191 NA
ENDROOT
BRANCH   1   4
ATOM      4  C   UNL d   1      52.725  33.294  53.506  0.00  0.00     0.120 A 
ATOM      5  N   UNL d   1      52.785  33.595  54.276  0.00  0.00    -0.238 NA
ATOM      6  C   UNL d   1      53.581  33.546  54.504  0.00  0.00     0.088 A 
ATOM      7  C   UNL d   1      53.963  33.760  55.202  0.00  0.00     0.020 A 
ATOM      8  C   UNL d   1      54.004  33.218  53.876  0.00  0.00     0.049 A 
ATOM      9  C   UNL d   1      54.779  33.643  55.269  0.00  0.00     0.002 A 
ATOM     10  C   UNL d   1      55.209  33.315  54.646  0.00  0.00     0.001 A 
ATOM     11  C   UNL d   1      54.828  33.102  53.949  0.00  0.00     0.008 A 
ATOM     12  S   UNL d   1      53.474  33.063  53.261  0.00  0.00    -0.066 SA
ENDBRANCH   1   4
BRANCH   1  13
ATOM     13  C   UNL d   1      51.831  33.825  52.522  0.00  0.00     0.012 C 
BRANCH  13  14
ATOM     14  C   UNL d   1      51.085  34.168  52.537  0.00  0.00     0.001 A 
ATOM     15  C   UNL d   1      50.827  34.566  53.204  0.00  0.00     0.000 A 
ATOM     16  C   UNL d   1      50.078  34.912  53.223  0.00  0.00     0.005 A 
ATOM     17  C   UNL d   1      49.582  34.857  52.565  0.00  0.00     0.063 A 
ATOM     18  C   UNL d   1      49.834  34.458  51.890  0.00  0.00     0.005 A 
ATOM     19  C   UNL d   1      50.587  34.110  51.871  0.00  0.00     0.000 A 
BRANCH  17  20
ATOM     20  C   UNL d   1      48.833  35.203  52.584  0.00  0.00     0.296 C 
ATOM     21  O   UNL d   1      48.317  35.106  51.941  0.00  0.00    -0.259 OA
BRANCH  20  22
ATOM     22  O   UNL d   1      48.598  35.642  53.239  0.00  0.00    -0.296 OA
ATOM     23  C   UNL d   1      47.876  36.048  53.227  0.00  0.00     0.185 C 
ENDBRANCH  20  22
ENDBRANCH  17  20
ENDBRANCH  13  14
ENDBRANCH   1  13
TORSDOF 5
ENDMDL
MODEL 3
REMARK VINA RESULT:      -7.8      2.250      4.628
REMARK  5 active torsions:
REMARK  status: ('A' for Active; 'I' for Inactive)
REMARK    1  A    between atoms: C_3  and  C_1 
REMARK    2  A    between atoms: C_5  and  C_3 
REMARK    3  A    between atoms: C_13  and  C_5 
REMARK    4  A    between atoms: C_10  and  C_11 
REMARK    5  A    between atoms: O_16  and  C_10 
ROOT
ATOM      1  C   UNL d   1      53.239  32.471  53.522  0.00  0.00     0.092 C 
ATOM      2  C   UNL d   1      53.559  33.017  54.056  0.00  0.00     0.103 C 
ATOM      3  N   UNL d   1      53.878  33.557  54.591  0.00  0.00    -0.191 NA
ENDROOT
BRANCH   1   4
ATOM      4  C   UNL d   1      53.267  31.664  53.690  0.00  0.00     0.120 A 
ATOM      5  N   UNL d   1      53.220  31.328  54.447  0.00  0.00    -0.238 NA
ATOM      6  C   UNL d   1      53.270  30.505  54.359  0.00  0.00     0.088 A 
ATOM      7  C   UNL d   1      53.255  29.895  54.913  0.00  0.00     0.020 A 
ATOM      8  C   UNL d   1      53.346  30.340  53.554  0.00  0.00     0.049 A 
ATOM      9  C   UNL d   1      53.317  29.112  54.655  0.00  0.00     0.002 A 
ATOM     10  C   UNL d   1      53.393  28.939  53.852  0.00  0.00     0.001 A 
ATOM     11  C   UNL d   1      53.408  29.548  53.299  0.00  0.00     0.008 A 
ATOM     12  S   UNL d   1      53.344  31.057  53.143  0.00  0.00    -0.066 SA
ENDBRANCH   1   4
BRANCH   1  13
ATOM     13  C   UNL d   1      52.896  32.743  52.824  0.00  0.00     0.012 C 
BRANCH  13  14
ATOM     14  C   UNL d   1      52.225  33.215  52.850  0.00  0.00     0.001 A 
ATOM     15  C   UNL d   1      51.510  32.906  53.100  0.00  0.00     0.000 A 
ATOM     16  C   UNL d   1      50.834  33.378  53.126  0.00  0.00     0.005 A 
ATOM     17  C   UNL d   1      50.876  34.171  52.899  0.00  0.00     0.063 A 
ATOM     18  C   UNL d   1      51.591  34.490  52.646  0.00  0.00     0.005 A 
ATOM     19  C   UNL d   1      52.272  34.016  52.619  0.00  0.00     0.000 A 
BRANCH  17  20
ATOM     20  C   UNL d   1      50.200  34.643  52.926  0.00  0.00     0.296 C 
ATOM     21  O   UNL d   1      50.118  35.214  53.524  0.00  0.00    -0.259 OA
BRANCH  20  22
ATOM     22  O   UNL d   1      49.608  34.549  52.362  0.00  0.00    -0.296 OA
ATOM     23  C   UNL d   1      48.943  35.042  52.374  0.00  0.00     0.185 C 
ENDBRANCH  20  22
ENDBRANCH  17  20
ENDBRANCH  13  14
ENDBRANCH   1  13
TORSDOF 5
ENDMDL
MODEL 4
REMARK VINA RESULT:      -7.7      1.192      2.141
REMARK  5 active torsions:
REMARK  status: ('A' for Active; 'I' for Inactive)
REMARK    1  A    between atoms: C_3  and  C_1 
REMARK    2  A    between atoms: C_5  and  C_3 
REMARK    3  A    between atoms: C_13  and  C_5 
REMARK    4  A    between atoms: C_10  and  C_11 
REMARK    5  A    between atoms: O_16  and  C_10 
ROOT
ATOM      1  C   UNL d   1      52.251  32.934  53.143  0.00  0.00     0.092 C 
ATOM      2  C   UNL d   1      51.441  32.774  53.106  0.00  0.00     0.103 C 
ATOM      3  N   UNL d   1      50.631  32.618  53.071  0.00  0.00    -0.191 NA
ENDROOT
BRANCH   1   4
ATOM      4  C   UNL d   1      52.522  33.606  53.539  0.00  0.00     0.120 A 
ATOM      5  N   UNL d   1      52.723  33.643  54.343  0.00  0.00    -0.238 NA
ATOM      6  C   UNL d   1      52.965  34.419  54.505  0.00  0.00     0.088 A 
ATOM      7  C   UNL d   1      53.225  34.776  55.201  0.00  0.00     0.020 A 
ATOM      8  C   UNL d   1      52.913  34.853  53.805  0.00  0.00     0.049 A 
ATOM      9  C   UNL d   1      53.433  35.576  55.193  0.00  0.00     0.002 A 
ATOM     10  C   UNL d   1      53.383  36.016  54.497  0.00  0.00     0.001 A 
ATOM     11  C   UNL d   1      53.124  35.660  53.802  0.00  0.00     0.008 A 
ATOM     12  S   UNL d   1      52.639  34.349  53.210  0.00  0.00    -0.066 SA
ENDBRANCH   1   4
BRANCH   1  13
ATOM     13  C   UNL d   1      52.782  32.418  52.783  0.00  0.00     0.012 C 
BRANCH  13  14
ATOM     14  C   UNL d   1      52.870  31.651  53.063  0.00  0.00     0.001 A 
ATOM     15  C   UNL d   1      52.300  31.086  52.904  0.00  0.00     0.000 A 
ATOM     16  C   UNL d   1      52.385  30.314  53.184  0.00  0.00     0.005 A 
ATOM     17  C   UNL d   1      53.049  30.108  53.629  0.00  0.00     0.063 A 
ATOM     18  C   UNL d   1      53.627  30.671  53.794  0.00  0.00     0.005 A 
ATOM     19  C   UNL d   1      53.542  31.447  53.512  0.00  0.00     0.000 A 
BRANCH  17  20
ATOM     20  C   UNL d   1      53.134  29.336  53.909  0.00  0.00     0.296 C 
ATOM     21  O   UNL d   1      52.993  28.695  53.400  0.00  0.00    -0.259 OA
BRANCH  20  22
ATOM     22  O   UNL d   1      53.357  29.203  54.690  0.00  0.00    -0.296 OA
ATOM     23  C   UNL d   1      53.426  28.428  54.973  0.00  0.00     0.185 C 
ENDBRANCH  20  22
ENDBRANCH  17  20
ENDBRANCH  13  14
ENDBRANCH   1  13
TORSDOF 5
ENDMDL
MODEL 5
REMARK VINA RESULT:      -7.6      2.695      3.519
REMARK  5 active torsions:
REMARK  status: ('A' for Active; 'I' for Inactive)
REMARK    1  A    between atoms: C_3  and  C_1 
REMARK    2  A    between atoms: C_5  and  C_3 
REMARK    3  A    between atoms: C_13  and  C_5 
REMARK    4  A    between atoms: C_10  and  C_11 
REMARK    5  A    between atoms: O_16  and  C_10 
ROOT
ATOM      1  C   UNL d   1      50.713  34.083  52.724  0.00  0.00     0.092 C 
ATOM      2  C   UNL d   1      50.691  33.320  53.043  0.00  0.00     0.103 C 
ATOM      3  N   UNL d   1      50.664  32.559  53.363  0.00  0.00    -0.191 NA
ENDROOT
BRANCH   1   4
ATOM      4  C   UNL d   1      50.012  34.502  52.606  0.00  0.00     0.120 A 
ATOM      5  N   UNL d   1      49.641  34.987  53.167  0.00  0.00    -0.238 NA
ATOM      6  C   UNL d   1      48.956  35.297  52.816  0.00  0.00     0.088 A 
ATOM      7  C   UNL d   1      48.377  35.806  53.106  0.00  0.00     0.020 A 
ATOM      8  C   UNL d   1      48.910  35.003  52.046  0.00  0.00     0.049 A 
ATOM      9  C   UNL d   1      47.746  36.022  52.617  0.00  0.00     0.002 A 
ATOM     10  C   UNL d   1      47.693  35.732  51.847  0.00  0.00     0.001 A 
ATOM     11  C   UNL d   1      48.271  35.223  51.557  0.00  0.00     0.008 A 
ATOM     12  S   UNL d   1      49.563  34.512  51.918  0.00  0.00    -0.066 SA
ENDBRANCH   1   4
BRANCH   1  13
ATOM     13  C   UNL d   1      51.439  34.417  52.526  0.00  0.00     0.012 C 
BRANCH  13  14
ATOM     14  C   UNL d   1      52.075  34.361  53.042  0.00  0.00     0.001 A 
ATOM     15  C   UNL d   1      52.164  34.901  53.650  0.00  0.00     0.000 A 
ATOM     16  C   UNL d   1      52.802  34.848  54.171  0.00  0.00     0.005 A 
ATOM     17  C   UNL d   1      53.358  34.244  54.080  0.00  0.00     0.063 A 
ATOM     18  C   UNL d   1      53.277  33.696  53.471  0.00  0.00     0.005 A 
ATOM     19  C   UNL d   1      52.635  33.750  52.947  0.00  0.00     0.000 A 
BRANCH  17  20
ATOM     20  C   UNL d   1      53.996  34.191  54.600  0.00  0.00     0.296 C 
ATOM     21  O   UNL d   1      54.432  34.872  54.791  0.00  0.00    -0.259 OA
BRANCH  20  22
ATOM     22  O   UNL d   1      54.201  33.465  54.930  0.00  0.00    -0.296 OA
ATOM     23  C   UNL d   1      54.842  33.413  55.450  0.00  0.00     0.185 C 
ENDBRANCH  20  22
ENDBRANCH  17  20
ENDBRANCH  13  14
ENDBRANCH   1  13
TORSDOF 5
ENDMDL
