MODEL 1
REMARK VINA RESULT:      17.5      0.000      0.000
REMARK  2 active torsions:
REMARK  status: ('A' for Active; 'I' for Inactive)
REMARK    1  A    between atoms: C_6  and  N_1 
REMARK    2  A    between atoms: C_7  and  C_6 
ROOT
ATOM      1  N   UNL d   1      58.343  49.659  50.301  0.00  0.00    -0.287 N 
ATOM      2  N   UNL d   1      57.404  49.648  51.227  0.00  0.00    -0.224 NA
ATOM      3  C   UNL d   1      58.220  49.703  51.111  0.00  0.00     0.183 A 
ATOM      4  C   UNL d   1      57.633  49.580  49.926  0.00  0.00     0.083 A 
ATOM      5  C   UNL d   1      57.046  49.573  50.505  0.00  0.00     0.099 A 
ATOM      6  C   UNL d   1      57.428  49.511  49.131  0.00  0.00     0.019 A 
ATOM      7  C   UNL d   1      56.253  49.498  50.289  0.00  0.00     0.021 A 
ATOM      8  C   UNL d   1      56.636  49.436  48.913  0.00  0.00     0.002 A 
ATOM      9  C   UNL d   1      56.048  49.429  49.492  0.00  0.00     0.002 A 
ENDROOT
BRANCH   1  10
ATOM     10  C   UNL d   1      59.145  49.706  50.086  0.00  0.00     0.082 C 
BRANCH  10  11
ATOM     11  C   UNL d   1      59.723  49.686  50.662  0.00  0.00     0.018 A 
ATOM     12  C   UNL d   1      60.517  49.646  50.442  0.00  0.00     0.002 A 
ATOM     13  C   UNL d   1      61.105  49.625  51.020  0.00  0.00     0.011 A 
ATOM     14  C   UNL d   1      60.899  49.644  51.819  0.00  0.00     0.058 A 
ATOM     15  C   UNL d   1      60.112  49.683  52.010  0.00  0.00     0.011 A 
ATOM     16 CL   UNL d   1      61.498  49.622  52.370  0.00  0.00    -0.082 Cl
ATOM     17  C   UNL d   1      59.517  49.705  51.460  0.00  0.00     0.002 A 
ENDBRANCH  10  11
ENDBRANCH   1  10
TORSDOF 2
ENDMDL
