MODEL 1
REMARK VINA RESULT:      32.6      0.000      0.000
REMARK  5 active torsions:
REMARK  status: ('A' for Active; 'I' for Inactive)
REMARK    1  A    between atoms: N_2  and  C_1 
REMARK       I    between atoms: N_4  and  C_5 
REMARK    2  A    between atoms: C_5  and  C_9 
REMARK    3  A    between atoms: C_18  and  N_6 
REMARK    4  A    between atoms: C_10  and  C_8 
REMARK    5  A    between atoms: C_9  and  C_10 
ROOT
ATOM      1  N   UNL d   1      14.802  13.054  -0.841  0.00  0.00    -0.269 N 
ATOM      2  C   UNL d   1      14.655  12.225  -0.854  0.00  0.00     0.265 C 
ATOM      3  N   UNL d   1      15.095  14.671  -0.770  0.00  0.00    -0.301 N 
ATOM      4  C   UNL d   1      14.783  13.507  -1.531  0.00  0.00     0.102 A 
ATOM      5  C   UNL d   1      14.969  13.413  -0.113  0.00  0.00     0.102 A 
ATOM      6  C   UNL d   1      14.928  14.310  -1.500  0.00  0.00     0.100 A 
ATOM      7  C   UNL d   1      15.118  14.231  -0.069  0.00  0.00     0.100 A 
ATOM      8  O   UNL d   1      14.678  11.784  -0.153  0.00  0.00    -0.267 OA
ENDROOT
BRANCH   2   9
ATOM      9  C   UNL d   1      14.488  11.857  -1.577  0.00  0.00     0.062 C 
BRANCH   9  10
ATOM     10  C   UNL d   1      13.712  11.812  -1.866  0.00  0.00     0.011 C 
BRANCH  10  11
ATOM     11  C   UNL d   1      13.545  11.845  -2.677  0.00  0.00     0.031 A 
ATOM     12  S   UNL d   1      14.043  11.779  -3.339  0.00  0.00    -0.064 SA
ATOM     13  C   UNL d   1      13.561  11.856  -4.008  0.00  0.00     0.156 A 
ATOM     14  C   UNL d   1      12.807  11.963  -3.767  0.00  0.00     0.031 A 
ATOM     15  C   UNL d   1      12.771  11.960  -2.949  0.00  0.00     0.009 A 
BRANCH  13  16
ATOM     16  N   UNL d   1      13.802  11.829  -4.821  0.00  0.00    -0.107 N 
ATOM     17  O   UNL d   1      14.602  11.787  -4.996  0.00  0.00    -0.531 OA
ATOM     18  O   UNL d   1      13.222  11.846  -5.411  0.00  0.00    -0.531 OA
ENDBRANCH  13  16
ENDBRANCH  10  11
ENDBRANCH   9  10
ENDBRANCH   2   9
BRANCH   3  19
ATOM     19  C   UNL d   1      15.242  15.482  -0.737  0.00  0.00     0.064 A 
ATOM     20  C   UNL d   1      14.834  15.991  -1.226  0.00  0.00     0.018 A 
ATOM     21  C   UNL d   1      14.983  16.818  -1.192  0.00  0.00     0.002 A 
ATOM     22  C   UNL d   1      15.537  17.100  -0.667  0.00  0.00     0.000 A 
ATOM     23  C   UNL d   1      15.952  16.588  -0.171  0.00  0.00     0.002 A 
ATOM     24  C   UNL d   1      15.802  15.778  -0.208  0.00  0.00     0.018 A 
ENDBRANCH   3  19
TORSDOF 5
ENDMDL
