MODEL 1
REMARK VINA RESULT:      19.2      0.000      0.000
REMARK  3 active torsions:
REMARK  status: ('A' for Active; 'I' for Inactive)
REMARK    1  A    between atoms: C_6  and  N_1 
REMARK    2  A    between atoms: C_5  and  C_9 
REMARK    3  A    between atoms: C_14  and  C_6 
ROOT
ATOM      1  C   UNL d   1      15.309  15.164  -0.181  0.00  0.00     0.064 A 
ATOM      2  C   UNL d   1      15.924  14.627  -0.065  0.00  0.00     0.006 A 
ATOM      3  C   UNL d   1      14.534  14.895  -0.250  0.00  0.00     0.006 A 
ATOM      4  C   UNL d   1      14.986  13.549  -0.086  0.00  0.00     0.018 A 
ATOM      5  C   UNL d   1      15.764  13.821  -0.017  0.00  0.00     0.002 A 
ATOM      6  C   UNL d   1      14.371  14.086  -0.203  0.00  0.00     0.002 A 
ENDROOT
BRANCH   4   7
ATOM      7  C   UNL d   1      14.826  12.742  -0.038  0.00  0.00     0.084 C 
BRANCH   7   8
ATOM      8  N   UNL d   1      14.426  12.363  -0.652  0.00  0.00    -0.259 N 
ATOM      9  C   UNL d   1      13.627  12.136  -0.641  0.00  0.00     0.153 A 
ATOM     10  S   UNL d   1      13.463  11.780  -1.361  0.00  0.00    -0.053 SA
ATOM     11  S   UNL d   1      13.101  12.252  -0.015  0.00  0.00    -0.052 SA
ATOM     12  C   UNL d   1      14.152  11.785  -1.814  0.00  0.00     0.099 A 
ATOM     13  C   UNL d   1      14.746  12.145  -1.376  0.00  0.00     0.272 A 
ATOM     14  O   UNL d   1      15.529  12.269  -1.616  0.00  0.00    -0.266 OA
ENDBRANCH   7   8
ENDBRANCH   4   7
BRANCH   1  15
ATOM     15  C   UNL d   1      15.475  15.976  -0.229  0.00  0.00     0.211 C 
ATOM     16  O   UNL d   1      14.863  16.526  -0.208  0.00  0.00    -0.644 OA
ATOM     17  O   UNL d   1      16.257  16.231  -0.296  0.00  0.00    -0.644 OA
ENDBRANCH   1  15
TORSDOF 3
ENDMDL
