MODEL 1
REMARK VINA RESULT:      53.7      0.000      0.000
REMARK  2 active torsions:
REMARK  status: ('A' for Active; 'I' for Inactive)
REMARK    1  A    between atoms: C_3  and  N_1 
REMARK    2  A    between atoms: C_12  and  C_9 
ROOT
ATOM      1  C   UNL d   1      13.727  13.185  -2.424  0.00  0.00     0.187 A 
ATOM      2  N   UNL d   1      13.937  13.987  -2.363  0.00  0.00    -0.129 NA
ATOM      3  N   UNL d   1      13.874  14.477  -3.023  0.00  0.00    -0.147 NA
ATOM      4  C   UNL d   1      13.459  12.881  -3.138  0.00  0.00     0.039 A 
ATOM      5  C   UNL d   1      13.602  14.165  -3.745  0.00  0.00     0.103 A 
ATOM      6  C   UNL d   1      13.396  13.371  -3.799  0.00  0.00     0.022 A 
ATOM      7  C   UNL d   1      13.251  12.083  -3.196  0.00  0.00     0.003 A 
ATOM      8  C   UNL d   1      13.125  13.064  -4.517  0.00  0.00     0.002 A 
ATOM      9  C   UNL d   1      12.920  12.270  -4.570  0.00  0.00     0.000 A 
ATOM     10  C   UNL d   1      12.983  11.780  -3.910  0.00  0.00     0.000 A 
ENDROOT
BRANCH   1  11
ATOM     11  N   UNL d   1      13.790  12.694  -1.763  0.00  0.00    -0.191 N 
ATOM     12  N   UNL d   1      13.327  12.069  -1.460  0.00  0.00    -0.058 NA
ATOM     13  N   UNL d   1      13.659  11.779  -0.776  0.00  0.00    -0.129 NA
ATOM     14  C   UNL d   1      14.348  12.216  -0.625  0.00  0.00     0.122 A 
ATOM     15  C   UNL d   1      14.430  12.787  -1.240  0.00  0.00     0.105 A 
ATOM     16  C   UNL d   1      14.907  12.176  -0.021  0.00  0.00     0.022 A 
ATOM     17  C   UNL d   1      15.073  13.300  -1.228  0.00  0.00     0.021 A 
ATOM     18  C   UNL d   1      15.639  13.242  -0.595  0.00  0.00     0.002 A 
ATOM     19  C   UNL d   1      15.525  12.676  -0.017  0.00  0.00     0.002 A 
ENDBRANCH   1  11
BRANCH   5  20
ATOM     20  C   UNL d   1      13.539  14.655  -4.405  0.00  0.00     0.020 A 
ATOM     21  C   UNL d   1      12.832  15.069  -4.545  0.00  0.00     0.004 A 
ATOM     22  C   UNL d   1      12.769  15.560  -5.206  0.00  0.00     0.030 A 
ATOM     23  C   UNL d   1      13.413  15.636  -5.726  0.00  0.00     0.140 A 
ATOM     24  C   UNL d   1      14.110  15.224  -5.583  0.00  0.00     0.030 A 
ATOM     25  F   UNL d   1      13.350  16.126  -6.387  0.00  0.00    -0.204 F 
ATOM     26  C   UNL d   1      14.173  14.734  -4.922  0.00  0.00     0.004 A 
ENDBRANCH   5  20
TORSDOF 2
ENDMDL
