MODEL 1
REMARK VINA RESULT:      -3.2      0.000      0.000
REMARK  4 active torsions:
REMARK  status: ('A' for Active; 'I' for Inactive)
REMARK    1  A    between atoms: C_14  and  C_2 
REMARK    2  A    between atoms: C_4  and  C_5 
REMARK    3  A    between atoms: C_5  and  O_9 
REMARK    4  A    between atoms: O_9  and  C_14 
ROOT
ATOM      1  N   UNL d   1      33.171  21.245 -22.197  0.00  0.00    -0.236 NA
ATOM      2  C   UNL d   1      32.971  20.581 -21.768  0.00  0.00     0.136 A 
ATOM      3  S   UNL d   1      32.546  20.823 -21.091  0.00  0.00    -0.064 SA
ATOM      4  C   UNL d   1      32.874  21.905 -21.794  0.00  0.00     0.088 A 
ATOM      5  C   UNL d   1      32.491  21.648 -21.117  0.00  0.00     0.049 A 
ATOM      6  C   UNL d   1      32.908  22.711 -21.967  0.00  0.00     0.020 A 
ATOM      7  C   UNL d   1      32.142  22.202 -20.611  0.00  0.00     0.008 A 
ATOM      8  C   UNL d   1      32.174  23.014 -20.780  0.00  0.00     0.001 A 
ATOM      9  C   UNL d   1      32.557  23.269 -21.458  0.00  0.00     0.002 A 
ENDROOT
BRANCH   2  10
ATOM     10  C   UNL d   1      33.139  19.801 -21.939  0.00  0.00     0.152 C 
BRANCH  10  11
ATOM     11  O   UNL d   1      32.871  19.498 -22.672  0.00  0.00    -0.269 OA
BRANCH  11  12
ATOM     12  C   UNL d   1      32.938  18.674 -22.832  0.00  0.00     0.306 C 
ATOM     13  O   UNL d   1      33.241  18.167 -22.250  0.00  0.00    -0.258 OA
BRANCH  12  14
ATOM     14  C   UNL d   1      32.698  18.357 -23.584  0.00  0.00     0.093 A 
ATOM     15  S   UNL d   1      33.082  18.335 -24.308  0.00  0.00    -0.081 SA
ATOM     16  C   UNL d   1      32.573  17.954 -24.838  0.00  0.00     0.036 A 
ATOM     17  C   UNL d   1      31.898  17.751 -24.444  0.00  0.00     0.008 A 
ATOM     18  C   UNL d   1      31.966  17.997 -23.664  0.00  0.00     0.012 A 
ENDBRANCH  12  14
ENDBRANCH  11  12
ENDBRANCH  10  11
ENDBRANCH   2  10
TORSDOF 4
ENDMDL
MODEL 2
REMARK VINA RESULT:      -2.8      2.908      5.568
REMARK  4 active torsions:
REMARK  status: ('A' for Active; 'I' for Inactive)
REMARK    1  A    between atoms: C_14  and  C_2 
REMARK    2  A    between atoms: C_4  and  C_5 
REMARK    3  A    between atoms: C_5  and  O_9 
REMARK    4  A    between atoms: O_9  and  C_14 
ROOT
ATOM      1  N   UNL d   1      30.374  16.039 -23.179  0.00  0.00    -0.236 NA
ATOM      2  C   UNL d   1      30.847  16.159 -23.833  0.00  0.00     0.136 A 
ATOM      3  S   UNL d   1      30.388  16.029 -24.517  0.00  0.00    -0.064 SA
ATOM      4  C   UNL d   1      29.619  15.833 -23.449  0.00  0.00     0.088 A 
ATOM      5  C   UNL d   1      29.626  15.827 -24.267  0.00  0.00     0.049 A 
ATOM      6  C   UNL d   1      28.925  15.651 -23.041  0.00  0.00     0.020 A 
ATOM      7  C   UNL d   1      28.934  15.637 -24.680  0.00  0.00     0.008 A 
ATOM      8  C   UNL d   1      28.233  15.453 -24.275  0.00  0.00     0.001 A 
ATOM      9  C   UNL d   1      28.228  15.460 -23.455  0.00  0.00     0.002 A 
ENDROOT
BRANCH   2  10
ATOM     10  C   UNL d   1      31.635  16.370 -23.852  0.00  0.00     0.152 C 
BRANCH  10  11
ATOM     11  O   UNL d   1      31.839  17.134 -23.577  0.00  0.00    -0.269 OA
BRANCH  11  12
ATOM     12  C   UNL d   1      32.649  17.359 -23.534  0.00  0.00     0.306 C 
ATOM     13  O   UNL d   1      33.240  16.797 -23.685  0.00  0.00    -0.258 OA
BRANCH  12  14
ATOM     14  C   UNL d   1      32.868  18.157 -23.337  0.00  0.00     0.093 A 
ATOM     15  S   UNL d   1      32.937  18.829 -23.802  0.00  0.00    -0.081 SA
ATOM     16  C   UNL d   1      33.170  19.445 -23.302  0.00  0.00     0.036 A 
ATOM     17  C   UNL d   1      33.241  19.154 -22.553  0.00  0.00     0.008 A 
ATOM     18  C   UNL d   1      33.055  18.354 -22.564  0.00  0.00     0.012 A 
ENDBRANCH  12  14
ENDBRANCH  11  12
ENDBRANCH  10  11
ENDBRANCH   2  10
TORSDOF 4
ENDMDL
MODEL 3
REMARK VINA RESULT:      -2.7      1.104      4.486
REMARK  4 active torsions:
REMARK  status: ('A' for Active; 'I' for Inactive)
REMARK    1  A    between atoms: C_14  and  C_2 
REMARK    2  A    between atoms: C_4  and  C_5 
REMARK    3  A    between atoms: C_5  and  O_9 
REMARK    4  A    between atoms: O_9  and  C_14 
ROOT
ATOM      1  N   UNL d   1      32.535  18.950 -23.482  0.00  0.00    -0.236 NA
ATOM      2  C   UNL d   1      32.971  18.746 -22.823  0.00  0.00     0.136 A 
ATOM      3  S   UNL d   1      33.112  17.924 -22.844  0.00  0.00    -0.064 SA
ATOM      4  C   UNL d   1      32.402  18.259 -23.918  0.00  0.00     0.088 A 
ATOM      5  C   UNL d   1      32.754  17.631 -23.530  0.00  0.00     0.049 A 
ATOM      6  C   UNL d   1      31.998  18.131 -24.627  0.00  0.00     0.020 A 
ATOM      7  C   UNL d   1      32.702  16.870 -23.852  0.00  0.00     0.008 A 
ATOM      8  C   UNL d   1      32.297  16.736 -24.565  0.00  0.00     0.001 A 
ATOM      9  C   UNL d   1      31.945  17.366 -24.952  0.00  0.00     0.002 A 
ENDROOT
BRANCH   2  10
ATOM     10  C   UNL d   1      33.239  19.234 -22.226  0.00  0.00     0.152 C 
BRANCH  10  11
ATOM     11  O   UNL d   1      32.867  19.979 -22.137  0.00  0.00    -0.269 OA
BRANCH  11  12
ATOM     12  C   UNL d   1      32.965  20.411 -21.421  0.00  0.00     0.306 C 
ATOM     13  O   UNL d   1      33.241  20.022 -20.743  0.00  0.00    -0.258 OA
BRANCH  12  14
ATOM     14  C   UNL d   1      32.783  21.241 -21.386  0.00  0.00     0.093 A 
ATOM     15  S   UNL d   1      33.069  21.875 -21.821  0.00  0.00    -0.081 SA
ATOM     16  C   UNL d   1      32.686  22.552 -21.538  0.00  0.00     0.036 A 
ATOM     17  C   UNL d   1      32.182  22.333 -20.947  0.00  0.00     0.008 A 
ATOM     18  C   UNL d   1      32.235  21.520 -20.845  0.00  0.00     0.012 A 
ENDBRANCH  12  14
ENDBRANCH  11  12
ENDBRANCH  10  11
ENDBRANCH   2  10
TORSDOF 4
ENDMDL
MODEL 4
REMARK VINA RESULT:      -2.7      1.357      1.923
REMARK  4 active torsions:
REMARK  status: ('A' for Active; 'I' for Inactive)
REMARK    1  A    between atoms: C_14  and  C_2 
REMARK    2  A    between atoms: C_4  and  C_5 
REMARK    3  A    between atoms: C_5  and  O_9 
REMARK    4  A    between atoms: O_9  and  C_14 
ROOT
ATOM      1  N   UNL d   1      33.216  19.319 -21.846  0.00  0.00    -0.236 NA
ATOM      2  C   UNL d   1      33.228  19.330 -22.661  0.00  0.00     0.136 A 
ATOM      3  S   UNL d   1      33.240  20.125 -22.914  0.00  0.00    -0.064 SA
ATOM      4  C   UNL d   1      33.219  20.105 -21.584  0.00  0.00     0.088 A 
ATOM      5  C   UNL d   1      33.234  20.599 -22.236  0.00  0.00     0.049 A 
ATOM      6  C   UNL d   1      33.211  20.426 -20.824  0.00  0.00     0.020 A 
ATOM      7  C   UNL d   1      33.241  21.419 -22.127  0.00  0.00     0.008 A 
ATOM      8  C   UNL d   1      33.232  21.748 -21.364  0.00  0.00     0.001 A 
ATOM      9  C   UNL d   1      33.217  21.252 -20.713  0.00  0.00     0.002 A 
ENDROOT
BRANCH   2  10
ATOM     10  C   UNL d   1      33.230  18.694 -23.173  0.00  0.00     0.152 C 
BRANCH  10  11
ATOM     11  O   UNL d   1      32.519  18.261 -23.256  0.00  0.00    -0.269 OA
BRANCH  11  12
ATOM     12  C   UNL d   1      32.500  17.580 -23.751  0.00  0.00     0.306 C 
ATOM     13  O   UNL d   1      33.196  17.322 -24.120  0.00  0.00    -0.258 OA
BRANCH  12  14
ATOM     14  C   UNL d   1      31.775  17.154 -23.876  0.00  0.00     0.093 A 
ATOM     15  S   UNL d   1      31.136  17.308 -24.367  0.00  0.00    -0.081 SA
ATOM     16  C   UNL d   1      30.591  16.696 -24.252  0.00  0.00     0.036 A 
ATOM     17  C   UNL d   1      30.893  16.184 -23.705  0.00  0.00     0.008 A 
ATOM     18  C   UNL d   1      31.629  16.460 -23.466  0.00  0.00     0.012 A 
ENDBRANCH  12  14
ENDBRANCH  11  12
ENDBRANCH  10  11
ENDBRANCH   2  10
TORSDOF 4
ENDMDL
MODEL 5
REMARK VINA RESULT:      -1.1      3.178      4.460
REMARK  4 active torsions:
REMARK  status: ('A' for Active; 'I' for Inactive)
REMARK    1  A    between atoms: C_14  and  C_2 
REMARK    2  A    between atoms: C_4  and  C_5 
REMARK    3  A    between atoms: C_5  and  O_9 
REMARK    4  A    between atoms: O_9  and  C_14 
ROOT
ATOM      1  N   UNL d   1      32.363  17.183 -24.473  0.00  0.00    -0.236 NA
ATOM      2  C   UNL d   1      31.948  17.047 -23.784  0.00  0.00     0.136 A 
ATOM      3  S   UNL d   1      31.941  17.752 -23.337  0.00  0.00    -0.064 SA
ATOM      4  C   UNL d   1      32.618  17.971 -24.461  0.00  0.00     0.088 A 
ATOM      5  C   UNL d   1      32.361  18.320 -23.767  0.00  0.00     0.049 A 
ATOM      6  C   UNL d   1      33.057  18.410 -25.006  0.00  0.00     0.020 A 
ATOM      7  C   UNL d   1      32.544  19.113 -23.617  0.00  0.00     0.008 A 
ATOM      8  C   UNL d   1      32.985  19.560 -24.161  0.00  0.00     0.001 A 
ATOM      9  C   UNL d   1      33.241  19.208 -24.855  0.00  0.00     0.002 A 
ENDROOT
BRANCH   2  10
ATOM     10  C   UNL d   1      31.588  16.356 -23.542  0.00  0.00     0.152 C 
BRANCH  10  11
ATOM     11  O   UNL d   1      30.814  16.202 -23.822  0.00  0.00    -0.269 OA
BRANCH  11  12
ATOM     12  C   UNL d   1      30.265  15.797 -23.330  0.00  0.00     0.306 C 
ATOM     13  O   UNL d   1      30.526  15.453 -22.622  0.00  0.00    -0.258 OA
BRANCH  12  14
ATOM     14  C   UNL d   1      29.446  15.736 -23.550  0.00  0.00     0.093 A 
ATOM     15  S   UNL d   1      29.090  15.629 -24.282  0.00  0.00    -0.081 SA
ATOM     16  C   UNL d   1      28.273  15.613 -24.152  0.00  0.00     0.036 A 
ATOM     17  C   UNL d   1      28.138  15.707 -23.361  0.00  0.00     0.008 A 
ATOM     18  C   UNL d   1      28.861  15.785 -22.979  0.00  0.00     0.012 A 
ENDBRANCH  12  14
ENDBRANCH  11  12
ENDBRANCH  10  11
ENDBRANCH   2  10
TORSDOF 4
ENDMDL
MODEL 6
REMARK VINA RESULT:      -1.1      1.421      2.160
REMARK  4 active torsions:
REMARK  status: ('A' for Active; 'I' for Inactive)
REMARK    1  A    between atoms: C_14  and  C_2 
REMARK    2  A    between atoms: C_4  and  C_5 
REMARK    3  A    between atoms: C_5  and  O_9 
REMARK    4  A    between atoms: O_9  and  C_14 
ROOT
ATOM      1  N   UNL d   1      33.007  21.618 -20.371  0.00  0.00    -0.236 NA
ATOM      2  C   UNL d   1      32.987  22.022 -21.080  0.00  0.00     0.136 A 
ATOM      3  S   UNL d   1      32.927  22.838 -20.916  0.00  0.00    -0.064 SA
ATOM      4  C   UNL d   1      32.960  22.177 -19.762  0.00  0.00     0.088 A 
ATOM      5  C   UNL d   1      32.910  22.924 -20.094  0.00  0.00     0.049 A 
ATOM      6  C   UNL d   1      32.955  22.090 -18.941  0.00  0.00     0.020 A 
ATOM      7  C   UNL d   1      32.856  23.587 -19.602  0.00  0.00     0.008 A 
ATOM      8  C   UNL d   1      32.852  23.505 -18.775  0.00  0.00     0.001 A 
ATOM      9  C   UNL d   1      32.901  22.757 -18.445  0.00  0.00     0.002 A 
ENDROOT
BRANCH   2  10
ATOM     10  C   UNL d   1      33.019  21.714 -21.835  0.00  0.00     0.152 C 
BRANCH  10  11
ATOM     11  O   UNL d   1      33.241  20.911 -21.918  0.00  0.00    -0.269 OA
BRANCH  11  12
ATOM     12  C   UNL d   1      33.221  20.550 -22.678  0.00  0.00     0.306 C 
ATOM     13  O   UNL d   1      33.202  21.024 -23.358  0.00  0.00    -0.258 OA
BRANCH  12  14
ATOM     14  C   UNL d   1      33.219  19.703 -22.756  0.00  0.00     0.093 A 
ATOM     15  S   UNL d   1      33.218  19.222 -23.421  0.00  0.00    -0.081 SA
ATOM     16  C   UNL d   1      33.217  18.440 -23.151  0.00  0.00     0.036 A 
ATOM     17  C   UNL d   1      33.217  18.447 -22.344  0.00  0.00     0.008 A 
ATOM     18  C   UNL d   1      33.218  19.228 -22.089  0.00  0.00     0.012 A 
ENDBRANCH  12  14
ENDBRANCH  11  12
ENDBRANCH  10  11
ENDBRANCH   2  10
TORSDOF 4
ENDMDL
MODEL 7
REMARK VINA RESULT:      -1.1      2.800      3.982
REMARK  4 active torsions:
REMARK  status: ('A' for Active; 'I' for Inactive)
REMARK    1  A    between atoms: C_14  and  C_2 
REMARK    2  A    between atoms: C_4  and  C_5 
REMARK    3  A    between atoms: C_5  and  O_9 
REMARK    4  A    between atoms: O_9  and  C_14 
ROOT
ATOM      1  N   UNL d   1      32.074  22.562 -18.609  0.00  0.00    -0.236 NA
ATOM      2  C   UNL d   1      32.510  22.983 -19.155  0.00  0.00     0.136 A 
ATOM      3  S   UNL d   1      33.029  23.489 -18.742  0.00  0.00    -0.064 SA
ATOM      4  C   UNL d   1      32.316  22.801 -17.854  0.00  0.00     0.088 A 
ATOM      5  C   UNL d   1      32.901  23.369 -17.934  0.00  0.00     0.049 A 
ATOM      6  C   UNL d   1      32.070  22.566 -17.103  0.00  0.00     0.020 A 
ATOM      7  C   UNL d   1      33.241  23.702 -17.257  0.00  0.00     0.008 A 
ATOM      8  C   UNL d   1      32.997  23.470 -16.498  0.00  0.00     0.001 A 
ATOM      9  C   UNL d   1      32.412  22.901 -16.421  0.00  0.00     0.002 A 
ENDROOT
BRANCH   2  10
ATOM     10  C   UNL d   1      32.472  22.942 -19.969  0.00  0.00     0.152 C 
BRANCH  10  11
ATOM     11  O   UNL d   1      32.667  22.213 -20.330  0.00  0.00    -0.269 OA
BRANCH  11  12
ATOM     12  C   UNL d   1      32.531  22.106 -21.154  0.00  0.00     0.306 C 
ATOM     13  O   UNL d   1      32.170  22.711 -21.592  0.00  0.00    -0.258 OA
BRANCH  12  14
ATOM     14  C   UNL d   1      32.759  21.384 -21.542  0.00  0.00     0.093 A 
ATOM     15  S   UNL d   1      33.204  21.252 -22.219  0.00  0.00    -0.081 SA
ATOM     16  C   UNL d   1      33.241  20.433 -22.326  0.00  0.00     0.036 A 
ATOM     17  C   UNL d   1      32.828  20.078 -21.730  0.00  0.00     0.008 A 
ATOM     18  C   UNL d   1      32.525  20.661 -21.237  0.00  0.00     0.012 A 
ENDBRANCH  12  14
ENDBRANCH  11  12
ENDBRANCH  10  11
ENDBRANCH   2  10
TORSDOF 4
ENDMDL
