MODEL 1
REMARK VINA RESULT:      51.0      0.000      0.000
REMARK  2 active torsions:
REMARK  status: ('A' for Active; 'I' for Inactive)
REMARK       I    between atoms: C_6  and  N_1 
REMARK    1  A    between atoms: C_7  and  C_3 
REMARK    2  A    between atoms: C_8  and  C_4 
ROOT
ATOM      1  N   UNL d   1      59.391  49.453  51.513  0.00  0.00    -0.195 N 
ATOM      2  N   UNL d   1      58.581  49.512  51.502  0.00  0.00    -0.163 NA
ATOM      3  C   UNL d   1      58.349  49.528  50.710  0.00  0.00     0.106 A 
ATOM      4  C   UNL d   1      59.662  49.432  50.734  0.00  0.00     0.088 A 
ATOM      5  C   UNL d   1      59.014  49.479  50.245  0.00  0.00     0.040 A 
ATOM      6  C   UNL d   1      59.890  49.417  52.205  0.00  0.00     0.281 C 
ATOM      7  O   UNL d   1      60.684  49.360  52.136  0.00  0.00    -0.265 OA
ATOM      8  C   UNL d   1      59.527  49.445  52.947  0.00  0.00     0.068 C 
ENDROOT
BRANCH   3   9
ATOM      9  C   UNL d   1      57.572  49.584  50.438  0.00  0.00     0.058 A 
ATOM     10  C   UNL d   1      56.950  49.652  50.975  0.00  0.00     0.197 A 
ATOM     11  O   UNL d   1      57.126  49.661  51.766  0.00  0.00    -0.286 OA
ATOM     12  C   UNL d   1      56.196  49.706  50.684  0.00  0.00     0.042 A 
ATOM     13  C   UNL d   1      56.036  49.696  49.913  0.00  0.00     0.003 A 
ATOM     14  C   UNL d   1      56.659  49.628  49.375  0.00  0.00     0.000 A 
ATOM     15  C   UNL d   1      57.418  49.573  49.628  0.00  0.00     0.005 A 
ENDBRANCH   3   9
BRANCH   4  16
ATOM     16  C   UNL d   1      60.456  49.374  50.500  0.00  0.00     0.018 A 
ATOM     17  C   UNL d   1      60.687  49.509  49.727  0.00  0.00     0.002 A 
ATOM     18  C   UNL d   1      60.095  49.706  49.184  0.00  0.00     0.000 C 
ATOM     19  C   UNL d   1      61.451  49.455  49.492  0.00  0.00     0.000 A 
ATOM     20  C   UNL d   1      62.042  49.258  50.034  0.00  0.00     0.000 A 
ATOM     21  C   UNL d   1      61.848  49.114  50.829  0.00  0.00     0.000 A 
ATOM     22  C   UNL d   1      61.051  49.177  51.039  0.00  0.00     0.002 A 
ENDBRANCH   4  16
TORSDOF 2
ENDMDL
