MODEL 1
REMARK VINA RESULT:      14.0      0.000      0.000
REMARK  6 active torsions:
REMARK  status: ('A' for Active; 'I' for Inactive)
REMARK    1  A    between atoms: C_3  and  C_4 
REMARK    2  A    between atoms: C_9  and  O_18 
REMARK    3  A    between atoms: O_17  and  C_10 
REMARK    4  A    between atoms: C_21  and  O_17 
REMARK    5  A    between atoms: O_18  and  C_20 
REMARK    6  A    between atoms: C_20  and  C_21 
ROOT
ATOM      1  N   UNL d   1      46.631 -20.275  44.245  0.00  0.00    -0.191 NA
ATOM      2  C   UNL d   1      46.465 -19.489  44.201  0.00  0.00     0.101 C 
ATOM      3  C   UNL d   1      46.296 -18.687  44.155  0.00  0.00     0.068 A 
ATOM      4  C   UNL d   1      45.956 -17.078  44.065  0.00  0.00     0.100 A 
ATOM      5  C   UNL d   1      46.646 -18.225  43.574  0.00  0.00     0.012 A 
ATOM      6  C   UNL d   1      45.773 -18.346  44.696  0.00  0.00     0.012 A 
ATOM      7  C   UNL d   1      45.602 -17.540  44.650  0.00  0.00     0.025 A 
ATOM      8  C   UNL d   1      46.476 -17.419  43.528  0.00  0.00     0.025 A 
ENDROOT
BRANCH   4   9
ATOM      9  O   UNL d   1      45.784 -16.268  44.019  0.00  0.00    -0.303 OA
BRANCH   9  10
ATOM     10  C   UNL d   1      46.329 -15.717  44.302  0.00  0.00     0.149 C 
BRANCH  10  11
ATOM     11  C   UNL d   1      46.138 -15.248  44.953  0.00  0.00     0.149 C 
BRANCH  11  12
ATOM     12  O   UNL d   1      46.319 -14.438  44.953  0.00  0.00    -0.303 OA
BRANCH  12  13
ATOM     13  C   UNL d   1      45.890 -13.905  44.459  0.00  0.00     0.100 A 
ATOM     14  C   UNL d   1      45.879 -13.099  44.635  0.00  0.00     0.025 A 
ATOM     15  C   UNL d   1      45.460 -12.578  44.152  0.00  0.00     0.005 A 
ATOM     16  C   UNL d   1      45.053 -12.865  43.494  0.00  0.00     0.039 A 
ATOM     17  C   UNL d   1      45.066 -13.665  43.322  0.00  0.00     0.005 A 
ATOM     18  C   UNL d   1      45.485 -14.186  43.806  0.00  0.00     0.025 A 
BRANCH  16  19
ATOM     19  C   UNL d   1      44.632 -12.342  43.008  0.00  0.00     0.196 C 
ATOM     20  O   UNL d   1      43.891 -12.080  43.233  0.00  0.00    -0.287 OA
ATOM     21  C   UNL d   1      44.963 -12.086  42.297  0.00  0.00     0.045 C 
ENDBRANCH  16  19
ENDBRANCH  12  13
ENDBRANCH  11  12
ENDBRANCH  10  11
ENDBRANCH   9  10
ENDBRANCH   4   9
TORSDOF 6
ENDMDL
