MODEL 1
REMARK VINA RESULT:      25.2      0.000      0.000
REMARK  3 active torsions:
REMARK  status: ('A' for Active; 'I' for Inactive)
REMARK    1  A    between atoms: S_9  and  C_2 
REMARK    2  A    between atoms: C_15  and  S_9 
REMARK    3  A    between atoms: C_14  and  C_15 
ROOT
ATOM      1  C   UNL d   1      57.297  49.559  51.035  0.00  0.00     0.119 A 
ATOM      2  C   UNL d   1      56.813  49.497  50.366  0.00  0.00     0.119 A 
ATOM      3  O   UNL d   1      56.812  49.535  51.696  0.00  0.00    -0.300 OA
ATOM      4  O   UNL d   1      56.035  49.436  50.622  0.00  0.00    -0.300 OA
ATOM      5  C   UNL d   1      56.038  49.460  51.438  0.00  0.00     0.304 A 
ATOM      6  C   UNL d   1      58.108  49.627  50.949  0.00  0.00     0.027 A 
ATOM      7  C   UNL d   1      57.149  49.505  49.624  0.00  0.00     0.026 A 
ATOM      8  C   UNL d   1      58.446  49.635  50.196  0.00  0.00     0.009 A 
ATOM      9  C   UNL d   1      57.962  49.574  49.527  0.00  0.00     0.003 A 
ENDROOT
BRANCH   8  10
ATOM     10  C   UNL d   1      59.260  49.704  50.108  0.00  0.00     0.037 C 
BRANCH  10  11
ATOM     11  S   UNL d   1      59.758  49.073  50.308  0.00  0.00    -0.059 SA
BRANCH  11  12
ATOM     12  C   UNL d   1      60.447  49.208  50.784  0.00  0.00     0.164 A 
ATOM     13  S   UNL d   1      60.439  49.403  51.594  0.00  0.00    -0.039 SA
ATOM     14  C   UNL d   1      61.245  49.486  51.842  0.00  0.00     0.134 A 
ATOM     15  N   UNL d   1      61.723  49.342  51.184  0.00  0.00    -0.140 NA
ATOM     16  C   UNL d   1      61.495  49.681  52.617  0.00  0.00     0.030 C 
ATOM     17  N   UNL d   1      61.235  49.168  50.522  0.00  0.00    -0.134 NA
ENDBRANCH  11  12
ENDBRANCH  10  11
ENDBRANCH   8  10
TORSDOF 3
ENDMDL
