MODEL 1
REMARK VINA RESULT:      -3.4      0.000      0.000
REMARK  4 active torsions:
REMARK  status: ('A' for Active; 'I' for Inactive)
REMARK    1  A    between atoms: N_2  and  S_1 
REMARK    2  A    between atoms: C_3  and  S_1 
REMARK    3  A    between atoms: N_6  and  N_2 
REMARK    4  A    between atoms: C_9  and  N_6 
ROOT
ATOM      1  S   UNL d   1      33.175  19.748 -22.260  0.00  0.00     0.302 S 
ATOM      2  O   UNL d   1      33.108  20.225 -22.947  0.00  0.00    -0.197 OA
ATOM      3  O   UNL d   1      33.241  19.280 -21.589  0.00  0.00    -0.197 OA
ENDROOT
BRANCH   1   4
ATOM      4  N   UNL d   1      33.241  20.437 -21.789  0.00  0.00    -0.054 NA
BRANCH   4   5
ATOM      5  N   UNL d   1      32.608  20.685 -21.358  0.00  0.00    -0.137 NA
BRANCH   5   6
ATOM      6  C   UNL d   1      32.671  21.353 -20.855  0.00  0.00     0.104 A 
ATOM      7  C   UNL d   1      33.189  21.344 -20.224  0.00  0.00     0.021 A 
ATOM      8  C   UNL d   1      33.238  22.009 -19.740  0.00  0.00     0.002 A 
ATOM      9  C   UNL d   1      32.773  22.662 -19.896  0.00  0.00     0.000 A 
ATOM     10  C   UNL d   1      32.260  22.665 -20.525  0.00  0.00     0.002 A 
ATOM     11  C   UNL d   1      32.834  23.337 -19.391  0.00  0.00     0.000 C 
ATOM     12  C   UNL d   1      32.201  22.009 -21.015  0.00  0.00     0.021 A 
ENDBRANCH   5   6
ENDBRANCH   4   5
ENDBRANCH   1   4
BRANCH   1  13
ATOM     13  C   UNL d   1      33.110  19.071 -22.726  0.00  0.00     0.107 A 
ATOM     14  C   UNL d   1      33.241  18.330 -22.401  0.00  0.00     0.013 A 
ATOM     15  C   UNL d   1      33.171  17.663 -22.882  0.00  0.00     0.001 A 
ATOM     16  C   UNL d   1      32.971  17.737 -23.688  0.00  0.00     0.000 A 
ATOM     17  C   UNL d   1      32.838  18.488 -24.019  0.00  0.00     0.001 A 
ATOM     18  C   UNL d   1      32.903  17.055 -24.171  0.00  0.00     0.000 C 
ATOM     19  C   UNL d   1      32.913  19.142 -23.521  0.00  0.00     0.013 A 
ENDBRANCH   1  13
TORSDOF 4
ENDMDL
MODEL 2
REMARK VINA RESULT:      -3.3      0.891      4.599
REMARK  4 active torsions:
REMARK  status: ('A' for Active; 'I' for Inactive)
REMARK    1  A    between atoms: N_2  and  S_1 
REMARK    2  A    between atoms: C_3  and  S_1 
REMARK    3  A    between atoms: N_6  and  N_2 
REMARK    4  A    between atoms: C_9  and  N_6 
ROOT
ATOM      1  S   UNL d   1      33.024  20.316 -21.956  0.00  0.00     0.302 S 
ATOM      2  O   UNL d   1      33.219  20.640 -22.705  0.00  0.00    -0.197 OA
ATOM      3  O   UNL d   1      32.833  20.001 -21.222  0.00  0.00    -0.197 OA
ENDROOT
BRANCH   1   4
ATOM      4  N   UNL d   1      33.138  19.545 -22.260  0.00  0.00    -0.054 NA
BRANCH   4   5
ATOM      5  N   UNL d   1      32.791  19.337 -22.956  0.00  0.00    -0.137 NA
BRANCH   5   6
ATOM      6  C   UNL d   1      32.727  18.530 -23.176  0.00  0.00     0.104 A 
ATOM      7  C   UNL d   1      33.241  17.979 -22.862  0.00  0.00     0.021 A 
ATOM      8  C   UNL d   1      33.165  17.189 -23.089  0.00  0.00     0.002 A 
ATOM      9  C   UNL d   1      32.582  16.973 -23.618  0.00  0.00     0.000 A 
ATOM     10  C   UNL d   1      32.075  17.525 -23.926  0.00  0.00     0.002 A 
ATOM     11  C   UNL d   1      32.516  16.159 -23.842  0.00  0.00     0.000 C 
ATOM     12  C   UNL d   1      32.140  18.314 -23.709  0.00  0.00     0.021 A 
ENDBRANCH   5   6
ENDBRANCH   4   5
ENDBRANCH   1   4
BRANCH   1  13
ATOM     13  C   UNL d   1      32.912  21.077 -21.659  0.00  0.00     0.107 A 
ATOM     14  C   UNL d   1      32.476  21.195 -20.975  0.00  0.00     0.013 A 
ATOM     15  C   UNL d   1      32.374  21.964 -20.692  0.00  0.00     0.001 A 
ATOM     16  C   UNL d   1      32.708  22.614 -21.093  0.00  0.00     0.000 A 
ATOM     17  C   UNL d   1      33.150  22.496 -21.787  0.00  0.00     0.001 A 
ATOM     18  C   UNL d   1      32.600  23.393 -20.800  0.00  0.00     0.000 C 
ATOM     19  C   UNL d   1      33.241  21.720 -22.053  0.00  0.00     0.013 A 
ENDBRANCH   1  13
TORSDOF 4
ENDMDL
MODEL 3
REMARK VINA RESULT:      -3.2      1.197      1.655
REMARK  4 active torsions:
REMARK  status: ('A' for Active; 'I' for Inactive)
REMARK    1  A    between atoms: N_2  and  S_1 
REMARK    2  A    between atoms: C_3  and  S_1 
REMARK    3  A    between atoms: N_6  and  N_2 
REMARK    4  A    between atoms: C_9  and  N_6 
ROOT
ATOM      1  S   UNL d   1      32.795  18.612 -23.122  0.00  0.00     0.302 S 
ATOM      2  O   UNL d   1      32.439  18.886 -23.831  0.00  0.00    -0.197 OA
ATOM      3  O   UNL d   1      33.143  18.342 -22.429  0.00  0.00    -0.197 OA
ENDROOT
BRANCH   1   4
ATOM      4  N   UNL d   1      32.944  19.402 -22.892  0.00  0.00    -0.054 NA
BRANCH   4   5
ATOM      5  N   UNL d   1      32.912  19.601 -22.112  0.00  0.00    -0.137 NA
BRANCH   5   6
ATOM      6  C   UNL d   1      32.870  20.407 -21.880  0.00  0.00     0.104 A 
ATOM      7  C   UNL d   1      33.235  20.981 -22.329  0.00  0.00     0.021 A 
ATOM      8  C   UNL d   1      33.184  21.768 -22.087  0.00  0.00     0.002 A 
ATOM      9  C   UNL d   1      32.774  21.958 -21.406  0.00  0.00     0.000 A 
ATOM     10  C   UNL d   1      32.414  21.382 -20.964  0.00  0.00     0.002 A 
ATOM     11  C   UNL d   1      32.730  22.769 -21.170  0.00  0.00     0.000 C 
ATOM     12  C   UNL d   1      32.457  20.595 -21.195  0.00  0.00     0.021 A 
ENDBRANCH   5   6
ENDBRANCH   4   5
ENDBRANCH   1   4
BRANCH   1  13
ATOM     13  C   UNL d   1      32.647  17.834 -23.352  0.00  0.00     0.107 A 
ATOM     14  C   UNL d   1      33.240  17.268 -23.306  0.00  0.00     0.013 A 
ATOM     15  C   UNL d   1      33.074  16.495 -23.540  0.00  0.00     0.001 A 
ATOM     16  C   UNL d   1      32.316  16.286 -23.819  0.00  0.00     0.000 A 
ATOM     17  C   UNL d   1      31.715  16.858 -23.865  0.00  0.00     0.001 A 
ATOM     18  C   UNL d   1      32.155  15.497 -24.055  0.00  0.00     0.000 C 
ATOM     19  C   UNL d   1      31.901  17.626 -23.627  0.00  0.00     0.013 A 
ENDBRANCH   1  13
TORSDOF 4
ENDMDL
MODEL 4
REMARK VINA RESULT:      -3.1      0.925      4.779
REMARK  4 active torsions:
REMARK  status: ('A' for Active; 'I' for Inactive)
REMARK    1  A    between atoms: N_2  and  S_1 
REMARK    2  A    between atoms: C_3  and  S_1 
REMARK    3  A    between atoms: N_6  and  N_2 
REMARK    4  A    between atoms: C_9  and  N_6 
ROOT
ATOM      1  S   UNL d   1      33.160  20.050 -22.234  0.00  0.00     0.302 S 
ATOM      2  O   UNL d   1      33.152  19.629 -21.509  0.00  0.00    -0.197 OA
ATOM      3  O   UNL d   1      33.168  20.464 -22.943  0.00  0.00    -0.197 OA
ENDROOT
BRANCH   1   4
ATOM      4  N   UNL d   1      33.239  19.329 -22.651  0.00  0.00    -0.054 NA
BRANCH   4   5
ATOM      5  N   UNL d   1      32.616  18.819 -22.683  0.00  0.00    -0.137 NA
BRANCH   5   6
ATOM      6  C   UNL d   1      32.643  18.145 -23.182  0.00  0.00     0.104 A 
ATOM      7  C   UNL d   1      32.116  18.073 -23.801  0.00  0.00     0.021 A 
ATOM      8  C   UNL d   1      32.156  17.404 -24.282  0.00  0.00     0.002 A 
ATOM      9  C   UNL d   1      32.717  16.830 -24.134  0.00  0.00     0.000 A 
ATOM     10  C   UNL d   1      33.238  16.908 -23.518  0.00  0.00     0.002 A 
ATOM     11  C   UNL d   1      32.746  16.150 -24.636  0.00  0.00     0.000 C 
ATOM     12  C   UNL d   1      33.209  17.569 -23.031  0.00  0.00     0.021 A 
ENDBRANCH   5   6
ENDBRANCH   4   5
ENDBRANCH   1   4
BRANCH   1  13
ATOM     13  C   UNL d   1      33.083  20.760 -21.821  0.00  0.00     0.107 A 
ATOM     14  C   UNL d   1      33.227  21.475 -22.195  0.00  0.00     0.013 A 
ATOM     15  C   UNL d   1      33.144  22.175 -21.766  0.00  0.00     0.001 A 
ATOM     16  C   UNL d   1      32.918  22.160 -20.963  0.00  0.00     0.000 A 
ATOM     17  C   UNL d   1      32.773  21.436 -20.583  0.00  0.00     0.001 A 
ATOM     18  C   UNL d   1      32.837  22.876 -20.534  0.00  0.00     0.000 C 
ATOM     19  C   UNL d   1      32.860  20.747 -21.030  0.00  0.00     0.013 A 
ENDBRANCH   1  13
TORSDOF 4
ENDMDL
MODEL 5
REMARK VINA RESULT:      -1.5      0.874      4.576
REMARK  4 active torsions:
REMARK  status: ('A' for Active; 'I' for Inactive)
REMARK    1  A    between atoms: N_2  and  S_1 
REMARK    2  A    between atoms: C_3  and  S_1 
REMARK    3  A    between atoms: N_6  and  N_2 
REMARK    4  A    between atoms: C_9  and  N_6 
ROOT
ATOM      1  S   UNL d   1      32.389  20.687 -21.322  0.00  0.00     0.302 S 
ATOM      2  O   UNL d   1      32.088  21.210 -21.906  0.00  0.00    -0.197 OA
ATOM      3  O   UNL d   1      32.683  20.178 -20.750  0.00  0.00    -0.197 OA
ENDROOT
BRANCH   1   4
ATOM      4  N   UNL d   1      32.234  20.038 -21.825  0.00  0.00    -0.054 NA
BRANCH   4   5
ATOM      5  N   UNL d   1      32.846  19.584 -22.087  0.00  0.00    -0.137 NA
BRANCH   5   6
ATOM      6  C   UNL d   1      32.817  19.227 -22.846  0.00  0.00     0.104 A 
ATOM      7  C   UNL d   1      32.390  18.542 -22.960  0.00  0.00     0.021 A 
ATOM      8  C   UNL d   1      32.372  18.204 -23.713  0.00  0.00     0.002 A 
ATOM      9  C   UNL d   1      32.779  18.557 -24.326  0.00  0.00     0.000 A 
ATOM     10  C   UNL d   1      33.202  19.238 -24.206  0.00  0.00     0.002 A 
ATOM     11  C   UNL d   1      32.752  18.200 -25.093  0.00  0.00     0.000 C 
ATOM     12  C   UNL d   1      33.228  19.585 -23.462  0.00  0.00     0.021 A 
ENDBRANCH   5   6
ENDBRANCH   4   5
ENDBRANCH   1   4
BRANCH   1  13
ATOM     13  C   UNL d   1      32.540  21.330 -20.828  0.00  0.00     0.107 A 
ATOM     14  C   UNL d   1      33.103  21.273 -20.234  0.00  0.00     0.013 A 
ATOM     15  C   UNL d   1      33.241  21.926 -19.749  0.00  0.00     0.001 A 
ATOM     16  C   UNL d   1      32.817  22.636 -19.857  0.00  0.00     0.000 A 
ATOM     17  C   UNL d   1      32.246  22.695 -20.458  0.00  0.00     0.001 A 
ATOM     18  C   UNL d   1      32.963  23.295 -19.360  0.00  0.00     0.000 C 
ATOM     19  C   UNL d   1      32.123  22.031 -20.933  0.00  0.00     0.013 A 
ENDBRANCH   1  13
TORSDOF 4
ENDMDL
