MODEL 1
REMARK VINA RESULT:      -1.9      0.000      0.000
REMARK  5 active torsions:
REMARK  status: ('A' for Active; 'I' for Inactive)
REMARK    1  A    between atoms: C_7  and  N_1 
REMARK    2  A    between atoms: C_6  and  C_2 
REMARK    3  A    between atoms: C_8  and  C_6 
REMARK    4  A    between atoms: C_12  and  C_7 
REMARK    5  A    between atoms: C_9  and  C_8 
ROOT
ATOM      1  N   UNL d   1      32.934  18.388 -23.614  0.00  0.00    -0.289 N 
ATOM      2  C   UNL d   1      33.061  18.448 -22.719  0.00  0.00     0.148 A 
ATOM      3  N   UNL d   1      33.151  17.596 -22.400  0.00  0.00    -0.227 NA
ATOM      4  C   UNL d   1      32.943  17.492 -23.866  0.00  0.00     0.083 A 
ATOM      5  C   UNL d   1      33.079  16.995 -23.104  0.00  0.00     0.099 A 
ATOM      6  C   UNL d   1      32.847  17.076 -24.677  0.00  0.00     0.019 A 
ATOM      7  C   UNL d   1      33.116  16.093 -23.170  0.00  0.00     0.021 A 
ATOM      8  C   UNL d   1      32.887  16.172 -24.717  0.00  0.00     0.002 A 
ATOM      9  C   UNL d   1      33.023  15.675 -23.955  0.00  0.00     0.002 A 
ENDROOT
BRANCH   2  10
ATOM     10  C   UNL d   1      33.031  19.227 -22.653  0.00  0.00     0.037 C 
BRANCH  10  11
ATOM     11  C   UNL d   1      33.239  19.628 -21.994  0.00  0.00     0.003 C 
BRANCH  11  12
ATOM     12  C   UNL d   1      32.943  20.360 -21.806  0.00  0.00     0.000 A 
ATOM     13  C   UNL d   1      33.241  21.026 -22.194  0.00  0.00     0.000 A 
ATOM     14  C   UNL d   1      32.945  21.769 -22.008  0.00  0.00     0.000 A 
ATOM     15  C   UNL d   1      32.362  21.856 -21.446  0.00  0.00     0.000 A 
ATOM     16  C   UNL d   1      32.064  21.191 -21.058  0.00  0.00     0.000 A 
ATOM     17  C   UNL d   1      32.359  20.461 -21.245  0.00  0.00     0.000 A 
ENDBRANCH  11  12
ENDBRANCH  10  11
ENDBRANCH   2  10
BRANCH   1  18
ATOM     18  C   UNL d   1      32.819  18.403 -24.406  0.00  0.00     0.082 C 
BRANCH  18  19
ATOM     19  C   UNL d   1      32.623  19.130 -24.755  0.00  0.00     0.018 C 
ATOM     20  C   UNL d   1      33.231  19.633 -24.988  0.00  0.00     0.002 C 
ATOM     21  C   UNL d   1      32.063  19.659 -25.015  0.00  0.00     0.002 C 
ENDBRANCH  18  19
ENDBRANCH   1  18
TORSDOF 5
ENDMDL
MODEL 2
REMARK VINA RESULT:      -1.7      1.506      4.495
REMARK  5 active torsions:
REMARK  status: ('A' for Active; 'I' for Inactive)
REMARK    1  A    between atoms: C_7  and  N_1 
REMARK    2  A    between atoms: C_6  and  C_2 
REMARK    3  A    between atoms: C_8  and  C_6 
REMARK    4  A    between atoms: C_12  and  C_7 
REMARK    5  A    between atoms: C_9  and  C_8 
ROOT
ATOM      1  N   UNL d   1      33.130  20.611 -23.419  0.00  0.00    -0.289 N 
ATOM      2  C   UNL d   1      33.046  20.126 -24.180  0.00  0.00     0.148 A 
ATOM      3  N   UNL d   1      33.019  20.718 -24.877  0.00  0.00    -0.227 NA
ATOM      4  C   UNL d   1      33.157  21.517 -23.633  0.00  0.00     0.083 A 
ATOM      5  C   UNL d   1      33.087  21.584 -24.548  0.00  0.00     0.099 A 
ATOM      6  C   UNL d   1      33.234  22.272 -23.120  0.00  0.00     0.019 A 
ATOM      7  C   UNL d   1      33.095  22.405 -24.929  0.00  0.00     0.021 A 
ATOM      8  C   UNL d   1      33.240  23.082 -23.525  0.00  0.00     0.002 A 
ATOM      9  C   UNL d   1      33.170  23.149 -24.440  0.00  0.00     0.002 A 
ENDROOT
BRANCH   2  10
ATOM     10  C   UNL d   1      33.038  19.412 -23.859  0.00  0.00     0.037 C 
BRANCH  10  11
ATOM     11  C   UNL d   1      33.125  18.735 -24.272  0.00  0.00     0.003 C 
BRANCH  11  12
ATOM     12  C   UNL d   1      32.777  18.034 -24.058  0.00  0.00     0.000 A 
ATOM     13  C   UNL d   1      31.973  17.922 -24.211  0.00  0.00     0.000 A 
ATOM     14  C   UNL d   1      31.616  17.214 -23.996  0.00  0.00     0.000 A 
ATOM     15  C   UNL d   1      32.044  16.624 -23.634  0.00  0.00     0.000 A 
ATOM     16  C   UNL d   1      32.848  16.736 -23.481  0.00  0.00     0.000 A 
ATOM     17  C   UNL d   1      33.196  17.434 -23.695  0.00  0.00     0.000 A 
ENDBRANCH  11  12
ENDBRANCH  10  11
ENDBRANCH   2  10
BRANCH   1  18
ATOM     18  C   UNL d   1      33.205  20.981 -22.713  0.00  0.00     0.082 C 
BRANCH  18  19
ATOM     19  C   UNL d   1      33.093  20.529 -22.026  0.00  0.00     0.018 C 
ATOM     20  C   UNL d   1      32.610  20.827 -21.430  0.00  0.00     0.002 C 
ATOM     21  C   UNL d   1      33.241  19.856 -21.593  0.00  0.00     0.002 C 
ENDBRANCH  18  19
ENDBRANCH   1  18
TORSDOF 5
ENDMDL
MODEL 3
REMARK VINA RESULT:      -1.7      1.543      4.579
REMARK  5 active torsions:
REMARK  status: ('A' for Active; 'I' for Inactive)
REMARK    1  A    between atoms: C_7  and  N_1 
REMARK    2  A    between atoms: C_6  and  C_2 
REMARK    3  A    between atoms: C_8  and  C_6 
REMARK    4  A    between atoms: C_12  and  C_7 
REMARK    5  A    between atoms: C_9  and  C_8 
ROOT
ATOM      1  N   UNL d   1      33.118  21.434 -22.249  0.00  0.00    -0.289 N 
ATOM      2  C   UNL d   1      33.002  20.587 -21.948  0.00  0.00     0.148 A 
ATOM      3  N   UNL d   1      32.864  20.636 -21.045  0.00  0.00    -0.227 NA
ATOM      4  C   UNL d   1      33.052  22.026 -21.533  0.00  0.00     0.083 A 
ATOM      5  C   UNL d   1      32.892  21.525 -20.778  0.00  0.00     0.099 A 
ATOM      6  C   UNL d   1      33.116  22.938 -21.477  0.00  0.00     0.019 A 
ATOM      7  C   UNL d   1      32.801  21.949 -19.984  0.00  0.00     0.021 A 
ATOM      8  C   UNL d   1      33.020  23.338 -20.671  0.00  0.00     0.002 A 
ATOM      9  C   UNL d   1      32.861  22.838 -19.915  0.00  0.00     0.002 A 
ENDROOT
BRANCH   2  10
ATOM     10  C   UNL d   1      33.081  20.213 -22.631  0.00  0.00     0.037 C 
BRANCH  10  11
ATOM     11  C   UNL d   1      33.239  19.433 -22.698  0.00  0.00     0.003 C 
BRANCH  11  12
ATOM     12  C   UNL d   1      32.935  18.965 -23.287  0.00  0.00     0.000 A 
ATOM     13  C   UNL d   1      32.405  18.364 -23.089  0.00  0.00     0.000 A 
ATOM     14  C   UNL d   1      32.094  17.888 -23.681  0.00  0.00     0.000 A 
ATOM     15  C   UNL d   1      32.302  18.002 -24.460  0.00  0.00     0.000 A 
ATOM     16  C   UNL d   1      32.833  18.603 -24.659  0.00  0.00     0.000 A 
ATOM     17  C   UNL d   1      33.136  19.070 -24.072  0.00  0.00     0.000 A 
ENDBRANCH  11  12
ENDBRANCH  10  11
ENDBRANCH   2  10
BRANCH   1  18
ATOM     18  C   UNL d   1      33.227  22.156 -22.577  0.00  0.00     0.082 C 
BRANCH  18  19
ATOM     19  C   UNL d   1      33.216  22.210 -23.405  0.00  0.00     0.018 C 
ATOM     20  C   UNL d   1      33.241  22.956 -23.753  0.00  0.00     0.002 C 
ATOM     21  C   UNL d   1      33.190  21.852 -24.135  0.00  0.00     0.002 C 
ENDBRANCH  18  19
ENDBRANCH   1  18
TORSDOF 5
ENDMDL
MODEL 4
REMARK VINA RESULT:      -1.6      1.871      2.908
REMARK  5 active torsions:
REMARK  status: ('A' for Active; 'I' for Inactive)
REMARK    1  A    between atoms: C_7  and  N_1 
REMARK    2  A    between atoms: C_6  and  C_2 
REMARK    3  A    between atoms: C_8  and  C_6 
REMARK    4  A    between atoms: C_12  and  C_7 
REMARK    5  A    between atoms: C_9  and  C_8 
ROOT
ATOM      1  N   UNL d   1      31.595  16.824 -24.110  0.00  0.00    -0.289 N 
ATOM      2  C   UNL d   1      31.527  17.726 -24.052  0.00  0.00     0.148 A 
ATOM      3  N   UNL d   1      30.690  17.954 -24.343  0.00  0.00    -0.227 NA
ATOM      4  C   UNL d   1      30.797  16.477 -24.441  0.00  0.00     0.083 A 
ATOM      5  C   UNL d   1      30.229  17.186 -24.587  0.00  0.00     0.099 A 
ATOM      6  C   UNL d   1      30.523  15.621 -24.624  0.00  0.00     0.019 A 
ATOM      7  C   UNL d   1      29.400  17.023 -24.912  0.00  0.00     0.021 A 
ATOM      8  C   UNL d   1      29.689  15.485 -24.948  0.00  0.00     0.002 A 
ATOM      9  C   UNL d   1      29.121  16.194 -25.094  0.00  0.00     0.002 A 
ENDROOT
BRANCH   2  10
ATOM     10  C   UNL d   1      32.242  17.875 -23.771  0.00  0.00     0.037 C 
BRANCH  10  11
ATOM     11  C   UNL d   1      32.648  18.547 -23.917  0.00  0.00     0.003 C 
BRANCH  11  12
ATOM     12  C   UNL d   1      32.844  19.084 -23.340  0.00  0.00     0.000 A 
ATOM     13  C   UNL d   1      32.964  19.873 -23.551  0.00  0.00     0.000 A 
ATOM     14  C   UNL d   1      33.162  20.421 -22.972  0.00  0.00     0.000 A 
ATOM     15  C   UNL d   1      33.241  20.194 -22.194  0.00  0.00     0.000 A 
ATOM     16  C   UNL d   1      33.121  19.405 -21.983  0.00  0.00     0.000 A 
ATOM     17  C   UNL d   1      32.926  18.869 -22.557  0.00  0.00     0.000 A 
ENDBRANCH  11  12
ENDBRANCH  10  11
ENDBRANCH   2  10
BRANCH   1  18
ATOM     18  C   UNL d   1      31.719  16.034 -24.138  0.00  0.00     0.082 C 
BRANCH  18  19
ATOM     19  C   UNL d   1      32.444  15.745 -23.858  0.00  0.00     0.018 C 
ATOM     20  C   UNL d   1      33.077  15.692 -24.381  0.00  0.00     0.002 C 
ATOM     21  C   UNL d   1      32.900  15.453 -23.251  0.00  0.00     0.002 C 
ENDBRANCH  18  19
ENDBRANCH   1  18
TORSDOF 5
ENDMDL
MODEL 5
REMARK VINA RESULT:      -1.0      1.123      1.756
REMARK  5 active torsions:
REMARK  status: ('A' for Active; 'I' for Inactive)
REMARK    1  A    between atoms: C_7  and  N_1 
REMARK    2  A    between atoms: C_6  and  C_2 
REMARK    3  A    between atoms: C_8  and  C_6 
REMARK    4  A    between atoms: C_12  and  C_7 
REMARK    5  A    between atoms: C_9  and  C_8 
ROOT
ATOM      1  N   UNL d   1      32.964  19.954 -23.157  0.00  0.00    -0.289 N 
ATOM      2  C   UNL d   1      32.908  19.776 -22.270  0.00  0.00     0.148 A 
ATOM      3  N   UNL d   1      32.887  18.866 -22.177  0.00  0.00    -0.227 NA
ATOM      4  C   UNL d   1      32.979  19.152 -23.631  0.00  0.00     0.083 A 
ATOM      5  C   UNL d   1      32.931  18.470 -23.016  0.00  0.00     0.099 A 
ATOM      6  C   UNL d   1      33.029  18.964 -24.526  0.00  0.00     0.019 A 
ATOM      7  C   UNL d   1      32.935  17.614 -23.310  0.00  0.00     0.021 A 
ATOM      8  C   UNL d   1      33.031  18.099 -24.795  0.00  0.00     0.002 A 
ATOM      9  C   UNL d   1      32.984  17.417 -24.180  0.00  0.00     0.002 A 
ENDROOT
BRANCH   2  10
ATOM     10  C   UNL d   1      32.904  20.513 -22.008  0.00  0.00     0.037 C 
BRANCH  10  11
ATOM     11  C   UNL d   1      32.400  20.787 -21.452  0.00  0.00     0.003 C 
BRANCH  11  12
ATOM     12  C   UNL d   1      32.554  21.438 -20.992  0.00  0.00     0.000 A 
ATOM     13  C   UNL d   1      33.081  21.367 -20.360  0.00  0.00     0.000 A 
ATOM     14  C   UNL d   1      33.240  22.023 -19.892  0.00  0.00     0.000 A 
ATOM     15  C   UNL d   1      32.887  22.740 -20.045  0.00  0.00     0.000 A 
ATOM     16  C   UNL d   1      32.361  22.811 -20.677  0.00  0.00     0.000 A 
ATOM     17  C   UNL d   1      32.206  22.162 -21.136  0.00  0.00     0.000 A 
ENDBRANCH  11  12
ENDBRANCH  10  11
ENDBRANCH   2  10
BRANCH   1  18
ATOM     18  C   UNL d   1      33.013  20.177 -23.925  0.00  0.00     0.082 C 
BRANCH  18  19
ATOM     19  C   UNL d   1      33.145  20.980 -24.086  0.00  0.00     0.018 C 
ATOM     20  C   UNL d   1      33.240  21.215 -24.869  0.00  0.00     0.002 C 
ATOM     21  C   UNL d   1      33.238  21.745 -23.828  0.00  0.00     0.002 C 
ENDBRANCH  18  19
ENDBRANCH   1  18
TORSDOF 5
ENDMDL
MODEL 6
REMARK VINA RESULT:      -0.7      2.486      4.708
REMARK  5 active torsions:
REMARK  status: ('A' for Active; 'I' for Inactive)
REMARK    1  A    between atoms: C_7  and  N_1 
REMARK    2  A    between atoms: C_6  and  C_2 
REMARK    3  A    between atoms: C_8  and  C_6 
REMARK    4  A    between atoms: C_12  and  C_7 
REMARK    5  A    between atoms: C_9  and  C_8 
ROOT
ATOM      1  N   UNL d   1      31.833  17.405 -24.182  0.00  0.00    -0.289 N 
ATOM      2  C   UNL d   1      31.023  17.380 -24.588  0.00  0.00     0.148 A 
ATOM      3  N   UNL d   1      30.902  18.187 -25.001  0.00  0.00    -0.227 NA
ATOM      4  C   UNL d   1      32.230  18.233 -24.337  0.00  0.00     0.083 A 
ATOM      5  C   UNL d   1      31.645  18.724 -24.851  0.00  0.00     0.099 A 
ATOM      6  C   UNL d   1      33.032  18.593 -24.080  0.00  0.00     0.019 A 
ATOM      7  C   UNL d   1      31.877  19.564 -25.097  0.00  0.00     0.021 A 
ATOM      8  C   UNL d   1      33.241  19.435 -24.339  0.00  0.00     0.002 A 
ATOM      9  C   UNL d   1      32.657  19.926 -24.853  0.00  0.00     0.002 A 
ENDROOT
BRANCH   2  10
ATOM     10  C   UNL d   1      30.815  16.655 -24.380  0.00  0.00     0.037 C 
BRANCH  10  11
ATOM     11  C   UNL d   1      30.235  16.238 -24.735  0.00  0.00     0.003 C 
BRANCH  11  12
ATOM     12  C   UNL d   1      29.571  15.977 -24.346  0.00  0.00     0.000 A 
ATOM     13  C   UNL d   1      28.850  15.965 -24.748  0.00  0.00     0.000 A 
ATOM     14  C   UNL d   1      28.176  15.702 -24.360  0.00  0.00     0.000 A 
ATOM     15  C   UNL d   1      28.211  15.453 -23.585  0.00  0.00     0.000 A 
ATOM     16  C   UNL d   1      28.933  15.465 -23.184  0.00  0.00     0.000 A 
ATOM     17  C   UNL d   1      29.595  15.725 -23.570  0.00  0.00     0.000 A 
ENDBRANCH  11  12
ENDBRANCH  10  11
ENDBRANCH   2  10
BRANCH   1  18
ATOM     18  C   UNL d   1      32.536  17.364 -23.802  0.00  0.00     0.082 C 
BRANCH  18  19
ATOM     19  C   UNL d   1      32.781  16.623 -23.520  0.00  0.00     0.018 C 
ATOM     20  C   UNL d   1      32.970  16.545 -22.723  0.00  0.00     0.002 C 
ATOM     21  C   UNL d   1      32.948  15.838 -23.653  0.00  0.00     0.002 C 
ENDBRANCH  18  19
ENDBRANCH   1  18
TORSDOF 5
ENDMDL
MODEL 7
REMARK VINA RESULT:       0.4      3.280      4.086
REMARK  5 active torsions:
REMARK  status: ('A' for Active; 'I' for Inactive)
REMARK    1  A    between atoms: C_7  and  N_1 
REMARK    2  A    between atoms: C_6  and  C_2 
REMARK    3  A    between atoms: C_8  and  C_6 
REMARK    4  A    between atoms: C_12  and  C_7 
REMARK    5  A    between atoms: C_9  and  C_8 
ROOT
ATOM      1  N   UNL d   1      29.566  17.165 -24.147  0.00  0.00    -0.289 N 
ATOM      2  C   UNL d   1      30.354  16.750 -23.979  0.00  0.00     0.148 A 
ATOM      3  N   UNL d   1      30.175  16.037 -23.435  0.00  0.00    -0.227 NA
ATOM      4  C   UNL d   1      28.881  16.712 -23.708  0.00  0.00     0.083 A 
ATOM      5  C   UNL d   1      29.263  16.004 -23.262  0.00  0.00     0.099 A 
ATOM      6  C   UNL d   1      27.977  16.853 -23.661  0.00  0.00     0.019 A 
ATOM      7  C   UNL d   1      28.732  15.454 -22.778  0.00  0.00     0.021 A 
ATOM      8  C   UNL d   1      27.467  16.288 -23.171  0.00  0.00     0.002 A 
ATOM      9  C   UNL d   1      27.849  15.581 -22.724  0.00  0.00     0.002 A 
ENDROOT
BRANCH   2  10
ATOM     10  C   UNL d   1      30.821  17.221 -24.395  0.00  0.00     0.037 C 
BRANCH  10  11
ATOM     11  C   UNL d   1      31.611  17.125 -24.459  0.00  0.00     0.003 C 
BRANCH  11  12
ATOM     12  C   UNL d   1      32.147  17.700 -24.257  0.00  0.00     0.000 A 
ATOM     13  C   UNL d   1      32.553  18.098 -24.856  0.00  0.00     0.000 A 
ATOM     14  C   UNL d   1      33.097  18.680 -24.658  0.00  0.00     0.000 A 
ATOM     15  C   UNL d   1      33.241  18.869 -23.879  0.00  0.00     0.000 A 
ATOM     16  C   UNL d   1      32.835  18.470 -23.279  0.00  0.00     0.000 A 
ATOM     17  C   UNL d   1      32.300  17.897 -23.479  0.00  0.00     0.000 A 
ENDBRANCH  11  12
ENDBRANCH  10  11
ENDBRANCH   2  10
BRANCH   1  18
ATOM     18  C   UNL d   1      28.904  17.575 -24.334  0.00  0.00     0.082 C 
BRANCH  18  19
ATOM     19  C   UNL d   1      28.993  18.271 -24.777  0.00  0.00     0.018 C 
ATOM     20  C   UNL d   1      28.321  18.629 -25.089  0.00  0.00     0.002 C 
ATOM     21  C   UNL d   1      29.469  18.848 -25.096  0.00  0.00     0.002 C 
ENDBRANCH  18  19
ENDBRANCH   1  18
TORSDOF 5
ENDMDL
MODEL 8
REMARK VINA RESULT:       0.4      1.479      2.871
REMARK  5 active torsions:
REMARK  status: ('A' for Active; 'I' for Inactive)
REMARK    1  A    between atoms: C_7  and  N_1 
REMARK    2  A    between atoms: C_6  and  C_2 
REMARK    3  A    between atoms: C_8  and  C_6 
REMARK    4  A    between atoms: C_12  and  C_7 
REMARK    5  A    between atoms: C_9  and  C_8 
ROOT
ATOM      1  N   UNL d   1      33.020  20.191 -22.634  0.00  0.00    -0.289 N 
ATOM      2  C   UNL d   1      33.068  21.063 -22.875  0.00  0.00     0.148 A 
ATOM      3  N   UNL d   1      33.043  21.095 -23.788  0.00  0.00    -0.227 NA
ATOM      4  C   UNL d   1      32.963  19.664 -23.400  0.00  0.00     0.083 A 
ATOM      5  C   UNL d   1      32.977  20.231 -24.124  0.00  0.00     0.099 A 
ATOM      6  C   UNL d   1      32.901  18.758 -23.524  0.00  0.00     0.019 A 
ATOM      7  C   UNL d   1      32.929  19.879 -24.956  0.00  0.00     0.021 A 
ATOM      8  C   UNL d   1      32.854  18.431 -24.367  0.00  0.00     0.002 A 
ATOM      9  C   UNL d   1      32.869  18.998 -25.091  0.00  0.00     0.002 A 
ENDROOT
BRANCH   2  10
ATOM     10  C   UNL d   1      33.110  21.376 -22.158  0.00  0.00     0.037 C 
BRANCH  10  11
ATOM     11  C   UNL d   1      33.241  22.150 -22.015  0.00  0.00     0.003 C 
BRANCH  11  12
ATOM     12  C   UNL d   1      32.859  22.566 -21.432  0.00  0.00     0.000 A 
ATOM     13  C   UNL d   1      33.087  22.455 -20.646  0.00  0.00     0.000 A 
ATOM     14  C   UNL d   1      32.705  22.873 -20.051  0.00  0.00     0.000 A 
ATOM     15  C   UNL d   1      32.106  23.395 -20.228  0.00  0.00     0.000 A 
ATOM     16  C   UNL d   1      31.878  23.507 -21.014  0.00  0.00     0.000 A 
ATOM     17  C   UNL d   1      32.258  23.093 -21.597  0.00  0.00     0.000 A 
ENDBRANCH  11  12
ENDBRANCH  10  11
ENDBRANCH   2  10
BRANCH   1  18
ATOM     18  C   UNL d   1      32.980  19.441 -22.357  0.00  0.00     0.082 C 
BRANCH  18  19
ATOM     19  C   UNL d   1      33.130  19.318 -21.550  0.00  0.00     0.018 C 
ATOM     20  C   UNL d   1      33.240  18.548 -21.281  0.00  0.00     0.002 C 
ATOM     21  C   UNL d   1      33.235  19.613 -20.800  0.00  0.00     0.002 C 
ENDBRANCH  18  19
ENDBRANCH   1  18
TORSDOF 5
ENDMDL
MODEL 9
REMARK VINA RESULT:       0.5      3.093      5.387
REMARK  5 active torsions:
REMARK  status: ('A' for Active; 'I' for Inactive)
REMARK    1  A    between atoms: C_7  and  N_1 
REMARK    2  A    between atoms: C_6  and  C_2 
REMARK    3  A    between atoms: C_8  and  C_6 
REMARK    4  A    between atoms: C_12  and  C_7 
REMARK    5  A    between atoms: C_9  and  C_8 
ROOT
ATOM      1  N   UNL d   1      32.966  22.164 -20.971  0.00  0.00    -0.289 N 
ATOM      2  C   UNL d   1      33.038  22.966 -21.388  0.00  0.00     0.148 A 
ATOM      3  N   UNL d   1      33.111  23.604 -20.737  0.00  0.00    -0.227 NA
ATOM      4  C   UNL d   1      32.994  22.294 -20.049  0.00  0.00     0.083 A 
ATOM      5  C   UNL d   1      33.085  23.198 -19.903  0.00  0.00     0.099 A 
ATOM      6  C   UNL d   1      32.949  21.714 -19.341  0.00  0.00     0.019 A 
ATOM      7  C   UNL d   1      33.128  23.501 -19.051  0.00  0.00     0.021 A 
ATOM      8  C   UNL d   1      32.994  22.043 -18.498  0.00  0.00     0.002 A 
ATOM      9  C   UNL d   1      33.085  22.946 -18.352  0.00  0.00     0.002 A 
ENDROOT
BRANCH   2  10
ATOM     10  C   UNL d   1      33.001  22.712 -22.127  0.00  0.00     0.037 C 
BRANCH  10  11
ATOM     11  C   UNL d   1      32.792  23.169 -22.747  0.00  0.00     0.003 C 
BRANCH  11  12
ATOM     12  C   UNL d   1      32.938  22.967 -23.520  0.00  0.00     0.000 A 
ATOM     13  C   UNL d   1      33.055  23.567 -24.075  0.00  0.00     0.000 A 
ATOM     14  C   UNL d   1      33.203  23.368 -24.858  0.00  0.00     0.000 A 
ATOM     15  C   UNL d   1      33.235  22.589 -25.092  0.00  0.00     0.000 A 
ATOM     16  C   UNL d   1      33.118  21.989 -24.536  0.00  0.00     0.000 A 
ATOM     17  C   UNL d   1      32.972  22.189 -23.766  0.00  0.00     0.000 A 
ENDBRANCH  11  12
ENDBRANCH  10  11
ENDBRANCH   2  10
BRANCH   1  18
ATOM     18  C   UNL d   1      32.899  21.428 -20.664  0.00  0.00     0.082 C 
BRANCH  18  19
ATOM     19  C   UNL d   1      32.736  20.804 -21.186  0.00  0.00     0.018 C 
ATOM     20  C   UNL d   1      31.972  20.501 -21.213  0.00  0.00     0.002 C 
ATOM     21  C   UNL d   1      32.984  20.278 -21.755  0.00  0.00     0.002 C 
ENDBRANCH  18  19
ENDBRANCH   1  18
TORSDOF 5
ENDMDL
