MODEL 1
REMARK VINA RESULT:      -4.8      0.000      0.000
REMARK  5 active torsions:
REMARK  status: ('A' for Active; 'I' for Inactive)
REMARK    1  A    between atoms: C_4  and  C_1 
REMARK    2  A    between atoms: C_3  and  N_8 
REMARK       I    between atoms: N_8  and  C_4 
REMARK    3  A    between atoms: C_13  and  C_6 
REMARK    4  A    between atoms: C_14  and  C_10 
REMARK    5  A    between atoms: C_20  and  C_14 
ROOT
ATOM      1  C   UNL d   1      58.203  -0.619  29.875  0.00  0.00     0.083 A 
ATOM      2  C   UNL d   1      58.467  -1.406  29.921  0.00  0.00     0.032 A 
ATOM      3  C   UNL d   1      58.836  -1.590  29.212  0.00  0.00     0.100 A 
ATOM      4  C   UNL d   1      58.421  -0.329  29.126  0.00  0.00     0.105 A 
ATOM      5  O   UNL d   1      58.811  -0.935  28.722  0.00  0.00    -0.307 OA
ATOM      6  C   UNL d   1      58.266   0.433  28.849  0.00  0.00     0.027 C 
ENDROOT
BRANCH   1   7
ATOM      7  C   UNL d   1      57.801  -0.198  30.462  0.00  0.00     0.283 C 
ATOM      8  N   UNL d   1      57.717  -0.517  31.209  0.00  0.00    -0.181 NA
ATOM      9  O   UNL d   1      57.488   0.543  30.283  0.00  0.00    -0.265 OA
BRANCH   8  10
ATOM     10  C   UNL d   1      57.315  -0.096  31.793  0.00  0.00     0.216 A 
ATOM     11  N   UNL d   1      56.505  -0.072  31.891  0.00  0.00    -0.200 NA
ATOM     12  C   UNL d   1      56.341   0.408  32.532  0.00  0.00     0.175 A 
ATOM     13  N   UNL d   1      57.059   0.682  32.831  0.00  0.00    -0.187 NA
ATOM     14  S   UNL d   1      57.657   0.367  32.371  0.00  0.00     0.054 SA
BRANCH  12  15
ATOM     15  C   UNL d   1      55.601   0.587  32.826  0.00  0.00     0.082 C 
BRANCH  15  16
ATOM     16  C   UNL d   1      55.294   0.151  33.454  0.00  0.00     0.199 C 
ATOM     17  O   UNL d   1      55.011  -0.611  33.330  0.00  0.00    -0.286 OA
ATOM     18  C   UNL d   1      55.269   0.478  34.206  0.00  0.00     0.045 C 
ENDBRANCH  15  16
ENDBRANCH  12  15
ENDBRANCH   8  10
ENDBRANCH   1   7
BRANCH   3  19
ATOM     19  C   UNL d   1      59.176  -2.311  29.024  0.00  0.00     0.024 A 
ATOM     20  C   UNL d   1      59.979  -2.440  29.179  0.00  0.00     0.014 A 
ATOM     21  C   UNL d   1      60.317  -3.171  28.987  0.00  0.00     0.068 A 
ATOM     22 CL   UNL d   1      61.116  -3.297  29.142  0.00  0.00    -0.082 Cl
ATOM     23  C   UNL d   1      59.862  -3.769  28.644  0.00  0.00     0.068 A 
ATOM     24  C   UNL d   1      59.064  -3.643  28.489  0.00  0.00     0.012 A 
ATOM     25 CL   UNL d   1      60.213  -4.498  28.455  0.00  0.00    -0.082 Cl
ATOM     26  C   UNL d   1      58.715  -2.916  28.677  0.00  0.00     0.003 A 
ENDBRANCH   3  19
TORSDOF 5
ENDMDL
MODEL 2
REMARK VINA RESULT:      -3.3      2.964      5.714
REMARK  5 active torsions:
REMARK  status: ('A' for Active; 'I' for Inactive)
REMARK    1  A    between atoms: C_4  and  C_1 
REMARK    2  A    between atoms: C_3  and  N_8 
REMARK       I    between atoms: N_8  and  C_4 
REMARK    3  A    between atoms: C_13  and  C_6 
REMARK    4  A    between atoms: C_14  and  C_10 
REMARK    5  A    between atoms: C_20  and  C_14 
ROOT
ATOM      1  C   UNL d   1      57.876   0.365  31.893  0.00  0.00     0.083 A 
ATOM      2  C   UNL d   1      57.063   0.331  32.065  0.00  0.00     0.032 A 
ATOM      3  C   UNL d   1      56.965   0.525  32.856  0.00  0.00     0.100 A 
ATOM      4  C   UNL d   1      58.267   0.583  32.593  0.00  0.00     0.105 A 
ATOM      5  O   UNL d   1      57.698   0.681  33.184  0.00  0.00    -0.307 OA
ATOM      6  C   UNL d   1      59.083   0.682  32.669  0.00  0.00     0.027 C 
ENDROOT
BRANCH   1   7
ATOM      7  C   UNL d   1      58.232   0.212  31.162  0.00  0.00     0.283 C 
ATOM      8  N   UNL d   1      57.825  -0.201  30.587  0.00  0.00    -0.181 NA
ATOM      9  O   UNL d   1      58.999   0.480  31.025  0.00  0.00    -0.265 OA
BRANCH   8  10
ATOM     10  C   UNL d   1      58.182  -0.353  29.860  0.00  0.00     0.216 A 
ATOM     11  N   UNL d   1      58.570  -1.040  29.654  0.00  0.00    -0.200 NA
ATOM     12  C   UNL d   1      58.840  -0.959  28.887  0.00  0.00     0.175 A 
ATOM     13  N   UNL d   1      58.615  -0.212  28.619  0.00  0.00    -0.187 NA
ATOM     14  S   UNL d   1      58.209   0.158  29.224  0.00  0.00     0.054 SA
BRANCH  12  15
ATOM     15  C   UNL d   1      59.258  -1.514  28.458  0.00  0.00     0.082 C 
BRANCH  15  16
ATOM     16  C   UNL d   1      59.423  -2.249  28.792  0.00  0.00     0.199 C 
ATOM     17  O   UNL d   1      60.111  -2.362  29.228  0.00  0.00    -0.286 OA
ATOM     18  C   UNL d   1      58.898  -2.872  28.689  0.00  0.00     0.045 C 
ENDBRANCH  15  16
ENDBRANCH  12  15
ENDBRANCH   8  10
ENDBRANCH   1   7
BRANCH   3  19
ATOM     19  C   UNL d   1      56.250   0.558  33.253  0.00  0.00     0.024 A 
ATOM     20  C   UNL d   1      56.241   0.603  34.080  0.00  0.00     0.014 A 
ATOM     21  C   UNL d   1      55.515   0.637  34.478  0.00  0.00     0.068 A 
ATOM     22 CL   UNL d   1      55.509   0.682  35.299  0.00  0.00    -0.082 Cl
ATOM     23  C   UNL d   1      54.804   0.625  34.058  0.00  0.00     0.068 A 
ATOM     24  C   UNL d   1      54.810   0.581  33.236  0.00  0.00     0.012 A 
ATOM     25 CL   UNL d   1      54.082   0.659  34.468  0.00  0.00    -0.082 Cl
ATOM     26  C   UNL d   1      55.530   0.547  32.829  0.00  0.00     0.003 A 
ENDBRANCH   3  19
TORSDOF 5
ENDMDL
