MODEL 1
REMARK VINA RESULT:      17.7      0.000      0.000
REMARK  4 active torsions:
REMARK  status: ('A' for Active; 'I' for Inactive)
REMARK    1  A    between atoms: C_7  and  C_1 
REMARK    2  A    between atoms: N_4  and  C_9 
REMARK    3  A    between atoms: O_17  and  C_7 
REMARK    4  A    between atoms: C_18  and  O_17 
ROOT
ATOM      1  C   UNL d   1      46.433 -18.901  42.775  0.00  0.00     0.127 A 
ATOM      2  C   UNL d   1      46.473 -19.330  43.457  0.00  0.00     0.305 A 
ATOM      3  C   UNL d   1      46.260 -18.092  42.801  0.00  0.00     0.013 A 
ATOM      4  O   UNL d   1      46.342 -18.967  44.188  0.00  0.00    -0.273 OA
ATOM      5  C   UNL d   1      46.135 -17.748  43.519  0.00  0.00     0.025 A 
ATOM      6  C   UNL d   1      46.175 -18.178  44.200  0.00  0.00     0.103 A 
ATOM      7  C   UNL d   1      45.832 -16.579  44.274  0.00  0.00     0.127 A 
ATOM      8  C   UNL d   1      45.963 -16.941  43.543  0.00  0.00     0.025 A 
ATOM      9  O   UNL d   1      46.645 -20.137  43.433  0.00  0.00    -0.259 OA
ATOM     10  C   UNL d   1      46.045 -17.815  44.931  0.00  0.00     0.026 A 
ATOM     11  C   UNL d   1      45.873 -17.008  44.955  0.00  0.00     0.026 A 
ENDROOT
BRANCH   1  12
ATOM     12  C   UNL d   1      46.563 -19.263  42.046  0.00  0.00     0.305 C 
ATOM     13  O   UNL d   1      46.614 -20.087  41.989  0.00  0.00    -0.259 OA
BRANCH  12  14
ATOM     14  O   UNL d   1      46.641 -18.797  41.375  0.00  0.00    -0.271 OA
BRANCH  14  15
ATOM     15  C   UNL d   1      46.630 -19.141  40.638  0.00  0.00     0.126 C 
ATOM     16  C   UNL d   1      46.617 -18.679  39.975  0.00  0.00     0.029 C 
ENDBRANCH  14  15
ENDBRANCH  12  14
ENDBRANCH   1  12
BRANCH   7  17
ATOM     17  N   UNL d   1      45.661 -15.784  44.324  0.00  0.00    -0.114 N 
ATOM     18  O   UNL d   1      46.270 -15.255  44.404  0.00  0.00    -0.532 OA
ATOM     19  O   UNL d   1      44.892 -15.550  44.294  0.00  0.00    -0.532 OA
ENDBRANCH   7  17
TORSDOF 4
ENDMDL
MODEL 2
REMARK VINA RESULT:      18.2      7.096      7.726
REMARK  4 active torsions:
REMARK  status: ('A' for Active; 'I' for Inactive)
REMARK    1  A    between atoms: C_7  and  C_1 
REMARK    2  A    between atoms: N_4  and  C_9 
REMARK    3  A    between atoms: O_17  and  C_7 
REMARK    4  A    between atoms: C_18  and  O_17 
ROOT
ATOM      1  C   UNL d   1      43.253 -15.655  36.783  0.00  0.00     0.127 A 
ATOM      2  C   UNL d   1      43.569 -16.352  36.530  0.00  0.00     0.305 A 
ATOM      3  C   UNL d   1      43.747 -15.021  36.982  0.00  0.00     0.013 A 
ATOM      4  O   UNL d   1      44.389 -16.442  36.466  0.00  0.00    -0.273 OA
ATOM      5  C   UNL d   1      44.545 -15.120  36.916  0.00  0.00     0.025 A 
ATOM      6  C   UNL d   1      44.860 -15.817  36.662  0.00  0.00     0.103 A 
ATOM      7  C   UNL d   1      45.854 -14.577  37.050  0.00  0.00     0.127 A 
ATOM      8  C   UNL d   1      45.036 -14.487  37.114  0.00  0.00     0.025 A 
ATOM      9  O   UNL d   1      43.078 -16.985  36.332  0.00  0.00    -0.259 OA
ATOM     10  C   UNL d   1      45.678 -15.907  36.598  0.00  0.00     0.026 A 
ATOM     11  C   UNL d   1      46.169 -15.274  36.797  0.00  0.00     0.026 A 
ENDROOT
BRANCH   1  12
ATOM     12  C   UNL d   1      42.436 -15.565  36.848  0.00  0.00     0.305 C 
ATOM     13  O   UNL d   1      42.116 -14.973  37.330  0.00  0.00    -0.259 OA
BRANCH  12  14
ATOM     14  O   UNL d   1      41.942 -16.067  36.428  0.00  0.00    -0.271 OA
BRANCH  14  15
ATOM     15  C   UNL d   1      41.156 -15.879  36.335  0.00  0.00     0.126 C 
ATOM     16  C   UNL d   1      40.587 -16.435  36.478  0.00  0.00     0.029 C 
ENDBRANCH  14  15
ENDBRANCH  12  14
ENDBRANCH   1  12
BRANCH   7  17
ATOM     17  N   UNL d   1      46.360 -13.967  37.240  0.00  0.00    -0.114 N 
ATOM     18  O   UNL d   1      46.561 -13.429  36.666  0.00  0.00    -0.532 OA
ATOM     19  O   UNL d   1      46.646 -13.919  37.991  0.00  0.00    -0.532 OA
ENDBRANCH   7  17
TORSDOF 4
ENDMDL
MODEL 3
REMARK VINA RESULT:      18.9      1.699      2.562
REMARK  4 active torsions:
REMARK  status: ('A' for Active; 'I' for Inactive)
REMARK    1  A    between atoms: C_7  and  C_1 
REMARK    2  A    between atoms: N_4  and  C_9 
REMARK    3  A    between atoms: O_17  and  C_7 
REMARK    4  A    between atoms: C_18  and  O_17 
ROOT
ATOM      1  C   UNL d   1      46.040 -16.862  43.911  0.00  0.00     0.127 A 
ATOM      2  C   UNL d   1      45.625 -16.928  44.598  0.00  0.00     0.305 A 
ATOM      3  C   UNL d   1      46.145 -16.123  43.554  0.00  0.00     0.013 A 
ATOM      4  O   UNL d   1      45.299 -16.256  44.955  0.00  0.00    -0.273 OA
ATOM      5  C   UNL d   1      45.823 -15.475  43.911  0.00  0.00     0.025 A 
ATOM      6  C   UNL d   1      45.407 -15.541  44.598  0.00  0.00     0.103 A 
ATOM      7  C   UNL d   1      45.602 -14.069  43.911  0.00  0.00     0.127 A 
ATOM      8  C   UNL d   1      45.928 -14.738  43.554  0.00  0.00     0.025 A 
ATOM      9  O   UNL d   1      45.520 -17.664  44.955  0.00  0.00    -0.259 OA
ATOM     10  C   UNL d   1      45.081 -14.871  44.955  0.00  0.00     0.026 A 
ATOM     11  C   UNL d   1      45.187 -14.134  44.598  0.00  0.00     0.026 A 
ENDROOT
BRANCH   1  12
ATOM     12  C   UNL d   1      46.366 -17.531  43.554  0.00  0.00     0.305 C 
ATOM     13  O   UNL d   1      46.561 -18.196  44.008  0.00  0.00    -0.259 OA
BRANCH  12  14
ATOM     14  O   UNL d   1      46.495 -17.532  42.744  0.00  0.00    -0.271 OA
BRANCH  14  15
ATOM     15  C   UNL d   1      46.647 -18.231  42.358  0.00  0.00     0.126 C 
ATOM     16  C   UNL d   1      46.372 -18.347  41.607  0.00  0.00     0.029 C 
ENDBRANCH  14  15
ENDBRANCH  12  14
ENDBRANCH   1  12
BRANCH   7  17
ATOM     17  N   UNL d   1      45.692 -13.330  43.579  0.00  0.00    -0.114 N 
ATOM     18  O   UNL d   1      45.607 -12.674  44.049  0.00  0.00    -0.532 OA
ATOM     19  O   UNL d   1      45.862 -13.274  42.794  0.00  0.00    -0.532 OA
ENDBRANCH   7  17
TORSDOF 4
ENDMDL
MODEL 4
REMARK VINA RESULT:      19.4      6.896      7.879
REMARK  4 active torsions:
REMARK  status: ('A' for Active; 'I' for Inactive)
REMARK    1  A    between atoms: C_7  and  C_1 
REMARK    2  A    between atoms: N_4  and  C_9 
REMARK    3  A    between atoms: O_17  and  C_7 
REMARK    4  A    between atoms: C_18  and  O_17 
ROOT
ATOM      1  C   UNL d   1      45.353 -14.954  36.735  0.00  0.00     0.127 A 
ATOM      2  C   UNL d   1      45.588 -15.714  36.605  0.00  0.00     0.305 A 
ATOM      3  C   UNL d   1      44.548 -14.760  36.732  0.00  0.00     0.013 A 
ATOM      4  O   UNL d   1      45.029 -16.308  36.469  0.00  0.00    -0.273 OA
ATOM      5  C   UNL d   1      44.012 -15.347  36.598  0.00  0.00     0.025 A 
ATOM      6  C   UNL d   1      44.247 -16.107  36.469  0.00  0.00     0.103 A 
ATOM      7  C   UNL d   1      42.652 -15.745  36.460  0.00  0.00     0.127 A 
ATOM      8  C   UNL d   1      43.209 -15.152  36.596  0.00  0.00     0.025 A 
ATOM      9  O   UNL d   1      46.390 -15.909  36.607  0.00  0.00    -0.259 OA
ATOM     10  C   UNL d   1      43.690 -16.700  36.333  0.00  0.00     0.026 A 
ATOM     11  C   UNL d   1      42.887 -16.505  36.331  0.00  0.00     0.026 A 
ENDROOT
BRANCH   1  12
ATOM     12  C   UNL d   1      45.910 -14.361  36.871  0.00  0.00     0.305 C 
ATOM     13  O   UNL d   1      46.613 -14.337  36.434  0.00  0.00    -0.259 OA
BRANCH  12  14
ATOM     14  O   UNL d   1      45.760 -13.793  37.444  0.00  0.00    -0.271 OA
BRANCH  14  15
ATOM     15  C   UNL d   1      46.379 -13.418  37.814  0.00  0.00     0.126 C 
ATOM     16  C   UNL d   1      46.633 -13.671  38.539  0.00  0.00     0.029 C 
ENDBRANCH  14  15
ENDBRANCH  12  14
ENDBRANCH   1  12
BRANCH   7  17
ATOM     17  N   UNL d   1      41.854 -15.579  36.453  0.00  0.00    -0.114 N 
ATOM     18  O   UNL d   1      41.614 -14.804  36.446  0.00  0.00    -0.532 OA
ATOM     19  O   UNL d   1      41.330 -16.190  36.452  0.00  0.00    -0.532 OA
ENDBRANCH   7  17
TORSDOF 4
ENDMDL
