MODEL 1
REMARK VINA RESULT:      30.2      0.000      0.000
REMARK  2 active torsions:
REMARK  status: ('A' for Active; 'I' for Inactive)
REMARK    1  A    between atoms: C_6  and  C_2 
REMARK    2  A    between atoms: O_13  and  C_10 
ROOT
ATOM      1  C   UNL d   1     -47.581  31.349  34.935  0.00  0.00     0.026 A 
ATOM      2  C   UNL d   1     -46.932  31.861  34.865  0.00  0.00     0.004 A 
ATOM      3  C   UNL d   1     -48.270  31.526  34.533  0.00  0.00     0.004 A 
ATOM      4  C   UNL d   1     -47.678  32.700  34.002  0.00  0.00     0.094 A 
ATOM      5  C   UNL d   1     -46.972  32.534  34.403  0.00  0.00     0.024 A 
ATOM      6  C   UNL d   1     -48.320  32.213  34.058  0.00  0.00     0.024 A 
ENDROOT
BRANCH   1   7
ATOM      7  C   UNL d   1     -47.533  30.671  35.403  0.00  0.00     0.135 A 
ATOM      8  S   UNL d   1     -47.728  29.907  35.172  0.00  0.00    -0.024 SA
ATOM      9  C   UNL d   1     -47.599  29.407  35.803  0.00  0.00     0.236 A 
ATOM     10  N   UNL d   1     -47.320  29.854  36.440  0.00  0.00    -0.119 NA
ATOM     11  N   UNL d   1     -47.725  28.592  35.807  0.00  0.00    -0.118 N 
ATOM     12  N   UNL d   1     -47.279  30.642  36.191  0.00  0.00    -0.139 NA
ENDBRANCH   1   7
BRANCH   4  13
ATOM     13  O   UNL d   1     -47.716  33.377  33.538  0.00  0.00    -0.328 OA
ATOM     14  C   UNL d   1     -48.445  33.682  33.306  0.00  0.00     0.181 C 
ENDBRANCH   4  13
TORSDOF 2
ENDMDL
MODEL 2
REMARK VINA RESULT:      31.5      2.323      3.526
REMARK  2 active torsions:
REMARK  status: ('A' for Active; 'I' for Inactive)
REMARK    1  A    between atoms: C_6  and  C_2 
REMARK    2  A    between atoms: O_13  and  C_10 
ROOT
ATOM      1  C   UNL d   1     -47.652  31.384  34.798  0.00  0.00     0.026 A 
ATOM      2  C   UNL d   1     -48.033  30.710  34.501  0.00  0.00     0.004 A 
ATOM      3  C   UNL d   1     -47.258  31.333  35.512  0.00  0.00     0.004 A 
ATOM      4  C   UNL d   1     -47.616  29.966  35.631  0.00  0.00     0.094 A 
ATOM      5  C   UNL d   1     -48.020  30.002  34.909  0.00  0.00     0.024 A 
ATOM      6  C   UNL d   1     -47.239  30.613  35.936  0.00  0.00     0.024 A 
ENDROOT
BRANCH   1   7
ATOM      7  C   UNL d   1     -47.670  32.096  34.381  0.00  0.00     0.135 A 
ATOM      8  S   UNL d   1     -48.337  32.458  34.067  0.00  0.00    -0.024 SA
ATOM      9  C   UNL d   1     -48.106  33.148  33.700  0.00  0.00     0.236 A 
ATOM     10  N   UNL d   1     -47.287  33.227  33.779  0.00  0.00    -0.119 NA
ATOM     11  N   UNL d   1     -48.605  33.680  33.314  0.00  0.00    -0.118 N 
ATOM     12  N   UNL d   1     -47.015  32.571  34.204  0.00  0.00    -0.139 NA
ENDBRANCH   1   7
BRANCH   4  13
ATOM     13  O   UNL d   1     -47.604  29.254  36.041  0.00  0.00    -0.328 OA
ATOM     14  C   UNL d   1     -48.002  28.597  35.745  0.00  0.00     0.181 C 
ENDBRANCH   4  13
TORSDOF 2
ENDMDL
MODEL 3
REMARK VINA RESULT:      32.0      8.012      8.913
REMARK  2 active torsions:
REMARK  status: ('A' for Active; 'I' for Inactive)
REMARK    1  A    between atoms: C_6  and  C_2 
REMARK    2  A    between atoms: O_13  and  C_10 
ROOT
ATOM      1  C   UNL d   1     -51.905  24.121  33.848  0.00  0.00     0.026 A 
ATOM      2  C   UNL d   1     -52.397  23.726  33.309  0.00  0.00     0.004 A 
ATOM      3  C   UNL d   1     -52.211  24.348  34.570  0.00  0.00     0.004 A 
ATOM      4  C   UNL d   1     -53.473  23.801  34.227  0.00  0.00     0.094 A 
ATOM      5  C   UNL d   1     -53.177  23.564  33.490  0.00  0.00     0.024 A 
ATOM      6  C   UNL d   1     -53.008  24.186  34.764  0.00  0.00     0.024 A 
ENDROOT
BRANCH   1   7
ATOM      7  C   UNL d   1     -51.118  24.282  33.658  0.00  0.00     0.135 A 
ATOM      8  S   UNL d   1     -50.502  23.738  33.637  0.00  0.00    -0.024 SA
ATOM      9  C   UNL d   1     -49.821  24.130  33.424  0.00  0.00     0.236 A 
ATOM     10  N   UNL d   1     -50.000  24.928  33.308  0.00  0.00    -0.119 NA
ATOM     11  N   UNL d   1     -49.074  23.789  33.338  0.00  0.00    -0.118 N 
ATOM     12  N   UNL d   1     -50.810  25.023  33.454  0.00  0.00    -0.139 NA
ENDBRANCH   1   7
BRANCH   4  13
ATOM     13  O   UNL d   1     -54.258  23.636  34.408  0.00  0.00    -0.328 OA
ATOM     14  C   UNL d   1     -54.725  23.209  33.883  0.00  0.00     0.181 C 
ENDBRANCH   4  13
TORSDOF 2
ENDMDL
