MODEL 1
REMARK VINA RESULT:      -4.0      0.000      0.000
REMARK  5 active torsions:
REMARK  status: ('A' for Active; 'I' for Inactive)
REMARK    1  A    between atoms: N_2  and  S_1 
REMARK    2  A    between atoms: C_6  and  S_1 
REMARK    3  A    between atoms: C_3  and  N_2 
REMARK    4  A    between atoms: N_4  and  C_5 
REMARK    5  A    between atoms: C_9  and  N_4 
ROOT
ATOM      1  C   UNL d   1      58.295   0.068  30.008  0.00  0.00     0.110 A 
ATOM      2  C   UNL d   1      58.924   0.026  29.476  0.00  0.00     0.083 A 
ATOM      3  C   UNL d   1      57.583   0.400  29.751  0.00  0.00     0.021 A 
ATOM      4  C   UNL d   1      58.845   0.307  28.709  0.00  0.00     0.019 A 
ATOM      5  C   UNL d   1      57.504   0.681  28.983  0.00  0.00     0.002 A 
ATOM      6  C   UNL d   1      58.136   0.636  28.455  0.00  0.00     0.002 A 
ENDROOT
BRANCH   1   7
ATOM      7  N   UNL d   1      58.374  -0.213  30.776  0.00  0.00    -0.157 NA
BRANCH   7   8
ATOM      8  S   UNL d   1      57.733  -0.196  31.291  0.00  0.00     0.285 S 
ATOM      9  O   UNL d   1      57.525  -0.978  31.054  0.00  0.00    -0.198 OA
ATOM     10  O   UNL d   1      57.938   0.571  31.523  0.00  0.00    -0.198 OA
BRANCH   8  11
ATOM     11  C   UNL d   1      57.075  -0.181  31.818  0.00  0.00     0.105 A 
ATOM     12  C   UNL d   1      56.637  -0.884  31.964  0.00  0.00     0.014 A 
ATOM     13  C   UNL d   1      55.998  -0.861  32.478  0.00  0.00     0.012 A 
ATOM     14  C   UNL d   1      55.781  -0.166  32.851  0.00  0.00     0.058 A 
ATOM     15  C   UNL d   1      56.219   0.537  32.705  0.00  0.00     0.012 A 
ATOM     16 CL   UNL d   1      55.145  -0.155  33.359  0.00  0.00    -0.082 Cl
ATOM     17  C   UNL d   1      56.866   0.531  32.189  0.00  0.00     0.014 A 
ENDBRANCH   8  11
ENDBRANCH   7   8
ENDBRANCH   1   7
BRANCH   2  18
ATOM     18  N   UNL d   1      59.656  -0.316  29.744  0.00  0.00    -0.303 N 
ATOM     19  C   UNL d   1      59.988   0.003  30.402  0.00  0.00     0.100 C 
BRANCH  18  20
ATOM     20  C   UNL d   1      60.000  -0.944  29.343  0.00  0.00     0.064 A 
ATOM     21  C   UNL d   1      59.568  -1.617  29.217  0.00  0.00     0.018 A 
ATOM     22  C   UNL d   1      59.895  -2.261  28.816  0.00  0.00     0.002 A 
ATOM     23  C   UNL d   1      60.675  -2.222  28.537  0.00  0.00     0.000 A 
ATOM     24  C   UNL d   1      61.114  -1.536  28.666  0.00  0.00     0.002 A 
ATOM     25  C   UNL d   1      60.782  -0.892  29.069  0.00  0.00     0.018 A 
ENDBRANCH  18  20
ENDBRANCH   2  18
TORSDOF 5
ENDMDL
