MODEL 1
REMARK VINA RESULT:      -3.0      0.000      0.000
REMARK  4 active torsions:
REMARK  status: ('A' for Active; 'I' for Inactive)
REMARK    1  A    between atoms: C_4  and  C_1 
REMARK    2  A    between atoms: C_13  and  N_3 
REMARK    3  A    between atoms: C_11  and  N_5 
REMARK    4  A    between atoms: C_14  and  C_11 
ROOT
ATOM      1  C   UNL d   1      32.677  17.657 -23.745  0.00  0.00     0.057 A 
ATOM      2  N   UNL d   1      32.032  16.585 -24.234  0.00  0.00    -0.272 N 
ATOM      3  C   UNL d   1      32.846  16.481 -24.367  0.00  0.00     0.265 A 
ATOM      4  C   UNL d   1      31.934  17.305 -23.854  0.00  0.00     0.086 A 
ATOM      5  C   UNL d   1      33.239  17.139 -24.067  0.00  0.00     0.066 A 
ATOM      6  O   UNL d   1      33.189  15.827 -24.738  0.00  0.00    -0.267 OA
ENDROOT
BRANCH   1   7
ATOM      7  C   UNL d   1      32.778  18.382 -23.383  0.00  0.00     0.149 A 
ATOM      8  N   UNL d   1      32.700  18.580 -22.617  0.00  0.00    -0.227 NA
ATOM      9  C   UNL d   1      32.864  19.387 -22.532  0.00  0.00     0.099 A 
ATOM     10  C   UNL d   1      32.867  19.875 -21.878  0.00  0.00     0.021 A 
ATOM     11  C   UNL d   1      33.046  19.677 -23.272  0.00  0.00     0.083 A 
ATOM     12  C   UNL d   1      33.060  20.676 -21.979  0.00  0.00     0.002 A 
ATOM     13  C   UNL d   1      33.241  20.966 -22.719  0.00  0.00     0.002 A 
ATOM     14  C   UNL d   1      33.236  20.464 -23.380  0.00  0.00     0.019 A 
ATOM     15  N   UNL d   1      32.991  19.046 -23.805  0.00  0.00    -0.289 N 
BRANCH  15  16
ATOM     16  C   UNL d   1      33.130  19.079 -24.628  0.00  0.00     0.082 C 
ATOM     17  C   UNL d   1      32.806  19.708 -25.083  0.00  0.00     0.021 C 
ENDBRANCH  15  16
ENDBRANCH   1   7
BRANCH   2  18
ATOM     18  C   UNL d   1      31.425  16.052 -24.449  0.00  0.00     0.083 C 
BRANCH  18  19
ATOM     19  C   UNL d   1      30.632  16.261 -24.311  0.00  0.00     0.018 A 
ATOM     20  C   UNL d   1      30.253  15.975 -23.631  0.00  0.00     0.002 A 
ATOM     21  C   UNL d   1      29.466  16.184 -23.496  0.00  0.00     0.000 A 
ATOM     22  C   UNL d   1      29.061  16.666 -24.022  0.00  0.00     0.000 A 
ATOM     23  C   UNL d   1      29.443  16.948 -24.697  0.00  0.00     0.000 A 
ATOM     24  C   UNL d   1      30.234  16.743 -24.840  0.00  0.00     0.002 A 
ENDBRANCH  18  19
ENDBRANCH   2  18
TORSDOF 4
ENDMDL
MODEL 2
REMARK VINA RESULT:      -1.3      1.539      2.743
REMARK  4 active torsions:
REMARK  status: ('A' for Active; 'I' for Inactive)
REMARK    1  A    between atoms: C_4  and  C_1 
REMARK    2  A    between atoms: C_13  and  N_3 
REMARK    3  A    between atoms: C_11  and  N_5 
REMARK    4  A    between atoms: C_14  and  C_11 
ROOT
ATOM      1  C   UNL d   1      33.228  20.048 -22.933  0.00  0.00     0.057 A 
ATOM      2  N   UNL d   1      33.211  19.062 -23.846  0.00  0.00    -0.272 N 
ATOM      3  C   UNL d   1      33.231  19.789 -24.249  0.00  0.00     0.265 A 
ATOM      4  C   UNL d   1      33.210  19.226 -23.042  0.00  0.00     0.086 A 
ATOM      5  C   UNL d   1      33.241  20.391 -23.689  0.00  0.00     0.066 A 
ATOM      6  O   UNL d   1      33.239  19.878 -25.071  0.00  0.00    -0.267 OA
ENDROOT
BRANCH   1   7
ATOM      7  C   UNL d   1      33.230  20.400 -22.197  0.00  0.00     0.149 A 
ATOM      8  N   UNL d   1      33.233  20.066 -21.475  0.00  0.00    -0.227 NA
ATOM      9  C   UNL d   1      33.235  20.666 -20.905  0.00  0.00     0.099 A 
ATOM     10  C   UNL d   1      33.239  20.638 -20.089  0.00  0.00     0.021 A 
ATOM     11  C   UNL d   1      33.234  21.378 -21.300  0.00  0.00     0.083 A 
ATOM     12  C   UNL d   1      33.240  21.353 -19.666  0.00  0.00     0.002 A 
ATOM     13  C   UNL d   1      33.239  22.065 -20.062  0.00  0.00     0.002 A 
ATOM     14  C   UNL d   1      33.236  22.085 -20.892  0.00  0.00     0.019 A 
ATOM     15  N   UNL d   1      33.231  21.211 -22.111  0.00  0.00    -0.289 N 
BRANCH  15  16
ATOM     16  C   UNL d   1      33.229  21.770 -22.732  0.00  0.00     0.082 C 
ATOM     17  C   UNL d   1      32.818  22.498 -22.640  0.00  0.00     0.021 C 
ENDBRANCH  15  16
ENDBRANCH   1   7
BRANCH   2  18
ATOM     18  C   UNL d   1      33.197  18.303 -24.197  0.00  0.00     0.083 C 
BRANCH  18  19
ATOM     19  C   UNL d   1      32.575  17.782 -24.013  0.00  0.00     0.018 A 
ATOM     20  C   UNL d   1      32.685  17.220 -23.413  0.00  0.00     0.002 A 
ATOM     21  C   UNL d   1      32.067  16.705 -23.233  0.00  0.00     0.000 A 
ATOM     22  C   UNL d   1      31.354  16.743 -23.636  0.00  0.00     0.000 A 
ATOM     23  C   UNL d   1      31.249  17.303 -24.232  0.00  0.00     0.000 A 
ATOM     24  C   UNL d   1      31.865  17.826 -24.420  0.00  0.00     0.002 A 
ENDBRANCH  18  19
ENDBRANCH   2  18
TORSDOF 4
ENDMDL
MODEL 3
REMARK VINA RESULT:      -1.1      1.473      4.330
REMARK  4 active torsions:
REMARK  status: ('A' for Active; 'I' for Inactive)
REMARK    1  A    between atoms: C_4  and  C_1 
REMARK    2  A    between atoms: C_13  and  N_3 
REMARK    3  A    between atoms: C_11  and  N_5 
REMARK    4  A    between atoms: C_14  and  C_11 
ROOT
ATOM      1  C   UNL d   1      32.879  18.992 -23.779  0.00  0.00     0.057 A 
ATOM      2  N   UNL d   1      33.105  20.257 -23.391  0.00  0.00    -0.272 N 
ATOM      3  C   UNL d   1      33.054  20.246 -24.220  0.00  0.00     0.265 A 
ATOM      4  C   UNL d   1      32.998  19.488 -23.126  0.00  0.00     0.086 A 
ATOM      5  C   UNL d   1      32.916  19.470 -24.457  0.00  0.00     0.066 A 
ATOM      6  O   UNL d   1      33.131  20.906 -24.712  0.00  0.00    -0.267 OA
ENDROOT
BRANCH   1   7
ATOM      7  C   UNL d   1      32.755  18.188 -23.712  0.00  0.00     0.149 A 
ATOM      8  N   UNL d   1      33.241  17.621 -23.440  0.00  0.00    -0.227 NA
ATOM      9  C   UNL d   1      32.852  16.891 -23.486  0.00  0.00     0.099 A 
ATOM     10  C   UNL d   1      33.089  16.136 -23.284  0.00  0.00     0.021 A 
ATOM     11  C   UNL d   1      32.111  17.030 -23.796  0.00  0.00     0.083 A 
ATOM     12  C   UNL d   1      32.558  15.509 -23.401  0.00  0.00     0.002 A 
ATOM     13  C   UNL d   1      31.817  15.647 -23.711  0.00  0.00     0.002 A 
ATOM     14  C   UNL d   1      31.584  16.418 -23.913  0.00  0.00     0.019 A 
ATOM     15  N   UNL d   1      32.051  17.843 -23.937  0.00  0.00    -0.289 N 
BRANCH  15  16
ATOM     16  C   UNL d   1      31.389  18.243 -24.254  0.00  0.00     0.082 C 
ATOM     17  C   UNL d   1      30.772  17.807 -24.623  0.00  0.00     0.021 C 
ENDBRANCH  15  16
ENDBRANCH   1   7
BRANCH   2  18
ATOM     18  C   UNL d   1      33.241  20.930 -22.913  0.00  0.00     0.083 C 
BRANCH  18  19
ATOM     19  C   UNL d   1      32.937  20.948 -22.139  0.00  0.00     0.018 A 
ATOM     20  C   UNL d   1      32.410  21.553 -21.927  0.00  0.00     0.002 A 
ATOM     21  C   UNL d   1      32.111  21.568 -21.159  0.00  0.00     0.000 A 
ATOM     22  C   UNL d   1      32.327  20.998 -20.610  0.00  0.00     0.000 A 
ATOM     23  C   UNL d   1      32.852  20.400 -20.825  0.00  0.00     0.000 A 
ATOM     24  C   UNL d   1      33.158  20.376 -21.596  0.00  0.00     0.002 A 
ENDBRANCH  18  19
ENDBRANCH   2  18
TORSDOF 4
ENDMDL
MODEL 4
REMARK VINA RESULT:      -1.1      1.150      2.142
REMARK  4 active torsions:
REMARK  status: ('A' for Active; 'I' for Inactive)
REMARK    1  A    between atoms: C_4  and  C_1 
REMARK    2  A    between atoms: C_13  and  N_3 
REMARK    3  A    between atoms: C_11  and  N_5 
REMARK    4  A    between atoms: C_14  and  C_11 
ROOT
ATOM      1  C   UNL d   1      32.996  19.247 -23.315  0.00  0.00     0.057 A 
ATOM      2  N   UNL d   1      32.704  18.048 -23.846  0.00  0.00    -0.272 N 
ATOM      3  C   UNL d   1      33.057  17.924 -23.104  0.00  0.00     0.265 A 
ATOM      4  C   UNL d   1      32.669  18.858 -23.971  0.00  0.00     0.086 A 
ATOM      5  C   UNL d   1      33.235  18.659 -22.780  0.00  0.00     0.066 A 
ATOM      6  O   UNL d   1      33.199  17.186 -22.761  0.00  0.00    -0.267 OA
ENDROOT
BRANCH   1   7
ATOM      7  C   UNL d   1      33.048  20.060 -23.259  0.00  0.00     0.149 A 
ATOM      8  N   UNL d   1      33.132  20.603 -23.833  0.00  0.00    -0.227 NA
ATOM      9  C   UNL d   1      33.156  21.355 -23.487  0.00  0.00     0.099 A 
ATOM     10  C   UNL d   1      33.234  22.099 -23.812  0.00  0.00     0.021 A 
ATOM     11  C   UNL d   1      33.085  21.254 -22.681  0.00  0.00     0.083 A 
ATOM     12  C   UNL d   1      33.239  22.756 -23.305  0.00  0.00     0.002 A 
ATOM     13  C   UNL d   1      33.167  22.656 -22.499  0.00  0.00     0.002 A 
ATOM     14  C   UNL d   1      33.088  21.895 -22.176  0.00  0.00     0.019 A 
ATOM     15  N   UNL d   1      33.017  20.442 -22.539  0.00  0.00    -0.289 N 
BRANCH  15  16
ATOM     16  C   UNL d   1      32.931  20.075 -21.793  0.00  0.00     0.082 C 
ATOM     17  C   UNL d   1      32.724  20.535 -21.121  0.00  0.00     0.021 C 
ENDBRANCH  15  16
ENDBRANCH   1   7
BRANCH   2  18
ATOM     18  C   UNL d   1      32.435  17.455 -24.370  0.00  0.00     0.083 C 
BRANCH  18  19
ATOM     19  C   UNL d   1      31.617  17.336 -24.465  0.00  0.00     0.018 A 
ATOM     20  C   UNL d   1      31.190  17.850 -24.957  0.00  0.00     0.002 A 
ATOM     21  C   UNL d   1      30.379  17.730 -25.048  0.00  0.00     0.000 A 
ATOM     22  C   UNL d   1      29.996  17.115 -24.663  0.00  0.00     0.000 A 
ATOM     23  C   UNL d   1      30.425  16.608 -24.175  0.00  0.00     0.000 A 
ATOM     24  C   UNL d   1      31.241  16.720 -24.076  0.00  0.00     0.002 A 
ENDBRANCH  18  19
ENDBRANCH   2  18
TORSDOF 4
ENDMDL
MODEL 5
REMARK VINA RESULT:      -0.9      2.662      5.236
REMARK  4 active torsions:
REMARK  status: ('A' for Active; 'I' for Inactive)
REMARK    1  A    between atoms: C_4  and  C_1 
REMARK    2  A    between atoms: C_13  and  N_3 
REMARK    3  A    between atoms: C_11  and  N_5 
REMARK    4  A    between atoms: C_14  and  C_11 
ROOT
ATOM      1  C   UNL d   1      33.215  21.147 -23.091  0.00  0.00     0.057 A 
ATOM      2  N   UNL d   1      33.226  22.423 -22.673  0.00  0.00    -0.272 N 
ATOM      3  C   UNL d   1      33.196  22.423 -23.503  0.00  0.00     0.265 A 
ATOM      4  C   UNL d   1      33.237  21.641 -22.426  0.00  0.00     0.086 A 
ATOM      5  C   UNL d   1      33.190  21.640 -23.758  0.00  0.00     0.066 A 
ATOM      6  O   UNL d   1      33.176  23.097 -23.980  0.00  0.00    -0.267 OA
ENDROOT
BRANCH   1   7
ATOM      7  C   UNL d   1      33.220  20.332 -23.042  0.00  0.00     0.149 A 
ATOM      8  N   UNL d   1      33.219  19.863 -22.400  0.00  0.00    -0.227 NA
ATOM      9  C   UNL d   1      33.226  19.073 -22.647  0.00  0.00     0.099 A 
ATOM     10  C   UNL d   1      33.227  18.373 -22.227  0.00  0.00     0.021 A 
ATOM     11  C   UNL d   1      33.232  19.073 -23.462  0.00  0.00     0.083 A 
ATOM     12  C   UNL d   1      33.235  17.657 -22.646  0.00  0.00     0.002 A 
ATOM     13  C   UNL d   1      33.241  17.657 -23.461  0.00  0.00     0.002 A 
ATOM     14  C   UNL d   1      33.239  18.373 -23.882  0.00  0.00     0.019 A 
ATOM     15  N   UNL d   1      33.228  19.863 -23.709  0.00  0.00    -0.289 N 
BRANCH  15  16
ATOM     16  C   UNL d   1      33.233  20.135 -24.499  0.00  0.00     0.082 C 
ATOM     17  C   UNL d   1      32.840  19.693 -25.097  0.00  0.00     0.021 C 
ENDBRANCH  15  16
ENDBRANCH   1   7
BRANCH   2  18
ATOM     18  C   UNL d   1      33.241  23.098 -22.179  0.00  0.00     0.083 C 
BRANCH  18  19
ATOM     19  C   UNL d   1      32.827  23.084 -21.457  0.00  0.00     0.018 A 
ATOM     20  C   UNL d   1      32.031  23.318 -21.445  0.00  0.00     0.002 A 
ATOM     21  C   UNL d   1      31.624  23.303 -20.728  0.00  0.00     0.000 A 
ATOM     22  C   UNL d   1      31.994  23.063 -20.037  0.00  0.00     0.000 A 
ATOM     23  C   UNL d   1      32.785  22.831 -20.054  0.00  0.00     0.000 A 
ATOM     24  C   UNL d   1      33.203  22.842 -20.771  0.00  0.00     0.002 A 
ENDBRANCH  18  19
ENDBRANCH   2  18
TORSDOF 4
ENDMDL
MODEL 6
REMARK VINA RESULT:      -0.7      1.133      4.322
REMARK  4 active torsions:
REMARK  status: ('A' for Active; 'I' for Inactive)
REMARK    1  A    between atoms: C_4  and  C_1 
REMARK    2  A    between atoms: C_13  and  N_3 
REMARK    3  A    between atoms: C_11  and  N_5 
REMARK    4  A    between atoms: C_14  and  C_11 
ROOT
ATOM      1  C   UNL d   1      31.673  17.948 -24.197  0.00  0.00     0.057 A 
ATOM      2  N   UNL d   1      32.686  18.729 -23.786  0.00  0.00    -0.272 N 
ATOM      3  C   UNL d   1      32.628  18.793 -24.613  0.00  0.00     0.265 A 
ATOM      4  C   UNL d   1      32.101  18.212 -23.537  0.00  0.00     0.086 A 
ATOM      5  C   UNL d   1      32.007  18.315 -24.863  0.00  0.00     0.066 A 
ATOM      6  O   UNL d   1      33.115  19.260 -25.090  0.00  0.00    -0.267 OA
ENDROOT
BRANCH   1   7
ATOM      7  C   UNL d   1      31.049  17.425 -24.144  0.00  0.00     0.149 A 
ATOM      8  N   UNL d   1      31.046  16.659 -23.933  0.00  0.00    -0.227 NA
ATOM      9  C   UNL d   1      30.270  16.375 -23.969  0.00  0.00     0.099 A 
ATOM     10  C   UNL d   1      29.953  15.639 -23.812  0.00  0.00     0.021 A 
ATOM     11  C   UNL d   1      29.796  16.992 -24.210  0.00  0.00     0.083 A 
ATOM     12  C   UNL d   1      29.135  15.530 -23.903  0.00  0.00     0.002 A 
ATOM     13  C   UNL d   1      28.661  16.148 -24.144  0.00  0.00     0.002 A 
ATOM     14  C   UNL d   1      28.991  16.893 -24.301  0.00  0.00     0.019 A 
ATOM     15  N   UNL d   1      30.285  17.651 -24.320  0.00  0.00    -0.289 N 
BRANCH  15  16
ATOM     16  C   UNL d   1      30.044  18.412 -24.566  0.00  0.00     0.082 C 
ATOM     17  C   UNL d   1      29.354  18.501 -25.038  0.00  0.00     0.021 C 
ENDBRANCH  15  16
ENDBRANCH   1   7
BRANCH   2  18
ATOM     18  C   UNL d   1      33.240  19.121 -23.298  0.00  0.00     0.083 C 
BRANCH  18  19
ATOM     19  C   UNL d   1      32.980  19.729 -22.793  0.00  0.00     0.018 A 
ATOM     20  C   UNL d   1      33.047  20.517 -23.043  0.00  0.00     0.002 A 
ATOM     21  C   UNL d   1      32.789  21.117 -22.541  0.00  0.00     0.000 A 
ATOM     22  C   UNL d   1      32.470  20.944 -21.805  0.00  0.00     0.000 A 
ATOM     23  C   UNL d   1      32.405  20.160 -21.560  0.00  0.00     0.000 A 
ATOM     24  C   UNL d   1      32.663  19.549 -22.060  0.00  0.00     0.002 A 
ENDBRANCH  18  19
ENDBRANCH   2  18
TORSDOF 4
ENDMDL
