MODEL 1
REMARK VINA RESULT:      -6.5      0.000      0.000
REMARK  3 active torsions:
REMARK  status: ('A' for Active; 'I' for Inactive)
REMARK    1  A    between atoms: C_4  and  C_1 
REMARK    2  A    between atoms: N_7  and  C_4 
REMARK    3  A    between atoms: C_9  and  N_7 
ROOT
ATOM      1  C   UNL d   1     -41.487-122.522 -51.759  0.00  0.00     0.171 C 
ATOM      2  S   UNL d   1     -41.131-121.891 -51.342  0.00  0.00    -0.054 SA
ENDROOT
BRANCH   1   3
ATOM      3  C   UNL d   1     -41.567-122.485 -52.576  0.00  0.00     0.191 A 
ATOM      4  N   UNL d   1     -41.243-123.020 -53.121  0.00  0.00    -0.223 NA
ATOM      5  C   UNL d   1     -41.461-122.771 -53.879  0.00  0.00     0.101 A 
ATOM      6  C   UNL d   1     -41.299-123.086 -54.628  0.00  0.00     0.021 A 
ATOM      7  C   UNL d   1     -41.918-122.086 -53.803  0.00  0.00     0.101 A 
ATOM      8  C   UNL d   1     -41.600-122.706 -55.296  0.00  0.00     0.002 A 
ATOM      9  C   UNL d   1     -42.057-122.021 -55.220  0.00  0.00     0.002 A 
ATOM     10  C   UNL d   1     -42.215-121.713 -54.475  0.00  0.00     0.021 A 
ATOM     11  N   UNL d   1     -41.980-121.916 -52.998  0.00  0.00    -0.223 NA
ENDBRANCH   1   3
BRANCH   1  12
ATOM     12  N   UNL d   1     -41.757-123.180 -51.340  0.00  0.00    -0.232 NA
BRANCH  12  13
ATOM     13  C   UNL d   1     -41.885-123.137 -50.525  0.00  0.00     0.082 A 
ATOM     14  C   UNL d   1     -41.310-123.423 -50.003  0.00  0.00     0.019 A 
ATOM     15  C   UNL d   1     -41.437-123.379 -49.191  0.00  0.00     0.002 A 
ATOM     16  C   UNL d   1     -42.142-123.049 -48.894  0.00  0.00     0.000 A 
ATOM     17  C   UNL d   1     -42.711-122.766 -49.424  0.00  0.00     0.002 A 
ATOM     18  C   UNL d   1     -42.269-123.006 -48.083  0.00  0.00     0.000 C 
ATOM     19  C   UNL d   1     -42.580-122.811 -50.235  0.00  0.00     0.019 A 
ENDBRANCH  12  13
ENDBRANCH   1  12
TORSDOF 3
ENDMDL
MODEL 2
REMARK VINA RESULT:      -5.8      0.593      4.572
REMARK  3 active torsions:
REMARK  status: ('A' for Active; 'I' for Inactive)
REMARK    1  A    between atoms: C_4  and  C_1 
REMARK    2  A    between atoms: N_7  and  C_4 
REMARK    3  A    between atoms: C_9  and  N_7 
ROOT
ATOM      1  C   UNL d   1     -41.440-122.408 -51.950  0.00  0.00     0.171 C 
ATOM      2  S   UNL d   1     -41.123-121.657 -52.134  0.00  0.00    -0.054 SA
ENDROOT
BRANCH   1   3
ATOM      3  C   UNL d   1     -41.622-122.600 -51.171  0.00  0.00     0.191 A 
ATOM      4  N   UNL d   1     -42.350-122.464 -50.796  0.00  0.00    -0.223 NA
ATOM      5  C   UNL d   1     -42.288-122.742 -50.019  0.00  0.00     0.101 A 
ATOM      6  C   UNL d   1     -42.832-122.753 -49.396  0.00  0.00     0.021 A 
ATOM      7  C   UNL d   1     -41.526-123.047 -49.915  0.00  0.00     0.101 A 
ATOM      8  C   UNL d   1     -42.605-123.073 -48.670  0.00  0.00     0.002 A 
ATOM      9  C   UNL d   1     -41.843-123.379 -48.566  0.00  0.00     0.002 A 
ATOM     10  C   UNL d   1     -41.307-123.365 -49.188  0.00  0.00     0.021 A 
ATOM     11  N   UNL d   1     -41.123-122.956 -50.628  0.00  0.00    -0.223 NA
ENDBRANCH   1   3
BRANCH   1  12
ATOM     12  N   UNL d   1     -41.566-122.952 -52.557  0.00  0.00    -0.232 NA
BRANCH  12  13
ATOM     13  C   UNL d   1     -41.642-122.699 -53.339  0.00  0.00     0.082 A 
ATOM     14  C   UNL d   1     -42.197-122.115 -53.530  0.00  0.00     0.019 A 
ATOM     15  C   UNL d   1     -42.272-121.863 -54.310  0.00  0.00     0.002 A 
ATOM     16  C   UNL d   1     -41.794-122.193 -54.906  0.00  0.00     0.000 A 
ATOM     17  C   UNL d   1     -41.242-122.777 -54.705  0.00  0.00     0.002 A 
ATOM     18  C   UNL d   1     -41.869-121.941 -55.685  0.00  0.00     0.000 C 
ATOM     19  C   UNL d   1     -41.169-123.026 -53.925  0.00  0.00     0.019 A 
ENDBRANCH  12  13
ENDBRANCH   1  12
TORSDOF 3
ENDMDL
MODEL 3
REMARK VINA RESULT:      -4.9      0.886      4.587
REMARK  3 active torsions:
REMARK  status: ('A' for Active; 'I' for Inactive)
REMARK    1  A    between atoms: C_4  and  C_1 
REMARK    2  A    between atoms: N_7  and  C_4 
REMARK    3  A    between atoms: C_9  and  N_7 
ROOT
ATOM      1  C   UNL d   1     -41.562-122.640 -51.136  0.00  0.00     0.171 C 
ATOM      2  S   UNL d   1     -41.799-121.884 -51.404  0.00  0.00    -0.054 SA
ENDROOT
BRANCH   1   3
ATOM      3  C   UNL d   1     -41.759-122.890 -50.379  0.00  0.00     0.191 A 
ATOM      4  N   UNL d   1     -41.224-123.045 -49.763  0.00  0.00    -0.223 NA
ATOM      5  C   UNL d   1     -41.662-123.282 -49.103  0.00  0.00     0.101 A 
ATOM      6  C   UNL d   1     -41.428-123.503 -48.340  0.00  0.00     0.021 A 
ATOM      7  C   UNL d   1     -42.463-123.274 -49.309  0.00  0.00     0.101 A 
ATOM      8  C   UNL d   1     -42.004-123.716 -47.789  0.00  0.00     0.002 A 
ATOM      9  C   UNL d   1     -42.805-123.708 -47.995  0.00  0.00     0.002 A 
ATOM     10  C   UNL d   1     -43.032-123.488 -48.753  0.00  0.00     0.021 A 
ATOM     11  N   UNL d   1     -42.515-123.032 -50.095  0.00  0.00    -0.223 NA
ENDBRANCH   1   3
BRANCH   1  12
ATOM     12  N   UNL d   1     -41.129-123.128 -51.641  0.00  0.00    -0.232 NA
BRANCH  12  13
ATOM     13  C   UNL d   1     -41.214-123.068 -52.460  0.00  0.00     0.082 A 
ATOM     14  C   UNL d   1     -41.391-123.743 -52.906  0.00  0.00     0.019 A 
ATOM     15  C   UNL d   1     -41.475-123.683 -53.722  0.00  0.00     0.002 A 
ATOM     16  C   UNL d   1     -41.384-122.947 -54.101  0.00  0.00     0.000 A 
ATOM     17  C   UNL d   1     -41.207-122.277 -53.646  0.00  0.00     0.002 A 
ATOM     18  C   UNL d   1     -41.469-122.887 -54.916  0.00  0.00     0.000 C 
ATOM     19  C   UNL d   1     -41.123-122.341 -52.830  0.00  0.00     0.019 A 
ENDBRANCH  12  13
ENDBRANCH   1  12
TORSDOF 3
ENDMDL
