MODEL 1
REMARK VINA RESULT:      -8.5      0.000      0.000
REMARK  3 active torsions:
REMARK  status: ('A' for Active; 'I' for Inactive)
REMARK    1  A    between atoms: S_3  and  N_1 
REMARK    2  A    between atoms: C_7  and  C_4 
REMARK    3  A    between atoms: C_16  and  C_5 
ROOT
ATOM      1  N   UNL d   1     -48.653  13.042  22.211  0.00  0.00    -0.155 N 
ATOM      2  N   UNL d   1     -49.355  13.487  22.309  0.00  0.00    -0.156 NA
ATOM      3  C   UNL d   1     -48.086  13.347  22.696  0.00  0.00     0.096 A 
ATOM      4  C   UNL d   1     -49.194  14.070  22.867  0.00  0.00     0.103 A 
ATOM      5  C   UNL d   1     -48.395  13.973  23.103  0.00  0.00     0.041 A 
ENDROOT
BRANCH   3   6
ATOM      6  C   UNL d   1     -47.313  13.066  22.766  0.00  0.00     0.021 A 
ATOM      7  C   UNL d   1     -46.689  13.379  22.301  0.00  0.00     0.028 A 
ATOM      8  C   UNL d   1     -45.914  13.098  22.371  0.00  0.00     0.119 A 
ATOM      9  O   UNL d   1     -45.247  13.310  21.993  0.00  0.00    -0.300 OA
ATOM     10  C   UNL d   1     -45.768  12.505  22.906  0.00  0.00     0.119 A 
ATOM     11  C   UNL d   1     -44.623  12.833  22.292  0.00  0.00     0.304 A 
ATOM     12  O   UNL d   1     -44.973  12.335  22.863  0.00  0.00    -0.300 OA
ATOM     13  C   UNL d   1     -46.339  12.177  23.371  0.00  0.00     0.026 A 
ATOM     14  C   UNL d   1     -47.114  12.458  23.301  0.00  0.00     0.004 A 
ENDBRANCH   3   6
BRANCH   1  15
ATOM     15  S   UNL d   1     -48.578  12.390  21.689  0.00  0.00     0.266 S 
ATOM     16  O   UNL d   1     -48.769  11.909  22.321  0.00  0.00    -0.203 OA
ATOM     17  O   UNL d   1     -48.387  12.911  21.065  0.00  0.00    -0.203 OA
ATOM     18  C   UNL d   1     -48.508  11.755  21.190  0.00  0.00     0.165 C 
ENDBRANCH   1  15
BRANCH   4  19
ATOM     19  C   UNL d   1     -49.713  14.644  23.147  0.00  0.00     0.019 A 
ATOM     20  C   UNL d   1     -50.518  14.419  23.184  0.00  0.00     0.002 A 
ATOM     21  C   UNL d   1     -51.064  14.998  23.469  0.00  0.00     0.000 A 
ATOM     22  C   UNL d   1     -50.795  15.748  23.698  0.00  0.00     0.000 A 
ATOM     23  C   UNL d   1     -50.004  15.922  23.645  0.00  0.00     0.000 A 
ATOM     24  C   UNL d   1     -49.478  15.371  23.372  0.00  0.00     0.002 A 
ENDBRANCH   4  19
TORSDOF 3
ENDMDL
MODEL 2
REMARK VINA RESULT:      -7.9      2.068      4.794
REMARK  3 active torsions:
REMARK  status: ('A' for Active; 'I' for Inactive)
REMARK    1  A    between atoms: S_3  and  N_1 
REMARK    2  A    between atoms: C_7  and  C_4 
REMARK    3  A    between atoms: C_16  and  C_5 
ROOT
ATOM      1  N   UNL d   1     -46.263  12.774  23.007  0.00  0.00    -0.155 N 
ATOM      2  N   UNL d   1     -45.501  12.436  23.084  0.00  0.00    -0.156 NA
ATOM      3  C   UNL d   1     -46.812  12.188  23.079  0.00  0.00     0.096 A 
ATOM      4  C   UNL d   1     -45.607  11.629  23.204  0.00  0.00     0.103 A 
ATOM      5  C   UNL d   1     -46.433  11.484  23.199  0.00  0.00     0.041 A 
ENDROOT
BRANCH   3   6
ATOM      6  C   UNL d   1     -47.629  12.289  23.036  0.00  0.00     0.021 A 
ATOM      7  C   UNL d   1     -48.051  12.157  22.323  0.00  0.00     0.028 A 
ATOM      8  C   UNL d   1     -48.871  12.259  22.280  0.00  0.00     0.119 A 
ATOM      9  O   UNL d   1     -49.376  12.166  21.672  0.00  0.00    -0.300 OA
ATOM     10  C   UNL d   1     -49.264  12.492  22.951  0.00  0.00     0.119 A 
ATOM     11  C   UNL d   1     -50.147  12.348  21.953  0.00  0.00     0.304 A 
ATOM     12  O   UNL d   1     -50.053  12.549  22.757  0.00  0.00    -0.300 OA
ATOM     13  C   UNL d   1     -48.897  12.629  23.655  0.00  0.00     0.026 A 
ATOM     14  C   UNL d   1     -48.077  12.527  23.698  0.00  0.00     0.004 A 
ENDBRANCH   3   6
BRANCH   1  15
ATOM     15  S   UNL d   1     -46.404  13.590  22.878  0.00  0.00     0.266 S 
ATOM     16  O   UNL d   1     -46.382  13.684  23.689  0.00  0.00    -0.203 OA
ATOM     17  O   UNL d   1     -46.421  13.457  22.054  0.00  0.00    -0.203 OA
ATOM     18  C   UNL d   1     -46.541  14.381  22.762  0.00  0.00     0.165 C 
ENDBRANCH   1  15
BRANCH   4  19
ATOM     19  C   UNL d   1     -45.019  11.063  23.310  0.00  0.00     0.019 A 
ATOM     20  C   UNL d   1     -44.246  11.297  23.092  0.00  0.00     0.002 A 
ATOM     21  C   UNL d   1     -43.630  10.726  23.195  0.00  0.00     0.000 A 
ATOM     22  C   UNL d   1     -43.805   9.975  23.500  0.00  0.00     0.000 A 
ATOM     23  C   UNL d   1     -44.570   9.792  23.698  0.00  0.00     0.000 A 
ATOM     24  C   UNL d   1     -45.162  10.335  23.601  0.00  0.00     0.002 A 
ENDBRANCH   4  19
TORSDOF 3
ENDMDL
MODEL 3
REMARK VINA RESULT:      -6.8      8.962     10.187
REMARK  3 active torsions:
REMARK  status: ('A' for Active; 'I' for Inactive)
REMARK    1  A    between atoms: S_3  and  N_1 
REMARK    2  A    between atoms: C_7  and  C_4 
REMARK    3  A    between atoms: C_16  and  C_5 
ROOT
ATOM      1  N   UNL d   1     -40.234  15.015  18.267  0.00  0.00    -0.155 N 
ATOM      2  N   UNL d   1     -40.393  15.025  19.089  0.00  0.00    -0.156 NA
ATOM      3  C   UNL d   1     -39.445  14.889  18.160  0.00  0.00     0.096 A 
ATOM      4  C   UNL d   1     -39.676  14.902  19.474  0.00  0.00     0.103 A 
ATOM      5  C   UNL d   1     -39.088  14.818  18.882  0.00  0.00     0.041 A 
ENDROOT
BRANCH   3   6
ATOM      6  C   UNL d   1     -39.062  14.841  17.431  0.00  0.00     0.021 A 
ATOM      7  C   UNL d   1     -38.929  14.104  17.053  0.00  0.00     0.028 A 
ATOM      8  C   UNL d   1     -38.545  14.055  16.322  0.00  0.00     0.119 A 
ATOM      9  O   UNL d   1     -38.362  13.426  15.870  0.00  0.00    -0.300 OA
ATOM     10  C   UNL d   1     -38.296  14.744  15.973  0.00  0.00     0.119 A 
ATOM     11  C   UNL d   1     -37.971  13.711  15.183  0.00  0.00     0.304 A 
ATOM     12  O   UNL d   1     -37.940  14.540  15.269  0.00  0.00    -0.300 OA
ATOM     13  C   UNL d   1     -38.404  15.472  16.302  0.00  0.00     0.026 A 
ATOM     14  C   UNL d   1     -38.788  15.520  17.033  0.00  0.00     0.004 A 
ENDBRANCH   3   6
BRANCH   1  15
ATOM     15  S   UNL d   1     -40.817  15.121  17.674  0.00  0.00     0.266 S 
ATOM     16  O   UNL d   1     -40.662  15.922  17.717  0.00  0.00    -0.203 OA
ATOM     17  O   UNL d   1     -40.950  14.297  17.656  0.00  0.00    -0.203 OA
ATOM     18  C   UNL d   1     -41.379  15.232  17.100  0.00  0.00     0.165 C 
ENDBRANCH   1  15
BRANCH   4  19
ATOM     19  C   UNL d   1     -39.551  14.866  20.287  0.00  0.00     0.019 A 
ATOM     20  C   UNL d   1     -39.410  14.103  20.599  0.00  0.00     0.002 A 
ATOM     21  C   UNL d   1     -39.279  14.049  21.433  0.00  0.00     0.000 A 
ATOM     22  C   UNL d   1     -39.294  14.733  21.902  0.00  0.00     0.000 A 
ATOM     23  C   UNL d   1     -39.434  15.452  21.554  0.00  0.00     0.000 A 
ATOM     24  C   UNL d   1     -39.560  15.509  20.757  0.00  0.00     0.002 A 
ENDBRANCH   4  19
TORSDOF 3
ENDMDL
MODEL 4
REMARK VINA RESULT:      -6.6      1.635      2.215
REMARK  3 active torsions:
REMARK  status: ('A' for Active; 'I' for Inactive)
REMARK    1  A    between atoms: S_3  and  N_1 
REMARK    2  A    between atoms: C_7  and  C_4 
REMARK    3  A    between atoms: C_16  and  C_5 
ROOT
ATOM      1  N   UNL d   1     -48.343  14.046  22.651  0.00  0.00    -0.155 N 
ATOM      2  N   UNL d   1     -49.128  13.806  22.817  0.00  0.00    -0.156 NA
ATOM      3  C   UNL d   1     -47.851  13.420  22.775  0.00  0.00     0.096 A 
ATOM      4  C   UNL d   1     -49.093  13.015  23.044  0.00  0.00     0.103 A 
ATOM      5  C   UNL d   1     -48.288  12.784  23.015  0.00  0.00     0.041 A 
ENDROOT
BRANCH   3   6
ATOM      6  C   UNL d   1     -47.032  13.426  22.674  0.00  0.00     0.021 A 
ATOM      7  C   UNL d   1     -46.672  13.096  21.993  0.00  0.00     0.028 A 
ATOM      8  C   UNL d   1     -45.851  13.103  21.891  0.00  0.00     0.119 A 
ATOM      9  O   UNL d   1     -45.397  12.826  21.299  0.00  0.00    -0.300 OA
ATOM     10  C   UNL d   1     -45.395  13.439  22.472  0.00  0.00     0.119 A 
ATOM     11  C   UNL d   1     -44.596  12.987  21.496  0.00  0.00     0.304 A 
ATOM     12  O   UNL d   1     -44.618  13.372  22.236  0.00  0.00    -0.300 OA
ATOM     13  C   UNL d   1     -45.702  13.767  23.142  0.00  0.00     0.026 A 
ATOM     14  C   UNL d   1     -46.523  13.761  23.243  0.00  0.00     0.004 A 
ENDBRANCH   3   6
BRANCH   1  15
ATOM     15  S   UNL d   1     -48.131  14.817  22.399  0.00  0.00     0.266 S 
ATOM     16  O   UNL d   1     -48.077  15.020  23.189  0.00  0.00    -0.203 OA
ATOM     17  O   UNL d   1     -48.196  14.576  21.603  0.00  0.00    -0.203 OA
ATOM     18  C   UNL d   1     -47.926  15.566  22.165  0.00  0.00     0.165 C 
ENDBRANCH   1  15
BRANCH   4  19
ATOM     19  C   UNL d   1     -49.726  12.535  23.262  0.00  0.00     0.019 A 
ATOM     20  C   UNL d   1     -49.558  11.718  23.319  0.00  0.00     0.002 A 
ATOM     21  C   UNL d   1     -50.197  11.211  23.541  0.00  0.00     0.000 A 
ATOM     22  C   UNL d   1     -50.948  11.528  23.692  0.00  0.00     0.000 A 
ATOM     23  C   UNL d   1     -51.064  12.328  23.624  0.00  0.00     0.000 A 
ATOM     24  C   UNL d   1     -50.456  12.817  23.411  0.00  0.00     0.002 A 
ENDBRANCH   4  19
TORSDOF 3
ENDMDL
MODEL 5
REMARK VINA RESULT:      -6.2      7.530      9.561
REMARK  3 active torsions:
REMARK  status: ('A' for Active; 'I' for Inactive)
REMARK    1  A    between atoms: S_3  and  N_1 
REMARK    2  A    between atoms: C_7  and  C_4 
REMARK    3  A    between atoms: C_16  and  C_5 
ROOT
ATOM      1  N   UNL d   1     -40.287  14.887  20.082  0.00  0.00    -0.155 N 
ATOM      2  N   UNL d   1     -40.325  14.804  19.250  0.00  0.00    -0.156 NA
ATOM      3  C   UNL d   1     -39.558  14.650  20.331  0.00  0.00     0.096 A 
ATOM      4  C   UNL d   1     -39.596  14.509  19.005  0.00  0.00     0.103 A 
ATOM      5  C   UNL d   1     -39.123  14.416  19.691  0.00  0.00     0.041 A 
ENDROOT
BRANCH   3   6
ATOM      6  C   UNL d   1     -39.298  14.645  21.114  0.00  0.00     0.021 A 
ATOM      7  C   UNL d   1     -39.355  13.958  21.592  0.00  0.00     0.028 A 
ATOM      8  C   UNL d   1     -39.094  13.954  22.377  0.00  0.00     0.119 A 
ATOM      9  O   UNL d   1     -39.095  13.375  22.923  0.00  0.00    -0.300 OA
ATOM     10  C   UNL d   1     -38.776  14.637  22.679  0.00  0.00     0.119 A 
ATOM     11  C   UNL d   1     -38.759  13.689  23.626  0.00  0.00     0.304 A 
ATOM     12  O   UNL d   1     -38.567  14.481  23.451  0.00  0.00    -0.300 OA
ATOM     13  C   UNL d   1     -38.702  15.318  22.253  0.00  0.00     0.026 A 
ATOM     14  C   UNL d   1     -38.964  15.322  21.469  0.00  0.00     0.004 A 
ENDBRANCH   3   6
BRANCH   1  15
ATOM     15  S   UNL d   1     -40.918  15.172  20.554  0.00  0.00     0.266 S 
ATOM     16  O   UNL d   1     -40.612  15.921  20.446  0.00  0.00    -0.203 OA
ATOM     17  O   UNL d   1     -41.204  14.393  20.644  0.00  0.00    -0.203 OA
ATOM     18  C   UNL d   1     -41.526  15.457  21.010  0.00  0.00     0.165 C 
ENDBRANCH   1  15
BRANCH   4  19
ATOM     19  C   UNL d   1     -39.366  14.336  18.234  0.00  0.00     0.019 A 
ATOM     20  C   UNL d   1     -39.273  14.994  17.726  0.00  0.00     0.002 A 
ATOM     21  C   UNL d   1     -39.037  14.832  16.930  0.00  0.00     0.000 A 
ATOM     22  C   UNL d   1     -38.908  14.051  16.684  0.00  0.00     0.000 A 
ATOM     23  C   UNL d   1     -39.010  13.444  17.212  0.00  0.00     0.000 A 
ATOM     24  C   UNL d   1     -39.236  13.594  17.975  0.00  0.00     0.002 A 
ENDBRANCH   4  19
TORSDOF 3
ENDMDL
MODEL 6
REMARK VINA RESULT:      -5.7      8.407      9.948
REMARK  3 active torsions:
REMARK  status: ('A' for Active; 'I' for Inactive)
REMARK    1  A    between atoms: S_3  and  N_1 
REMARK    2  A    between atoms: C_7  and  C_4 
REMARK    3  A    between atoms: C_16  and  C_5 
ROOT
ATOM      1  N   UNL d   1     -39.852  14.841  20.098  0.00  0.00    -0.155 N 
ATOM      2  N   UNL d   1     -39.774  14.773  20.929  0.00  0.00    -0.156 NA
ATOM      3  C   UNL d   1     -39.255  14.426  19.749  0.00  0.00     0.096 A 
ATOM      4  C   UNL d   1     -39.112  14.304  21.070  0.00  0.00     0.103 A 
ATOM      5  C   UNL d   1     -38.795  14.092  20.323  0.00  0.00     0.041 A 
ENDROOT
BRANCH   3   6
ATOM      6  C   UNL d   1     -39.134  14.354  18.937  0.00  0.00     0.021 A 
ATOM      7  C   UNL d   1     -38.623  14.874  18.521  0.00  0.00     0.028 A 
ATOM      8  C   UNL d   1     -38.502  14.802  17.706  0.00  0.00     0.119 A 
ATOM      9  O   UNL d   1     -38.050  15.226  17.207  0.00  0.00    -0.300 OA
ATOM     10  C   UNL d   1     -38.890  14.209  17.311  0.00  0.00     0.119 A 
ATOM     11  C   UNL d   1     -38.143  14.899  16.439  0.00  0.00     0.304 A 
ATOM     12  O   UNL d   1     -38.674  14.262  16.528  0.00  0.00    -0.300 OA
ATOM     13  C   UNL d   1     -39.389  13.688  17.673  0.00  0.00     0.026 A 
ATOM     14  C   UNL d   1     -39.511  13.761  18.488  0.00  0.00     0.004 A 
ENDBRANCH   3   6
BRANCH   1  15
ATOM     15  S   UNL d   1     -40.459  15.276  19.718  0.00  0.00     0.266 S 
ATOM     16  O   UNL d   1     -39.959  15.922  19.739  0.00  0.00    -0.203 OA
ATOM     17  O   UNL d   1     -40.943  14.597  19.713  0.00  0.00    -0.203 OA
ATOM     18  C   UNL d   1     -41.041  15.704  19.350  0.00  0.00     0.165 C 
ENDBRANCH   1  15
BRANCH   4  19
ATOM     19  C   UNL d   1     -38.811  14.080  21.803  0.00  0.00     0.019 A 
ATOM     20  C   UNL d   1     -38.637  14.705  22.330  0.00  0.00     0.002 A 
ATOM     21  C   UNL d   1     -38.327  14.491  23.088  0.00  0.00     0.000 A 
ATOM     22  C   UNL d   1     -38.208  13.693  23.280  0.00  0.00     0.000 A 
ATOM     23  C   UNL d   1     -38.392  13.121  22.735  0.00  0.00     0.000 A 
ATOM     24  C   UNL d   1     -38.689  13.320  22.010  0.00  0.00     0.002 A 
ENDBRANCH   4  19
TORSDOF 3
ENDMDL
MODEL 7
REMARK VINA RESULT:      -5.6      1.369      4.158
REMARK  3 active torsions:
REMARK  status: ('A' for Active; 'I' for Inactive)
REMARK    1  A    between atoms: S_3  and  N_1 
REMARK    2  A    between atoms: C_7  and  C_4 
REMARK    3  A    between atoms: C_16  and  C_5 
ROOT
ATOM      1  N   UNL d   1     -48.455  12.673  22.131  0.00  0.00    -0.155 N 
ATOM      2  N   UNL d   1     -47.873  12.075  22.206  0.00  0.00    -0.156 NA
ATOM      3  C   UNL d   1     -48.288  13.261  22.655  0.00  0.00     0.096 A 
ATOM      4  C   UNL d   1     -47.351  12.322  22.792  0.00  0.00     0.103 A 
ATOM      5  C   UNL d   1     -47.621  13.067  23.067  0.00  0.00     0.041 A 
ENDROOT
BRANCH   3   6
ATOM      6  C   UNL d   1     -48.728  13.952  22.756  0.00  0.00     0.021 A 
ATOM      7  C   UNL d   1     -49.439  13.958  23.202  0.00  0.00     0.028 A 
ATOM      8  C   UNL d   1     -49.880  14.650  23.304  0.00  0.00     0.119 A 
ATOM      9  O   UNL d   1     -50.559  14.783  23.698  0.00  0.00    -0.300 OA
ATOM     10  C   UNL d   1     -49.608  15.333  22.959  0.00  0.00     0.119 A 
ATOM     11  C   UNL d   1     -50.749  15.596  23.611  0.00  0.00     0.304 A 
ATOM     12  O   UNL d   1     -50.139  15.922  23.144  0.00  0.00    -0.300 OA
ATOM     13  C   UNL d   1     -48.931  15.370  22.523  0.00  0.00     0.026 A 
ATOM     14  C   UNL d   1     -48.490  14.677  22.422  0.00  0.00     0.004 A 
ENDBRANCH   3   6
BRANCH   1  15
ATOM     15  S   UNL d   1     -49.095  12.639  21.590  0.00  0.00     0.266 S 
ATOM     16  O   UNL d   1     -48.624  13.050  21.064  0.00  0.00    -0.203 OA
ATOM     17  O   UNL d   1     -49.549  12.221  22.152  0.00  0.00    -0.203 OA
ATOM     18  C   UNL d   1     -49.710  12.612  21.062  0.00  0.00     0.165 C 
ENDBRANCH   1  15
BRANCH   4  19
ATOM     19  C   UNL d   1     -46.686  11.920  23.064  0.00  0.00     0.019 A 
ATOM     20  C   UNL d   1     -46.831  11.174  23.414  0.00  0.00     0.002 A 
ATOM     21  C   UNL d   1     -46.157  10.748  23.698  0.00  0.00     0.000 A 
ATOM     22  C   UNL d   1     -45.398  11.071  23.624  0.00  0.00     0.000 A 
ATOM     23  C   UNL d   1     -45.306  11.799  23.277  0.00  0.00     0.000 A 
ATOM     24  C   UNL d   1     -45.946  12.210  23.004  0.00  0.00     0.002 A 
ENDBRANCH   4  19
TORSDOF 3
ENDMDL
