MODEL 1
REMARK VINA RESULT:      23.2      0.000      0.000
REMARK  4 active torsions:
REMARK  status: ('A' for Active; 'I' for Inactive)
REMARK    1  A    between atoms: N_5  and  C_1 
REMARK    2  A    between atoms: C_9  and  C_2 
REMARK       I    between atoms: C_6  and  N_5 
REMARK    3  A    between atoms: C_8  and  C_6 
REMARK    4  A    between atoms: N_10  and  C_9 
ROOT
ATOM      1  C   UNL d   1      46.198 -17.814  44.212  0.00  0.00     0.115 A 
ATOM      2  C   UNL d   1      46.391 -18.257  43.547  0.00  0.00     0.042 A 
ATOM      3  S   UNL d   1      45.989 -18.344  44.820  0.00  0.00    -0.068 SA
ATOM      4  C   UNL d   1      46.304 -19.054  43.738  0.00  0.00     0.009 A 
ATOM      5  C   UNL d   1      46.056 -19.097  44.526  0.00  0.00     0.031 A 
ATOM      6  C   UNL d   1      46.437 -19.700  43.243  0.00  0.00     0.001 C 
ATOM      7  C   UNL d   1      45.898 -19.788  44.954  0.00  0.00     0.007 C 
ENDROOT
BRANCH   1   8
ATOM      8  N   UNL d   1      46.234 -16.988  44.185  0.00  0.00    -0.201 NA
ATOM      9  C   UNL d   1      45.626 -16.539  44.507  0.00  0.00     0.282 C 
ATOM     10  O   UNL d   1      44.981 -16.912  44.854  0.00  0.00    -0.265 OA
BRANCH   9  11
ATOM     11  C   UNL d   1      45.662 -15.717  44.481  0.00  0.00     0.085 A 
ATOM     12  C   UNL d   1      45.007 -15.270  44.693  0.00  0.00     0.145 A 
ATOM     13  F   UNL d   1      44.307 -15.656  44.935  0.00  0.00    -0.204 F 
ATOM     14  C   UNL d   1      45.043 -14.448  44.667  0.00  0.00     0.030 A 
ATOM     15  C   UNL d   1      45.734 -14.074  44.428  0.00  0.00     0.002 A 
ATOM     16  C   UNL d   1      46.393 -14.522  44.214  0.00  0.00     0.000 A 
ATOM     17  C   UNL d   1      46.357 -15.344  44.240  0.00  0.00     0.007 A 
ENDBRANCH   9  11
ENDBRANCH   1   8
BRANCH   2  18
ATOM     18  C   UNL d   1      46.632 -17.953  42.810  0.00  0.00     0.082 C 
BRANCH  18  19
ATOM     19  N   UNL d   1      46.397 -18.322  42.115  0.00  0.00    -0.302 N 
ATOM     20  C   UNL d   1      46.632 -19.100  41.961  0.00  0.00     0.080 A 
ATOM     21  C   UNL d   1      46.396 -19.473  41.261  0.00  0.00     0.019 A 
ATOM     22  C   UNL d   1      45.927 -19.067  40.718  0.00  0.00     0.003 A 
ATOM     23  C   UNL d   1      45.692 -18.288  40.872  0.00  0.00     0.019 A 
ATOM     24  C   UNL d   1      45.926 -17.916  41.568  0.00  0.00     0.080 A 
ENDBRANCH  18  19
ENDBRANCH   2  18
TORSDOF 4
ENDMDL
