MODEL 1
REMARK VINA RESULT:      57.6      0.000      0.000
REMARK  6 active torsions:
REMARK  status: ('A' for Active; 'I' for Inactive)
REMARK    1  A    between atoms: C_7  and  C_1 
REMARK    2  A    between atoms: C_19  and  N_2 
REMARK    3  A    between atoms: C_18  and  N_3 
REMARK    4  A    between atoms: C_13  and  C_9 
REMARK    5  A    between atoms: O_20  and  C_13 
REMARK    6  A    between atoms: C_23  and  O_20 
ROOT
ATOM      1  C   UNL d   1     -51.008  25.278  33.551  0.00  0.00     0.013 A 
ATOM      2  C   UNL d   1     -50.681  26.034  33.655  0.00  0.00     0.030 A 
ATOM      3  C   UNL d   1     -49.868  26.138  33.690  0.00  0.00     0.163 A 
ATOM      4  O   UNL d   1     -49.360  25.483  33.621  0.00  0.00    -0.302 OA
ATOM      5  C   UNL d   1     -50.510  24.621  33.483  0.00  0.00     0.023 A 
ATOM      6  C   UNL d   1     -49.684  24.724  33.518  0.00  0.00     0.100 A 
ATOM      7  C   UNL d   1     -50.825  23.864  33.379  0.00  0.00     0.002 A 
ATOM      8  C   UNL d   1     -49.184  24.063  33.448  0.00  0.00     0.025 A 
ATOM      9  C   UNL d   1     -50.329  23.210  33.311  0.00  0.00     0.000 A 
ATOM     10  C   UNL d   1     -49.501  23.310  33.346  0.00  0.00     0.002 A 
ENDROOT
BRANCH   1  11
ATOM     11  C   UNL d   1     -51.825  25.177  33.517  0.00  0.00     0.113 A 
ATOM     12  C   UNL d   1     -52.142  24.413  33.477  0.00  0.00     0.271 A 
ATOM     13  N   UNL d   1     -52.956  24.307  33.442  0.00  0.00    -0.250 N 
ATOM     14  O   UNL d   1     -51.638  23.759  33.472  0.00  0.00    -0.266 OA
ATOM     15  C   UNL d   1     -53.456  24.959  33.447  0.00  0.00     0.196 A 
ATOM     16  N   UNL d   1     -53.139  25.723  33.487  0.00  0.00    -0.250 N 
ATOM     17  S   UNL d   1     -54.277  24.856  33.412  0.00  0.00    -0.039 SA
ATOM     18  C   UNL d   1     -52.321  25.838  33.522  0.00  0.00     0.271 A 
ATOM     19  O   UNL d   1     -52.005  26.599  33.562  0.00  0.00    -0.266 OA
BRANCH  13  20
ATOM     20  C   UNL d   1     -53.271  23.546  33.402  0.00  0.00     0.085 C 
ATOM     21  C   UNL d   1     -53.613  23.207  34.068  0.00  0.00     0.021 C 
ENDBRANCH  13  20
BRANCH  16  22
ATOM     22  C   UNL d   1     -53.647  26.375  33.491  0.00  0.00     0.085 C 
ATOM     23  C   UNL d   1     -54.452  26.277  33.357  0.00  0.00     0.021 C 
ENDBRANCH  16  22
ENDBRANCH   1  11
BRANCH   3  24
ATOM     24  C   UNL d   1     -49.553  26.890  33.792  0.00  0.00     0.323 C 
ATOM     25  O   UNL d   1     -49.811  27.511  33.317  0.00  0.00    -0.257 OA
BRANCH  24  26
ATOM     26  O   UNL d   1     -48.981  27.022  34.368  0.00  0.00    -0.270 OA
BRANCH  26  27
ATOM     27  C   UNL d   1     -48.724  27.789  34.523  0.00  0.00     0.126 C 
ATOM     28  C   UNL d   1     -48.042  27.916  34.966  0.00  0.00     0.029 C 
ENDBRANCH  26  27
ENDBRANCH  24  26
ENDBRANCH   3  24
TORSDOF 6
ENDMDL
