MODEL 1
REMARK VINA RESULT:      -7.4      0.000      0.000
REMARK  3 active torsions:
REMARK  status: ('A' for Active; 'I' for Inactive)
REMARK    1  A    between atoms: C_14  and  C_4 
REMARK    2  A    between atoms: C_10  and  O_11 
REMARK    3  A    between atoms: O_11  and  C_14 
ROOT
ATOM      1  C   UNL d   1      52.045  34.292  53.310  0.00  0.00     0.144 C 
ENDROOT
BRANCH   1   2
ATOM      2  O   UNL d   1      52.389  33.552  53.476  0.00  0.00    -0.303 OA
BRANCH   2   3
ATOM      3  C   UNL d   1      53.039  33.505  53.948  0.00  0.00     0.100 A 
ATOM      4  C   UNL d   1      53.493  32.811  53.969  0.00  0.00     0.024 A 
ATOM      5  C   UNL d   1      54.164  32.778  54.463  0.00  0.00     0.013 A 
ATOM      6  C   UNL d   1      53.302  32.157  53.519  0.00  0.00     0.002 C 
ATOM      7  C   UNL d   1      54.382  33.422  54.929  0.00  0.00     0.058 A 
ATOM      8  C   UNL d   1      53.928  34.116  54.907  0.00  0.00     0.013 A 
ATOM      9 CL   UNL d   1      55.064  33.396  55.434  0.00  0.00    -0.082 Cl
ATOM     10  C   UNL d   1      53.253  34.170  54.420  0.00  0.00     0.026 A 
ENDBRANCH   2   3
ENDBRANCH   1   2
BRANCH   1  11
ATOM     11  C   UNL d   1      51.360  34.338  52.881  0.00  0.00     0.142 A 
ATOM     12  N   UNL d   1      51.291  34.209  52.068  0.00  0.00    -0.057 NA
ATOM     13  C   UNL d   1      50.513  34.311  51.868  0.00  0.00     0.735 A 
ATOM     14  N   UNL d   1      50.101  34.501  52.542  0.00  0.00    -0.136 N 
ATOM     15  N   UNL d   1      50.118  34.255  51.141  0.00  0.00    -0.059 NA
ATOM     16  C   UNL d   1      50.633  34.513  53.150  0.00  0.00     0.120 A 
ATOM     17  C   UNL d   1      49.276  34.637  52.488  0.00  0.00     0.100 A 
ATOM     18  C   UNL d   1      48.892  34.582  51.781  0.00  0.00     0.041 A 
ATOM     19  C   UNL d   1      49.317  34.389  51.100  0.00  0.00     0.119 A 
ENDBRANCH   1  11
TORSDOF 3
ENDMDL
MODEL 2
REMARK VINA RESULT:      -7.3      2.316      4.043
REMARK  3 active torsions:
REMARK  status: ('A' for Active; 'I' for Inactive)
REMARK    1  A    between atoms: C_14  and  C_4 
REMARK    2  A    between atoms: C_10  and  O_11 
REMARK    3  A    between atoms: O_11  and  C_14 
ROOT
ATOM      1  C   UNL d   1      53.410  32.514  53.478  0.00  0.00     0.144 C 
ENDROOT
BRANCH   1   2
ATOM      2  O   UNL d   1      52.759  33.031  53.449  0.00  0.00    -0.303 OA
BRANCH   2   3
ATOM      3  C   UNL d   1      52.829  33.787  53.718  0.00  0.00     0.100 A 
ATOM      4  C   UNL d   1      52.374  34.395  53.386  0.00  0.00     0.024 A 
ATOM      5  C   UNL d   1      52.459  35.172  53.675  0.00  0.00     0.013 A 
ATOM      6  C   UNL d   1      51.843  34.255  52.781  0.00  0.00     0.002 C 
ATOM      7  C   UNL d   1      52.987  35.344  54.285  0.00  0.00     0.058 A 
ATOM      8  C   UNL d   1      53.442  34.736  54.617  0.00  0.00     0.013 A 
ATOM      9 CL   UNL d   1      53.079  36.133  54.585  0.00  0.00    -0.082 Cl
ATOM     10  C   UNL d   1      53.372  33.951  54.341  0.00  0.00     0.026 A 
ENDBRANCH   2   3
ENDBRANCH   1   2
BRANCH   1  11
ATOM     11  C   UNL d   1      53.296  31.713  53.506  0.00  0.00     0.142 A 
ATOM     12  N   UNL d   1      52.780  31.283  53.025  0.00  0.00    -0.057 NA
ATOM     13  C   UNL d   1      52.839  30.504  53.237  0.00  0.00     0.735 A 
ATOM     14  N   UNL d   1      53.381  30.445  53.839  0.00  0.00    -0.136 N 
ATOM     15  N   UNL d   1      52.458  29.824  52.951  0.00  0.00    -0.059 NA
ATOM     16  C   UNL d   1      53.650  31.192  53.990  0.00  0.00     0.120 A 
ATOM     17  C   UNL d   1      53.547  29.691  54.162  0.00  0.00     0.100 A 
ATOM     18  C   UNL d   1      53.177  29.030  53.885  0.00  0.00     0.041 A 
ATOM     19  C   UNL d   1      52.627  29.097  53.273  0.00  0.00     0.119 A 
ENDBRANCH   1  11
TORSDOF 3
ENDMDL
MODEL 3
REMARK VINA RESULT:      -6.9      2.703      3.783
REMARK  3 active torsions:
REMARK  status: ('A' for Active; 'I' for Inactive)
REMARK    1  A    between atoms: C_14  and  C_4 
REMARK    2  A    between atoms: C_10  and  O_11 
REMARK    3  A    between atoms: O_11  and  C_14 
ROOT
ATOM      1  C   UNL d   1      53.753  32.116  54.166  0.00  0.00     0.144 C 
ENDROOT
BRANCH   1   2
ATOM      2  O   UNL d   1      53.278  31.575  53.747  0.00  0.00    -0.303 OA
BRANCH   2   3
ATOM      3  C   UNL d   1      53.300  30.791  53.929  0.00  0.00     0.100 A 
ATOM      4  C   UNL d   1      53.107  30.222  53.358  0.00  0.00     0.024 A 
ATOM      5  C   UNL d   1      53.135  29.414  53.562  0.00  0.00     0.013 A 
ATOM      6  C   UNL d   1      52.891  30.430  52.598  0.00  0.00     0.002 C 
ATOM      7  C   UNL d   1      53.350  29.174  54.321  0.00  0.00     0.058 A 
ATOM      8  C   UNL d   1      53.542  29.743  54.892  0.00  0.00     0.013 A 
ATOM      9 CL   UNL d   1      53.380  28.353  54.537  0.00  0.00    -0.082 Cl
ATOM     10  C   UNL d   1      53.521  30.557  54.708  0.00  0.00     0.026 A 
ENDBRANCH   2   3
ENDBRANCH   1   2
BRANCH   1  11
ATOM     11  C   UNL d   1      53.562  32.902  54.181  0.00  0.00     0.142 A 
ATOM     12  N   UNL d   1      53.655  33.408  54.827  0.00  0.00    -0.057 NA
ATOM     13  C   UNL d   1      53.397  34.142  54.604  0.00  0.00     0.735 A 
ATOM     14  N   UNL d   1      53.147  34.099  53.832  0.00  0.00    -0.136 N 
ATOM     15  N   UNL d   1      53.356  34.862  55.015  0.00  0.00    -0.059 NA
ATOM     16  C   UNL d   1      53.255  33.335  53.590  0.00  0.00     0.120 A 
ATOM     17  C   UNL d   1      52.850  34.789  53.463  0.00  0.00     0.100 A 
ATOM     18  C   UNL d   1      52.811  35.489  53.861  0.00  0.00     0.041 A 
ATOM     19  C   UNL d   1      53.067  35.526  54.646  0.00  0.00     0.119 A 
ENDBRANCH   1  11
TORSDOF 3
ENDMDL
MODEL 4
REMARK VINA RESULT:      -6.9      2.295      4.675
REMARK  3 active torsions:
REMARK  status: ('A' for Active; 'I' for Inactive)
REMARK    1  A    between atoms: C_14  and  C_4 
REMARK    2  A    between atoms: C_10  and  O_11 
REMARK    3  A    between atoms: O_11  and  C_14 
ROOT
ATOM      1  C   UNL d   1      51.976  34.005  52.878  0.00  0.00     0.144 C 
ENDROOT
BRANCH   1   2
ATOM      2  O   UNL d   1      51.233  34.289  53.126  0.00  0.00    -0.303 OA
BRANCH   2   3
ATOM      3  C   UNL d   1      50.633  34.369  52.595  0.00  0.00     0.100 A 
ATOM      4  C   UNL d   1      49.907  34.696  52.828  0.00  0.00     0.024 A 
ATOM      5  C   UNL d   1      49.295  34.772  52.267  0.00  0.00     0.013 A 
ATOM      6  C   UNL d   1      49.773  34.947  53.594  0.00  0.00     0.002 C 
ATOM      7  C   UNL d   1      49.401  34.527  51.487  0.00  0.00     0.058 A 
ATOM      8  C   UNL d   1      50.126  34.200  51.254  0.00  0.00     0.013 A 
ATOM      9 CL   UNL d   1      48.782  34.600  50.909  0.00  0.00    -0.082 Cl
ATOM     10  C   UNL d   1      50.751  34.115  51.800  0.00  0.00     0.026 A 
ENDBRANCH   2   3
ENDBRANCH   1   2
BRANCH   1  11
ATOM     11  C   UNL d   1      52.559  33.857  53.420  0.00  0.00     0.142 A 
ATOM     12  N   UNL d   1      53.019  34.427  53.800  0.00  0.00    -0.057 NA
ATOM     13  C   UNL d   1      53.531  34.041  54.294  0.00  0.00     0.735 A 
ATOM     14  N   UNL d   1      53.395  33.243  54.225  0.00  0.00    -0.136 N 
ATOM     15  N   UNL d   1      54.118  34.320  54.810  0.00  0.00    -0.059 NA
ATOM     16  C   UNL d   1      52.799  33.149  53.687  0.00  0.00     0.120 A 
ATOM     17  C   UNL d   1      53.856  32.712  54.681  0.00  0.00     0.100 A 
ATOM     18  C   UNL d   1      54.426  32.984  55.182  0.00  0.00     0.041 A 
ATOM     19  C   UNL d   1      54.559  33.796  55.248  0.00  0.00     0.119 A 
ENDBRANCH   1  11
TORSDOF 3
ENDMDL
MODEL 5
REMARK VINA RESULT:      -6.6      2.514      4.861
REMARK  3 active torsions:
REMARK  status: ('A' for Active; 'I' for Inactive)
REMARK    1  A    between atoms: C_14  and  C_4 
REMARK    2  A    between atoms: C_10  and  O_11 
REMARK    3  A    between atoms: O_11  and  C_14 
ROOT
ATOM      1  C   UNL d   1      50.213  34.463  52.942  0.00  0.00     0.144 C 
ENDROOT
BRANCH   1   2
ATOM      2  O   UNL d   1      49.796  34.468  52.222  0.00  0.00    -0.303 OA
BRANCH   2   3
ATOM      3  C   UNL d   1      49.109  34.883  52.154  0.00  0.00     0.100 A 
ATOM      4  C   UNL d   1      48.676  34.867  51.447  0.00  0.00     0.024 A 
ATOM      5  C   UNL d   1      47.967  35.301  51.393  0.00  0.00     0.013 A 
ATOM      6  C   UNL d   1      48.926  34.437  50.799  0.00  0.00     0.002 C 
ATOM      7  C   UNL d   1      47.690  35.745  52.031  0.00  0.00     0.058 A 
ATOM      8  C   UNL d   1      48.123  35.761  52.738  0.00  0.00     0.013 A 
ATOM      9 CL   UNL d   1      46.968  36.190  51.984  0.00  0.00    -0.082 Cl
ATOM     10  C   UNL d   1      48.835  35.333  52.812  0.00  0.00     0.026 A 
ENDBRANCH   2   3
ENDBRANCH   1   2
BRANCH   1  11
ATOM     11  C   UNL d   1      50.910  34.057  53.009  0.00  0.00     0.142 A 
ATOM     12  N   UNL d   1      50.988  33.235  53.035  0.00  0.00    -0.057 NA
ATOM     13  C   UNL d   1      51.777  33.066  53.104  0.00  0.00     0.735 A 
ATOM     14  N   UNL d   1      52.187  33.767  53.120  0.00  0.00    -0.136 N 
ATOM     15  N   UNL d   1      52.184  32.344  53.154  0.00  0.00    -0.059 NA
ATOM     16  C   UNL d   1      51.642  34.362  53.061  0.00  0.00     0.120 A 
ATOM     17  C   UNL d   1      53.021  33.747  53.188  0.00  0.00     0.100 A 
ATOM     18  C   UNL d   1      53.417  33.047  53.238  0.00  0.00     0.041 A 
ATOM     19  C   UNL d   1      52.994  32.337  53.220  0.00  0.00     0.119 A 
ENDBRANCH   1  11
TORSDOF 3
ENDMDL
MODEL 6
REMARK VINA RESULT:      -5.4      9.992     10.930
REMARK  3 active torsions:
REMARK  status: ('A' for Active; 'I' for Inactive)
REMARK    1  A    between atoms: C_14  and  C_4 
REMARK    2  A    between atoms: C_10  and  O_11 
REMARK    3  A    between atoms: O_11  and  C_14 
ROOT
ATOM      1  C   UNL d   1      44.739  30.703  59.334  0.00  0.00     0.144 C 
ENDROOT
BRANCH   1   2
ATOM      2  O   UNL d   1      44.866  29.964  58.971  0.00  0.00    -0.303 OA
BRANCH   2   3
ATOM      3  C   UNL d   1      44.827  29.894  58.169  0.00  0.00     0.100 A 
ATOM      4  C   UNL d   1      44.987  29.168  57.803  0.00  0.00     0.024 A 
ATOM      5  C   UNL d   1      44.942  29.112  56.972  0.00  0.00     0.013 A 
ATOM      6  C   UNL d   1      45.189  28.503  58.233  0.00  0.00     0.002 C 
ATOM      7  C   UNL d   1      44.741  29.766  56.512  0.00  0.00     0.058 A 
ATOM      8  C   UNL d   1      44.581  30.492  56.878  0.00  0.00     0.013 A 
ATOM      9 CL   UNL d   1      44.693  29.717  55.665  0.00  0.00    -0.082 Cl
ATOM     10  C   UNL d   1      44.621  30.569  57.708  0.00  0.00     0.026 A 
ENDBRANCH   2   3
ENDBRANCH   1   2
BRANCH   1  11
ATOM     11  C   UNL d   1      44.658  30.755  60.137  0.00  0.00     0.142 A 
ATOM     12  N   UNL d   1      44.591  31.456  60.569  0.00  0.00    -0.057 NA
ATOM     13  C   UNL d   1      44.521  31.257  61.351  0.00  0.00     0.735 A 
ATOM     14  N   UNL d   1      44.543  30.447  61.409  0.00  0.00    -0.136 N 
ATOM     15  N   UNL d   1      44.437  31.721  62.034  0.00  0.00    -0.059 NA
ATOM     16  C   UNL d   1      44.627  30.157  60.659  0.00  0.00     0.120 A 
ATOM     17  C   UNL d   1      44.480  30.093  62.165  0.00  0.00     0.100 A 
ATOM     18  C   UNL d   1      44.399  30.544  62.829  0.00  0.00     0.041 A 
ATOM     19  C   UNL d   1      44.378  31.367  62.763  0.00  0.00     0.119 A 
ENDBRANCH   1  11
TORSDOF 3
ENDMDL
MODEL 7
REMARK VINA RESULT:      -5.4      9.911     10.701
REMARK  3 active torsions:
REMARK  status: ('A' for Active; 'I' for Inactive)
REMARK    1  A    between atoms: C_14  and  C_4 
REMARK    2  A    between atoms: C_10  and  O_11 
REMARK    3  A    between atoms: O_11  and  C_14 
ROOT
ATOM      1  C   UNL d   1      45.146  27.687  57.296  0.00  0.00     0.144 C 
ENDROOT
BRANCH   1   2
ATOM      2  O   UNL d   1      44.784  28.323  56.899  0.00  0.00    -0.303 OA
BRANCH   2   3
ATOM      3  C   UNL d   1      44.831  29.069  57.200  0.00  0.00     0.100 A 
ATOM      4  C   UNL d   1      44.658  29.725  56.724  0.00  0.00     0.024 A 
ATOM      5  C   UNL d   1      44.711  30.491  57.051  0.00  0.00     0.013 A 
ATOM      6  C   UNL d   1      44.436  29.645  55.942  0.00  0.00     0.002 C 
ATOM      7  C   UNL d   1      44.932  30.603  57.837  0.00  0.00     0.058 A 
ATOM      8  C   UNL d   1      45.106  29.947  58.313  0.00  0.00     0.013 A 
ATOM      9 CL   UNL d   1      44.989  31.380  58.177  0.00  0.00    -0.082 Cl
ATOM     10  C   UNL d   1      45.059  29.172  58.005  0.00  0.00     0.026 A 
ENDBRANCH   2   3
ENDBRANCH   1   2
BRANCH   1  11
ATOM     11  C   UNL d   1      45.012  26.926  57.058  0.00  0.00     0.142 A 
ATOM     12  N   UNL d   1      45.244  26.600  56.335  0.00  0.00    -0.057 NA
ATOM     13  C   UNL d   1      45.000  25.828  56.324  0.00  0.00     0.735 A 
ATOM     14  N   UNL d   1      44.623  25.671  57.026  0.00  0.00    -0.136 N 
ATOM     15  N   UNL d   1      45.076  25.233  55.751  0.00  0.00    -0.059 NA
ATOM     16  C   UNL d   1      44.639  26.353  57.462  0.00  0.00     0.120 A 
ATOM     17  C   UNL d   1      44.314  24.904  57.158  0.00  0.00     0.100 A 
ATOM     18  C   UNL d   1      44.387  24.326  56.602  0.00  0.00     0.041 A 
ATOM     19  C   UNL d   1      44.772  24.491  55.890  0.00  0.00     0.119 A 
ENDBRANCH   1  11
TORSDOF 3
ENDMDL
MODEL 8
REMARK VINA RESULT:      -5.3      9.449     10.469
REMARK  3 active torsions:
REMARK  status: ('A' for Active; 'I' for Inactive)
REMARK    1  A    between atoms: C_14  and  C_4 
REMARK    2  A    between atoms: C_10  and  O_11 
REMARK    3  A    between atoms: O_11  and  C_14 
ROOT
ATOM      1  C   UNL d   1      44.998  28.999  57.218  0.00  0.00     0.144 C 
ENDROOT
BRANCH   1   2
ATOM      2  O   UNL d   1      44.791  29.639  57.710  0.00  0.00    -0.303 OA
BRANCH   2   3
ATOM      3  C   UNL d   1      44.678  30.371  57.395  0.00  0.00     0.100 A 
ATOM      4  C   UNL d   1      44.746  31.048  57.870  0.00  0.00     0.024 A 
ATOM      5  C   UNL d   1      44.626  31.799  57.530  0.00  0.00     0.013 A 
ATOM      6  C   UNL d   1      44.929  30.999  58.665  0.00  0.00     0.002 C 
ATOM      7  C   UNL d   1      44.440  31.879  56.730  0.00  0.00     0.058 A 
ATOM      8  C   UNL d   1      44.371  31.203  56.255  0.00  0.00     0.013 A 
ATOM      9 CL   UNL d   1      44.315  32.641  56.376  0.00  0.00    -0.082 Cl
ATOM     10  C   UNL d   1      44.488  30.442  56.577  0.00  0.00     0.026 A 
ENDBRANCH   2   3
ENDBRANCH   1   2
BRANCH   1  11
ATOM     11  C   UNL d   1      44.953  28.240  57.494  0.00  0.00     0.142 A 
ATOM     12  N   UNL d   1      45.364  27.939  58.144  0.00  0.00    -0.057 NA
ATOM     13  C   UNL d   1      45.158  27.160  58.225  0.00  0.00     0.735 A 
ATOM     14  N   UNL d   1      44.629  26.975  57.638  0.00  0.00    -0.136 N 
ATOM     15  N   UNL d   1      45.391  26.581  58.772  0.00  0.00    -0.059 NA
ATOM     16  C   UNL d   1      44.515  27.646  57.201  0.00  0.00     0.120 A 
ATOM     17  C   UNL d   1      44.326  26.195  57.596  0.00  0.00     0.100 A 
ATOM     18  C   UNL d   1      44.552  25.633  58.127  0.00  0.00     0.041 A 
ATOM     19  C   UNL d   1      45.091  25.828  58.722  0.00  0.00     0.119 A 
ENDBRANCH   1  11
TORSDOF 3
ENDMDL
MODEL 9
REMARK VINA RESULT:      -5.1     10.241     10.906
REMARK  3 active torsions:
REMARK  status: ('A' for Active; 'I' for Inactive)
REMARK    1  A    between atoms: C_14  and  C_4 
REMARK    2  A    between atoms: C_10  and  O_11 
REMARK    3  A    between atoms: O_11  and  C_14 
ROOT
ATOM      1  C   UNL d   1      45.077  28.324  59.004  0.00  0.00     0.144 C 
ENDROOT
BRANCH   1   2
ATOM      2  O   UNL d   1      44.869  29.111  58.831  0.00  0.00    -0.303 OA
BRANCH   2   3
ATOM      3  C   UNL d   1      44.790  29.649  59.425  0.00  0.00     0.100 A 
ATOM      4  C   UNL d   1      44.815  30.462  59.262  0.00  0.00     0.024 A 
ATOM      5  C   UNL d   1      44.732  31.006  59.887  0.00  0.00     0.013 A 
ATOM      6  C   UNL d   1      44.919  30.746  58.503  0.00  0.00     0.002 C 
ATOM      7  C   UNL d   1      44.625  30.749  60.664  0.00  0.00     0.058 A 
ATOM      8  C   UNL d   1      44.600  29.937  60.827  0.00  0.00     0.013 A 
ATOM      9 CL   UNL d   1      44.540  31.297  61.307  0.00  0.00    -0.082 Cl
ATOM     10  C   UNL d   1      44.682  29.375  60.215  0.00  0.00     0.026 A 
ENDBRANCH   2   3
ENDBRANCH   1   2
BRANCH   1  11
ATOM     11  C   UNL d   1      45.011  27.749  58.438  0.00  0.00     0.142 A 
ATOM     12  N   UNL d   1      45.423  27.728  57.723  0.00  0.00    -0.057 NA
ATOM     13  C   UNL d   1      45.192  27.062  57.325  0.00  0.00     0.735 A 
ATOM     14  N   UNL d   1      44.645  26.671  57.782  0.00  0.00    -0.136 N 
ATOM     15  N   UNL d   1      45.415  26.753  56.588  0.00  0.00    -0.059 NA
ATOM     16  C   UNL d   1      44.547  27.105  58.457  0.00  0.00     0.120 A 
ATOM     17  C   UNL d   1      44.314  25.957  57.496  0.00  0.00     0.100 A 
ATOM     18  C   UNL d   1      44.531  25.657  56.780  0.00  0.00     0.041 A 
ATOM     19  C   UNL d   1      45.087  26.059  56.320  0.00  0.00     0.119 A 
ENDBRANCH   1  11
TORSDOF 3
ENDMDL
