MODEL 1
REMARK VINA RESULT:      77.0      0.000      0.000
REMARK  6 active torsions:
REMARK  status: ('A' for Active; 'I' for Inactive)
REMARK    1  A    between atoms: N_2  and  C_1 
REMARK    2  A    between atoms: N_7  and  C_1 
REMARK    3  A    between atoms: C_5  and  C_3 
REMARK    4  A    between atoms: C_6  and  C_5 
REMARK       I    between atoms: N_8  and  C_6 
REMARK    5  A    between atoms: C_18  and  N_7 
REMARK    6  A    between atoms: C_9  and  N_8 
ROOT
ATOM      1  N   UNL d   1     -50.661  26.150  33.888  0.00  0.00    -0.278 N 
ATOM      2  C   UNL d   1     -50.770  26.492  34.625  0.00  0.00     0.127 A 
ATOM      3  C   UNL d   1     -50.430  27.243  34.788  0.00  0.00     0.274 A 
ATOM      4  N   UNL d   1     -49.989  27.639  34.217  0.00  0.00    -0.318 N 
ATOM      5  O   UNL d   1     -50.539  27.585  35.526  0.00  0.00    -0.266 OA
ATOM      6  C   UNL d   1     -50.221  26.537  33.308  0.00  0.00     0.101 A 
ATOM      7  C   UNL d   1     -49.888  27.277  33.474  0.00  0.00     0.094 A 
ATOM      8  H   UNL d   1     -49.652  28.376  34.370  0.00  0.00     0.169 HD
ENDROOT
BRANCH   2   9
ATOM      9  C   UNL d   1     -51.205  26.106  35.196  0.00  0.00     0.083 C 
BRANCH   9  10
ATOM     10  C   UNL d   1     -51.102  26.292  35.988  0.00  0.00     0.259 C 
ATOM     11  N   UNL d   1     -51.702  26.120  36.532  0.00  0.00    -0.321 N 
ATOM     12  H   UNL d   1     -52.404  25.761  36.279  0.00  0.00     0.169 HD
ATOM     13  O   UNL d   1     -50.400  26.651  36.241  0.00  0.00    -0.267 OA
BRANCH  11  14
ATOM     14  C   UNL d   1     -51.588  26.311  37.325  0.00  0.00     0.059 A 
ATOM     15  C   UNL d   1     -52.179  26.092  37.879  0.00  0.00     0.016 A 
ATOM     16  C   UNL d   1     -52.073  26.279  38.672  0.00  0.00     0.001 A 
ATOM     17  C   UNL d   1     -52.861  25.693  37.634  0.00  0.00     0.002 C 
ATOM     18  C   UNL d   1     -51.379  26.685  38.922  0.00  0.00     0.000 A 
ATOM     19  C   UNL d   1     -50.792  26.902  38.371  0.00  0.00     0.002 A 
ATOM     20  C   UNL d   1     -51.277  26.871  39.723  0.00  0.00     0.000 C 
ATOM     21  C   UNL d   1     -50.905  26.709  37.566  0.00  0.00     0.017 A 
ENDBRANCH  11  14
ENDBRANCH   9  10
ENDBRANCH   2   9
BRANCH   1  22
ATOM     22  C   UNL d   1     -50.993  25.415  33.726  0.00  0.00     0.184 C 
ATOM     23  S   UNL d   1     -50.598  24.739  33.980  0.00  0.00    -0.040 SA
BRANCH  22  24
ATOM     24  N   UNL d   1     -51.705  25.366  33.319  0.00  0.00    -0.331 N 
ATOM     25  H   UNL d   1     -51.943  26.006  32.861  0.00  0.00     0.168 HD
BRANCH  24  26
ATOM     26  C   UNL d   1     -52.175  24.695  33.365  0.00  0.00     0.058 A 
ATOM     27  C   UNL d   1     -52.992  24.759  33.306  0.00  0.00     0.017 A 
ATOM     28  C   UNL d   1     -53.462  24.089  33.352  0.00  0.00     0.002 A 
ATOM     29  C   UNL d   1     -53.108  23.352  33.456  0.00  0.00     0.000 A 
ATOM     30  C   UNL d   1     -52.288  23.285  33.516  0.00  0.00     0.002 A 
ATOM     31  C   UNL d   1     -51.823  23.963  33.469  0.00  0.00     0.017 A 
ENDBRANCH  24  26
ENDBRANCH  22  24
ENDBRANCH   1  22
TORSDOF 6
ENDMDL
MODEL 2
REMARK VINA RESULT:      77.1      2.373      3.346
REMARK  6 active torsions:
REMARK  status: ('A' for Active; 'I' for Inactive)
REMARK    1  A    between atoms: N_2  and  C_1 
REMARK    2  A    between atoms: N_7  and  C_1 
REMARK    3  A    between atoms: C_5  and  C_3 
REMARK    4  A    between atoms: C_6  and  C_5 
REMARK       I    between atoms: N_8  and  C_6 
REMARK    5  A    between atoms: C_18  and  N_7 
REMARK    6  A    between atoms: C_9  and  N_8 
ROOT
ATOM      1  N   UNL d   1     -51.161  26.617  33.878  0.00  0.00    -0.278 N 
ATOM      2  C   UNL d   1     -50.825  27.321  33.625  0.00  0.00     0.127 A 
ATOM      3  C   UNL d   1     -51.302  28.009  33.560  0.00  0.00     0.274 A 
ATOM      4  N   UNL d   1     -52.104  27.986  33.748  0.00  0.00    -0.318 N 
ATOM      5  O   UNL d   1     -50.966  28.714  33.307  0.00  0.00    -0.266 OA
ATOM      6  C   UNL d   1     -51.962  26.581  34.068  0.00  0.00     0.101 A 
ATOM      7  C   UNL d   1     -52.429  27.262  34.003  0.00  0.00     0.094 A 
ATOM      8  H   UNL d   1     -52.578  28.656  33.687  0.00  0.00     0.169 HD
ENDROOT
BRANCH   2   9
ATOM      9  C   UNL d   1     -50.032  27.353  33.437  0.00  0.00     0.083 C 
BRANCH   9  10
ATOM     10  C   UNL d   1     -49.556  27.936  33.762  0.00  0.00     0.259 C 
ATOM     11  N   UNL d   1     -49.199  27.813  34.499  0.00  0.00    -0.321 N 
ATOM     12  H   UNL d   1     -49.324  27.104  34.908  0.00  0.00     0.169 HD
ATOM     13  O   UNL d   1     -49.431  28.645  33.353  0.00  0.00    -0.267 OA
BRANCH  11  14
ATOM     14  C   UNL d   1     -48.723  28.404  34.815  0.00  0.00     0.059 A 
ATOM     15  C   UNL d   1     -48.548  28.383  35.636  0.00  0.00     0.016 A 
ATOM     16  C   UNL d   1     -48.073  28.970  35.960  0.00  0.00     0.001 A 
ATOM     17  C   UNL d   1     -48.848  27.779  36.116  0.00  0.00     0.002 C 
ATOM     18  C   UNL d   1     -47.768  29.584  35.472  0.00  0.00     0.000 A 
ATOM     19  C   UNL d   1     -47.942  29.605  34.657  0.00  0.00     0.002 A 
ATOM     20  C   UNL d   1     -47.289  30.173  35.804  0.00  0.00     0.000 C 
ATOM     21  C   UNL d   1     -48.425  29.006  34.333  0.00  0.00     0.017 A 
ENDBRANCH  11  14
ENDBRANCH   9  10
ENDBRANCH   2   9
BRANCH   1  22
ATOM     22  C   UNL d   1     -50.695  25.942  33.941  0.00  0.00     0.184 C 
ATOM     23  S   UNL d   1     -50.299  25.802  34.649  0.00  0.00    -0.040 SA
BRANCH  22  24
ATOM     24  N   UNL d   1     -50.632  25.425  33.306  0.00  0.00    -0.331 N 
ATOM     25  H   UNL d   1     -50.222  25.668  32.637  0.00  0.00     0.168 HD
BRANCH  24  26
ATOM     26  C   UNL d   1     -50.970  24.678  33.333  0.00  0.00     0.058 A 
ATOM     27  C   UNL d   1     -50.494  24.011  33.385  0.00  0.00     0.017 A 
ATOM     28  C   UNL d   1     -50.831  23.264  33.412  0.00  0.00     0.002 A 
ATOM     29  C   UNL d   1     -51.651  23.189  33.385  0.00  0.00     0.000 A 
ATOM     30  C   UNL d   1     -52.132  23.857  33.332  0.00  0.00     0.002 A 
ATOM     31  C   UNL d   1     -51.785  24.603  33.306  0.00  0.00     0.017 A 
ENDBRANCH  24  26
ENDBRANCH  22  24
ENDBRANCH   1  22
TORSDOF 6
ENDMDL
