MODEL 1
REMARK VINA RESULT:      70.6      0.000      0.000
REMARK  7 active torsions:
REMARK  status: ('A' for Active; 'I' for Inactive)
REMARK    1  A    between atoms: S_2  and  C_1 
REMARK    2  A    between atoms: C_7  and  S_2 
REMARK    3  A    between atoms: C_9  and  N_3 
REMARK    4  A    between atoms: C_11  and  C_7 
REMARK    5  A    between atoms: C_8  and  C_9 
REMARK       I    between atoms: N_10  and  C_8 
REMARK       I    between atoms: N_15  and  C_11 
REMARK    6  A    between atoms: C_12  and  C_16 
REMARK    7  A    between atoms: C_23  and  N_15 
ROOT
ATOM      1  C   UNL d   1      13.659  14.484  -4.334  0.00  0.00     0.107 A 
ATOM      2  N   UNL d   1      13.771  14.122  -3.058  0.00  0.00    -0.299 N 
ATOM      3  C   UNL d   1      13.877  14.749  -3.581  0.00  0.00     0.092 A 
ATOM      4  C   UNL d   1      13.420  13.696  -4.270  0.00  0.00     0.028 A 
ATOM      5  C   UNL d   1      13.491  13.474  -3.477  0.00  0.00     0.065 A 
ATOM      6  C   UNL d   1      13.150  13.157  -4.829  0.00  0.00     0.002 A 
ATOM      7  C   UNL d   1      13.289  12.708  -3.251  0.00  0.00     0.018 A 
ATOM      8  C   UNL d   1      12.946  12.387  -4.602  0.00  0.00     0.000 A 
ATOM      9  C   UNL d   1      13.018  12.167  -3.809  0.00  0.00     0.002 A 
ENDROOT
BRANCH   1  10
ATOM     10  S   UNL d   1      13.676  14.932  -5.031  0.00  0.00     0.217 S 
ATOM     11  O   UNL d   1      14.470  14.776  -5.162  0.00  0.00    -0.217 OA
ATOM     12  O   UNL d   1      12.871  15.087  -4.895  0.00  0.00    -0.217 OA
BRANCH  10  13
ATOM     13  C   UNL d   1      13.690  15.381  -5.728  0.00  0.00     0.161 C 
BRANCH  13  14
ATOM     14  C   UNL d   1      13.868  16.174  -5.697  0.00  0.00     0.291 C 
ATOM     15  N   UNL d   1      13.357  16.732  -6.025  0.00  0.00    -0.207 NA
ATOM     16  O   UNL d   1      14.569  16.426  -5.332  0.00  0.00    -0.264 OA
BRANCH  15  17
ATOM     17  C   UNL d   1      13.541  17.535  -5.991  0.00  0.00     0.085 A 
ATOM     18  C   UNL d   1      13.065  18.090  -6.378  0.00  0.00     0.019 A 
ATOM     19  C   UNL d   1      13.243  18.892  -6.349  0.00  0.00     0.006 A 
ATOM     20  C   UNL d   1      13.910  19.154  -5.925  0.00  0.00     0.059 A 
ATOM     21  C   UNL d   1      14.392  18.609  -5.534  0.00  0.00     0.006 A 
ATOM     22  C   UNL d   1      14.209  17.793  -5.566  0.00  0.00     0.019 A 
BRANCH  20  23
ATOM     23  C   UNL d   1      14.096  19.950  -5.889  0.00  0.00     0.297 C 
ATOM     24  O   UNL d   1      13.726  20.498  -6.388  0.00  0.00    -0.264 OA
ATOM     25  N   UNL d   1      14.670  20.215  -5.338  0.00  0.00    -0.102 N 
ENDBRANCH  20  23
ENDBRANCH  15  17
ENDBRANCH  13  14
ENDBRANCH  10  13
ENDBRANCH   1  10
BRANCH   2  26
ATOM     26  C   UNL d   1      13.922  14.142  -2.248  0.00  0.00     0.142 C 
BRANCH  26  27
ATOM     27  C   UNL d   1      14.338  14.772  -1.922  0.00  0.00     0.282 C 
ATOM     28  N   UNL d   1      14.694  14.693  -1.183  0.00  0.00    -0.271 N 
ATOM     29  C   UNL d   1      14.684  14.025  -0.705  0.00  0.00     0.083 A 
ATOM     30  C   UNL d   1      15.129  15.278  -0.787  0.00  0.00     0.083 A 
ATOM     31  C   UNL d   1      15.105  14.185  -0.019  0.00  0.00     0.021 A 
ATOM     32  C   UNL d   1      15.383  14.960  -0.066  0.00  0.00     0.021 A 
ATOM     33  O   UNL d   1      14.398  15.481  -2.335  0.00  0.00    -0.265 OA
ENDBRANCH  26  27
ENDBRANCH   2  26
TORSDOF 7
ENDMDL
