MODEL 1
REMARK VINA RESULT:      -1.4      0.000      0.000
REMARK  7 active torsions:
REMARK  status: ('A' for Active; 'I' for Inactive)
REMARK    1  A    between atoms: S_10  and  C_5 
REMARK    2  A    between atoms: C_11  and  N_8 
REMARK    3  A    between atoms: C_15  and  S_10 
REMARK    4  A    between atoms: C_19  and  C_11 
REMARK    5  A    between atoms: C_14  and  C_15 
REMARK    6  A    between atoms: C_17  and  C_14 
REMARK    7  A    between atoms: C_20  and  C_19 
ROOT
ATOM      1  C   UNL d   1      33.117  21.568 -21.289  0.00  0.00     0.174 A 
ATOM      2  C   UNL d   1      33.162  22.231 -21.778  0.00  0.00     0.159 A 
ATOM      3  N   UNL d   1      33.120  20.898 -21.760  0.00  0.00    -0.203 NA
ATOM      4  N   UNL d   1      33.079  21.663 -20.455  0.00  0.00    -0.239 N 
ATOM      5  C   UNL d   1      33.168  21.185 -22.541  0.00  0.00     0.181 A 
ATOM      6  C   UNL d   1      33.085  22.388 -20.126  0.00  0.00     0.358 A 
ATOM      7  N   UNL d   1      33.131  23.077 -20.634  0.00  0.00    -0.152 NA
ATOM      8  N   UNL d   1      33.191  21.955 -22.540  0.00  0.00    -0.279 N 
ATOM      9  C   UNL d   1      33.169  23.002 -21.443  0.00  0.00     0.302 A 
ATOM     10  O   UNL d   1      33.046  22.457 -19.299  0.00  0.00    -0.244 OA
ATOM     11  O   UNL d   1      33.213  23.681 -21.910  0.00  0.00    -0.263 OA
ATOM     12  C   UNL d   1      33.034  21.016 -19.944  0.00  0.00     0.105 C 
ENDROOT
BRANCH   5  13
ATOM     13  S   UNL d   1      33.187  20.706 -23.226  0.00  0.00    -0.046 SA
BRANCH  13  14
ATOM     14  C   UNL d   1      33.121  19.889 -23.167  0.00  0.00     0.080 C 
BRANCH  14  15
ATOM     15  C   UNL d   1      32.983  19.430 -23.846  0.00  0.00     0.202 C 
ATOM     16  O   UNL d   1      33.108  19.761 -24.575  0.00  0.00    -0.286 OA
BRANCH  15  17
ATOM     17  C   UNL d   1      32.722  18.651 -23.770  0.00  0.00     0.040 A 
ATOM     18  C   UNL d   1      32.749  18.271 -23.052  0.00  0.00     0.003 A 
ATOM     19  C   UNL d   1      32.488  17.493 -22.976  0.00  0.00     0.000 A 
ATOM     20  C   UNL d   1      32.190  17.080 -23.641  0.00  0.00     0.000 A 
ATOM     21  C   UNL d   1      32.170  17.478 -24.359  0.00  0.00     0.000 A 
ATOM     22  C   UNL d   1      32.430  18.253 -24.431  0.00  0.00     0.003 A 
ENDBRANCH  15  17
ENDBRANCH  14  15
ENDBRANCH  13  14
ENDBRANCH   5  13
BRANCH   8  23
ATOM     23  C   UNL d   1      33.241  22.435 -23.242  0.00  0.00     0.082 C 
BRANCH  23  24
ATOM     24  C   UNL d   1      32.588  22.844 -23.533  0.00  0.00     0.019 C 
BRANCH  24  25
ATOM     25  C   UNL d   1      32.593  23.170 -24.255  0.00  0.00     0.002 C 
ATOM     26  C   UNL d   1      32.011  22.962 -24.801  0.00  0.00     0.000 C 
ATOM     27  C   UNL d   1      33.150  23.696 -24.465  0.00  0.00     0.000 C 
ENDBRANCH  24  25
ENDBRANCH  23  24
ENDBRANCH   8  23
TORSDOF 7
ENDMDL
MODEL 2
REMARK VINA RESULT:       0.6      3.085      5.856
REMARK  7 active torsions:
REMARK  status: ('A' for Active; 'I' for Inactive)
REMARK    1  A    between atoms: S_10  and  C_5 
REMARK    2  A    between atoms: C_11  and  N_8 
REMARK    3  A    between atoms: C_15  and  S_10 
REMARK    4  A    between atoms: C_19  and  C_11 
REMARK    5  A    between atoms: C_14  and  C_15 
REMARK    6  A    between atoms: C_17  and  C_14 
REMARK    7  A    between atoms: C_20  and  C_19 
ROOT
ATOM      1  C   UNL d   1      29.794  17.686 -23.927  0.00  0.00     0.174 A 
ATOM      2  C   UNL d   1      30.137  16.988 -24.204  0.00  0.00     0.159 A 
ATOM      3  N   UNL d   1      30.379  18.255 -23.864  0.00  0.00    -0.203 NA
ATOM      4  N   UNL d   1      28.970  17.712 -23.765  0.00  0.00    -0.239 N 
ATOM      5  C   UNL d   1      31.077  17.874 -24.111  0.00  0.00     0.181 A 
ATOM      6  C   UNL d   1      28.512  17.070 -23.874  0.00  0.00     0.358 A 
ATOM      7  N   UNL d   1      28.869  16.346 -24.161  0.00  0.00    -0.152 NA
ATOM      8  N   UNL d   1      30.927  17.143 -24.305  0.00  0.00    -0.279 N 
ATOM      9  C   UNL d   1      29.664  16.304 -24.323  0.00  0.00     0.302 A 
ATOM     10  O   UNL d   1      27.699  17.120 -23.706  0.00  0.00    -0.244 OA
ATOM     11  O   UNL d   1      29.983  15.595 -24.599  0.00  0.00    -0.263 OA
ATOM     12  C   UNL d   1      28.602  18.397 -23.487  0.00  0.00     0.105 C 
ENDROOT
BRANCH   5  13
ATOM     13  S   UNL d   1      31.832  18.233 -24.144  0.00  0.00    -0.046 SA
BRANCH  13  14
ATOM     14  C   UNL d   1      32.074  18.752 -23.555  0.00  0.00     0.080 C 
BRANCH  14  15
ATOM     15  C   UNL d   1      32.709  19.270 -23.689  0.00  0.00     0.202 C 
ATOM     16  O   UNL d   1      33.149  19.185 -24.364  0.00  0.00    -0.286 OA
BRANCH  15  17
ATOM     17  C   UNL d   1      32.882  19.859 -23.138  0.00  0.00     0.040 A 
ATOM     18  C   UNL d   1      32.900  20.642 -23.357  0.00  0.00     0.003 A 
ATOM     19  C   UNL d   1      33.073  21.231 -22.807  0.00  0.00     0.000 A 
ATOM     20  C   UNL d   1      33.234  21.031 -22.011  0.00  0.00     0.000 A 
ATOM     21  C   UNL d   1      33.213  20.235 -21.805  0.00  0.00     0.000 A 
ATOM     22  C   UNL d   1      33.040  19.652 -22.355  0.00  0.00     0.003 A 
ENDBRANCH  15  17
ENDBRANCH  14  15
ENDBRANCH  13  14
ENDBRANCH   5  13
BRANCH   8  23
ATOM     23  C   UNL d   1      31.512  16.590 -24.583  0.00  0.00     0.082 C 
BRANCH  23  24
ATOM     24  C   UNL d   1      32.182  16.411 -24.141  0.00  0.00     0.019 C 
BRANCH  24  25
ATOM     25  C   UNL d   1      32.635  15.784 -24.311  0.00  0.00     0.002 C 
ATOM     26  C   UNL d   1      32.624  15.465 -25.072  0.00  0.00     0.000 C 
ATOM     27  C   UNL d   1      33.103  15.453 -23.760  0.00  0.00     0.000 C 
ENDBRANCH  24  25
ENDBRANCH  23  24
ENDBRANCH   8  23
TORSDOF 7
ENDMDL
