MODEL 1
REMARK VINA RESULT:     123.4      0.000      0.000
REMARK  6 active torsions:
REMARK  status: ('A' for Active; 'I' for Inactive)
REMARK    1  A    between atoms: N_6  and  C_1 
REMARK    2  A    between atoms: C_18  and  N_4 
REMARK       I    between atoms: C_8  and  N_6 
REMARK    3  A    between atoms: C_7  and  C_8 
REMARK    4  A    between atoms: C_11  and  C_7 
REMARK    5  A    between atoms: C_19  and  C_9 
REMARK    6  A    between atoms: C_12  and  C_11 
ROOT
ATOM      1  C   UNL d   1     -55.089-101.527 -41.248  0.00  0.00     0.128 C 
ATOM      2  C   UNL d   1     -54.989-102.200 -40.813  0.00  0.00     0.106 C 
ATOM      3  N   UNL d   1     -54.868-102.879 -40.311  0.00  0.00    -0.191 NA
ENDROOT
BRANCH   1   4
ATOM      4  C   UNL d   1     -55.343-101.589 -42.046  0.00  0.00     0.289 C 
ATOM      5  N   UNL d   1     -54.955-101.132 -42.609  0.00  0.00    -0.201 NA
ATOM      6  O   UNL d   1     -55.937-102.074 -42.248  0.00  0.00    -0.264 OA
BRANCH   5   7
ATOM      7  C   UNL d   1     -55.207-101.191 -43.413  0.00  0.00     0.160 A 
ATOM      8  C   UNL d   1     -55.120-101.815 -43.947  0.00  0.00     0.298 A 
ATOM      9  N   UNL d   1     -55.473-101.568 -44.658  0.00  0.00    -0.209 N 
ATOM     10  O   UNL d   1     -54.772-102.519 -43.828  0.00  0.00    -0.263 OA
ATOM     11  N   UNL d   1     -55.754-100.810 -44.518  0.00  0.00    -0.238 N 
ATOM     12  C   UNL d   1     -55.609-100.547 -43.765  0.00  0.00     0.104 A 
ATOM     13  C   UNL d   1     -56.164-100.342 -45.118  0.00  0.00     0.120 C 
ATOM     14  C   UNL d   1     -55.819 -99.814 -43.450  0.00  0.00     0.022 C 
BRANCH   9  15
ATOM     15  C   UNL d   1     -55.552-101.958 -45.380  0.00  0.00     0.085 A 
ATOM     16  C   UNL d   1     -56.286-101.948 -45.757  0.00  0.00     0.019 A 
ATOM     17  C   UNL d   1     -56.374-102.343 -46.490  0.00  0.00     0.002 A 
ATOM     18  C   UNL d   1     -55.735-102.734 -46.828  0.00  0.00     0.000 A 
ATOM     19  C   UNL d   1     -54.993-102.740 -46.440  0.00  0.00     0.002 A 
ATOM     20  C   UNL d   1     -54.913-102.349 -45.718  0.00  0.00     0.019 A 
ENDBRANCH   9  15
ENDBRANCH   5   7
ENDBRANCH   1   4
BRANCH   1  21
ATOM     21  C   UNL d   1     -54.955-100.771 -40.951  0.00  0.00     0.040 C 
BRANCH  21  22
ATOM     22  C   UNL d   1     -54.986-100.625 -40.095  0.00  0.00     0.101 A 
ATOM     23  O   UNL d   1     -55.024-101.213 -39.469  0.00  0.00    -0.307 OA
ATOM     24  C   UNL d   1     -55.044-100.801 -38.754  0.00  0.00     0.100 A 
ATOM     25  C   UNL d   1     -55.020-100.004 -38.929  0.00  0.00     0.027 A 
ATOM     26  C   UNL d   1     -54.985 -99.926 -39.759  0.00  0.00     0.027 A 
BRANCH  24  27
ATOM     27  C   UNL d   1     -55.082-101.166 -37.996  0.00  0.00     0.023 A 
ATOM     28  C   UNL d   1     -55.216-100.705 -37.338  0.00  0.00     0.003 A 
ATOM     29  C   UNL d   1     -55.254-101.069 -36.580  0.00  0.00     0.011 A 
ATOM     30  C   UNL d   1     -55.156-101.875 -36.520  0.00  0.00     0.058 A 
ATOM     31  C   UNL d   1     -55.022-102.335 -37.177  0.00  0.00     0.011 A 
ATOM     32 CL   UNL d   1     -55.194-102.240 -35.761  0.00  0.00    -0.082 Cl
ATOM     33  C   UNL d   1     -54.984-101.971 -37.935  0.00  0.00     0.003 A 
ENDBRANCH  24  27
ENDBRANCH  21  22
ENDBRANCH   1  21
TORSDOF 6
ENDMDL
