MODEL 1
REMARK VINA RESULT:      52.7      0.000      0.000
REMARK  6 active torsions:
REMARK  status: ('A' for Active; 'I' for Inactive)
REMARK    1  A    between atoms: C_8  and  C_1 
REMARK    2  A    between atoms: C_13  and  N_2 
REMARK    3  A    between atoms: C_7  and  C_4 
REMARK    4  A    between atoms: C_6  and  C_8 
REMARK    5  A    between atoms: C_21  and  C_13 
REMARK    6  A    between atoms: N_22  and  C_21 
ROOT
ATOM      1  C   UNL d   1      13.766  13.594  -2.681  0.00  0.00     0.103 A 
ATOM      2  N   UNL d   1      14.469  14.442  -1.929  0.00  0.00    -0.267 N 
ATOM      3  C   UNL d   1      13.701  14.347  -3.015  0.00  0.00     0.256 A 
ATOM      4  C   UNL d   1      14.240  13.655  -2.013  0.00  0.00     0.096 A 
ATOM      5  C   UNL d   1      14.136  14.872  -2.549  0.00  0.00     0.304 A 
ATOM      6  O   UNL d   1      14.217  15.685  -2.688  0.00  0.00    -0.263 OA
ATOM      7  O   UNL d   1      13.274  14.546  -3.698  0.00  0.00    -0.281 OA
ENDROOT
BRANCH   1   8
ATOM      8  C   UNL d   1      13.418  12.908  -2.969  0.00  0.00     0.223 C 
ATOM      9  O   UNL d   1      12.979  12.422  -2.463  0.00  0.00    -0.284 OA
BRANCH   8  10
ATOM     10  C   UNL d   1      13.499  12.692  -3.763  0.00  0.00     0.139 A 
ATOM     11  O   UNL d   1      14.133  12.875  -4.261  0.00  0.00    -0.304 OA
ATOM     12  C   UNL d   1      13.977  12.548  -5.001  0.00  0.00     0.100 A 
ATOM     13  C   UNL d   1      14.403  12.551  -5.700  0.00  0.00     0.025 A 
ATOM     14  C   UNL d   1      13.253  12.165  -4.964  0.00  0.00     0.025 A 
ATOM     15  C   UNL d   1      14.107  12.173  -6.361  0.00  0.00     0.002 A 
ATOM     16  C   UNL d   1      13.383  11.790  -6.326  0.00  0.00     0.000 A 
ATOM     17  C   UNL d   1      12.953  11.784  -5.629  0.00  0.00     0.002 A 
ATOM     18  C   UNL d   1      12.959  12.256  -4.196  0.00  0.00     0.030 A 
ENDBRANCH   8  10
ENDBRANCH   1   8
BRANCH   4  19
ATOM     19  C   UNL d   1      14.451  13.025  -1.507  0.00  0.00     0.116 A 
ATOM     20  O   UNL d   1      15.142  12.878  -1.085  0.00  0.00    -0.306 OA
ATOM     21  C   UNL d   1      15.047  12.176  -0.677  0.00  0.00     0.100 A 
ATOM     22  C   UNL d   1      15.603  11.817  -0.183  0.00  0.00     0.027 C 
ATOM     23  C   UNL d   1      14.296  11.877  -0.840  0.00  0.00     0.027 A 
ATOM     24  C   UNL d   1      13.922  12.408  -1.359  0.00  0.00     0.028 A 
ENDBRANCH   4  19
BRANCH   2  25
ATOM     25  C   UNL d   1      14.948  14.754  -1.332  0.00  0.00     0.102 C 
BRANCH  25  26
ATOM     26  C   UNL d   1      14.728  15.453  -0.948  0.00  0.00     0.100 C 
BRANCH  26  27
ATOM     27  N   UNL d   1      15.303  15.951  -0.622  0.00  0.00    -0.299 N 
ATOM     28  C   UNL d   1      15.871  15.641  -0.111  0.00  0.00     0.100 C 
ATOM     29  C   UNL d   1      15.302  16.751  -0.813  0.00  0.00     0.100 C 
ENDBRANCH  26  27
ENDBRANCH  25  26
ENDBRANCH   2  25
TORSDOF 6
ENDMDL
MODEL 2
REMARK VINA RESULT:      54.0      1.661      4.007
REMARK  6 active torsions:
REMARK  status: ('A' for Active; 'I' for Inactive)
REMARK    1  A    between atoms: C_8  and  C_1 
REMARK    2  A    between atoms: C_13  and  N_2 
REMARK    3  A    between atoms: C_7  and  C_4 
REMARK    4  A    between atoms: C_6  and  C_8 
REMARK    5  A    between atoms: C_21  and  C_13 
REMARK    6  A    between atoms: N_22  and  C_21 
ROOT
ATOM      1  C   UNL d   1      13.495  13.398  -3.405  0.00  0.00     0.103 A 
ATOM      2  N   UNL d   1      13.473  14.400  -4.284  0.00  0.00    -0.267 N 
ATOM      3  C   UNL d   1      13.478  14.108  -2.983  0.00  0.00     0.256 A 
ATOM      4  C   UNL d   1      13.492  13.580  -4.205  0.00  0.00     0.096 A 
ATOM      5  C   UNL d   1      13.464  14.729  -3.527  0.00  0.00     0.304 A 
ATOM      6  O   UNL d   1      13.445  15.535  -3.338  0.00  0.00    -0.263 OA
ATOM      7  O   UNL d   1      13.476  14.189  -2.157  0.00  0.00    -0.281 OA
ENDROOT
BRANCH   1   8
ATOM      8  C   UNL d   1      13.513  12.644  -3.078  0.00  0.00     0.223 C 
ATOM      9  O   UNL d   1      13.076  12.032  -3.423  0.00  0.00    -0.284 OA
BRANCH   8  10
ATOM     10  C   UNL d   1      13.964  12.485  -2.403  0.00  0.00     0.139 A 
ATOM     11  O   UNL d   1      14.768  12.644  -2.299  0.00  0.00    -0.304 OA
ATOM     12  C   UNL d   1      14.980  12.392  -1.544  0.00  0.00     0.100 A 
ATOM     13  C   UNL d   1      15.694  12.409  -1.144  0.00  0.00     0.025 A 
ATOM     14  C   UNL d   1      14.315  12.080  -1.181  0.00  0.00     0.025 A 
ATOM     15  C   UNL d   1      15.744  12.115  -0.383  0.00  0.00     0.002 A 
ATOM     16  C   UNL d   1      15.079  11.802  -0.020  0.00  0.00     0.000 A 
ATOM     17  C   UNL d   1      14.362  11.783  -0.415  0.00  0.00     0.002 A 
ATOM     18  C   UNL d   1      13.686  12.138  -1.716  0.00  0.00     0.030 A 
ENDBRANCH   8  10
ENDBRANCH   1   8
BRANCH   4  19
ATOM     19  C   UNL d   1      13.506  13.026  -4.831  0.00  0.00     0.116 A 
ATOM     20  O   UNL d   1      14.129  12.738  -5.285  0.00  0.00    -0.306 OA
ATOM     21  C   UNL d   1      13.825  12.203  -5.823  0.00  0.00     0.100 A 
ATOM     22  C   UNL d   1      14.254  11.780  -6.389  0.00  0.00     0.027 C 
ATOM     23  C   UNL d   1      13.010  12.152  -5.711  0.00  0.00     0.027 A 
ATOM     24  C   UNL d   1      12.809  12.667  -5.090  0.00  0.00     0.028 A 
ENDBRANCH   4  19
BRANCH   2  25
ATOM     25  C   UNL d   1      13.464  14.826  -4.992  0.00  0.00     0.102 C 
BRANCH  25  26
ATOM     26  C   UNL d   1      13.939  15.499  -5.076  0.00  0.00     0.100 C 
BRANCH  26  27
ATOM     27  N   UNL d   1      14.030  15.857  -5.817  0.00  0.00    -0.299 N 
ATOM     28  C   UNL d   1      14.787  16.000  -6.112  0.00  0.00     0.100 C 
ATOM     29  C   UNL d   1      13.364  16.067  -6.251  0.00  0.00     0.100 C 
ENDBRANCH  26  27
ENDBRANCH  25  26
ENDBRANCH   2  25
TORSDOF 6
ENDMDL
