MODEL 1
REMARK VINA RESULT:      -5.2      0.000      0.000
REMARK  1 active torsions:
REMARK  status: ('A' for Active; 'I' for Inactive)
REMARK    1  A    between atoms: C_5  and  N_1 
ROOT
ATOM      1  N   UNL d   1     -41.578-122.465 -52.622  0.00  0.00    -0.226 N 
ATOM      2  C   UNL d   1     -41.750-123.178 -52.249  0.00  0.00     0.359 A 
ATOM      3  C   UNL d   1     -41.296-121.823 -52.179  0.00  0.00     0.273 A 
ATOM      4  N   UNL d   1     -41.643-123.257 -51.433  0.00  0.00    -0.153 NA
ATOM      5  C   UNL d   1     -41.361-122.615 -50.990  0.00  0.00     0.288 A 
ATOM      6  C   UNL d   1     -41.188-121.897 -51.364  0.00  0.00     0.124 A 
ATOM      7  O   UNL d   1     -42.030-123.817 -52.681  0.00  0.00    -0.244 OA
ATOM      8  O   UNL d   1     -41.123-121.109 -52.547  0.00  0.00    -0.266 OA
ATOM      9  O   UNL d   1     -41.253-122.687 -50.179  0.00  0.00    -0.265 OA
ENDROOT
BRANCH   1  10
ATOM     10  C   UNL d   1     -41.685-122.390 -53.431  0.00  0.00     0.072 A 
ATOM     11  C   UNL d   1     -42.355-121.981 -53.722  0.00  0.00     0.029 A 
ATOM     12  C   UNL d   1     -42.463-121.906 -54.531  0.00  0.00     0.059 A 
ATOM     13 CL   UNL d   1     -43.126-121.502 -54.812  0.00  0.00    -0.082 Cl
ATOM     14  C   UNL d   1     -41.920-122.228 -55.056  0.00  0.00     0.011 A 
ATOM     15  C   UNL d   1     -41.259-122.632 -54.764  0.00  0.00     0.002 A 
ATOM     16  C   UNL d   1     -42.027-122.154 -55.871  0.00  0.00     0.001 C 
ATOM     17  C   UNL d   1     -41.144-122.711 -53.945  0.00  0.00     0.018 A 
ENDBRANCH   1  10
TORSDOF 1
ENDMDL
MODEL 2
REMARK VINA RESULT:      -5.1      2.026      3.891
REMARK  1 active torsions:
REMARK  status: ('A' for Active; 'I' for Inactive)
REMARK    1  A    between atoms: C_5  and  N_1 
ROOT
ATOM      1  N   UNL d   1     -41.584-122.501 -51.233  0.00  0.00    -0.226 N 
ATOM      2  C   UNL d   1     -41.730-123.067 -51.811  0.00  0.00     0.359 A 
ATOM      3  C   UNL d   1     -41.284-121.758 -51.447  0.00  0.00     0.273 A 
ATOM      4  N   UNL d   1     -41.581-122.898 -52.606  0.00  0.00    -0.153 NA
ATOM      5  C   UNL d   1     -41.282-122.155 -52.820  0.00  0.00     0.288 A 
ATOM      6  C   UNL d   1     -41.133-121.584 -52.239  0.00  0.00     0.124 A 
ATOM      7  O   UNL d   1     -42.027-123.805 -51.607  0.00  0.00    -0.244 OA
ATOM      8  O   UNL d   1     -41.136-121.189 -50.873  0.00  0.00    -0.266 OA
ATOM      9  O   UNL d   1     -41.130-121.980 -53.609  0.00  0.00    -0.265 OA
ENDROOT
BRANCH   1  10
ATOM     10  C   UNL d   1     -41.733-122.672 -50.445  0.00  0.00     0.072 A 
ATOM     11  C   UNL d   1     -42.488-122.508 -50.124  0.00  0.00     0.029 A 
ATOM     12  C   UNL d   1     -42.639-122.679 -49.337  0.00  0.00     0.059 A 
ATOM     13 CL   UNL d   1     -43.386-122.515 -49.026  0.00  0.00    -0.082 Cl
ATOM     14  C   UNL d   1     -42.056-123.009 -48.862  0.00  0.00     0.011 A 
ATOM     15  C   UNL d   1     -41.310-123.170 -49.184  0.00  0.00     0.002 A 
ATOM     16  C   UNL d   1     -42.206-123.182 -48.070  0.00  0.00     0.001 C 
ATOM     17  C   UNL d   1     -41.152-122.998 -49.982  0.00  0.00     0.018 A 
ENDBRANCH   1  10
TORSDOF 1
ENDMDL
MODEL 3
REMARK VINA RESULT:      -5.0      1.957      3.955
REMARK  1 active torsions:
REMARK  status: ('A' for Active; 'I' for Inactive)
REMARK    1  A    between atoms: C_5  and  N_1 
ROOT
ATOM      1  N   UNL d   1     -41.584-122.427 -51.432  0.00  0.00    -0.226 N 
ATOM      2  C   UNL d   1     -41.379-121.655 -51.629  0.00  0.00     0.359 A 
ATOM      3  C   UNL d   1     -41.645-123.004 -52.024  0.00  0.00     0.273 A 
ATOM      4  N   UNL d   1     -41.231-121.452 -52.417  0.00  0.00    -0.153 NA
ATOM      5  C   UNL d   1     -41.292-122.029 -53.009  0.00  0.00     0.288 A 
ATOM      6  C   UNL d   1     -41.499-122.806 -52.812  0.00  0.00     0.124 A 
ATOM      7  O   UNL d   1     -41.317-121.078 -51.048  0.00  0.00    -0.244 OA
ATOM      8  O   UNL d   1     -41.850-123.776 -51.833  0.00  0.00    -0.266 OA
ATOM      9  O   UNL d   1     -41.147-121.834 -53.794  0.00  0.00    -0.265 OA
ENDROOT
BRANCH   1  10
ATOM     10  C   UNL d   1     -41.730-122.624 -50.650  0.00  0.00     0.072 A 
ATOM     11  C   UNL d   1     -42.505-122.551 -50.343  0.00  0.00     0.029 A 
ATOM     12  C   UNL d   1     -42.651-122.748 -49.561  0.00  0.00     0.059 A 
ATOM     13 CL   UNL d   1     -43.417-122.673 -49.264  0.00  0.00    -0.082 Cl
ATOM     14  C   UNL d   1     -42.044-123.016 -49.078  0.00  0.00     0.011 A 
ATOM     15  C   UNL d   1     -41.278-123.088 -49.386  0.00  0.00     0.002 A 
ATOM     16  C   UNL d   1     -42.189-123.215 -48.290  0.00  0.00     0.001 C 
ATOM     17  C   UNL d   1     -41.125-122.889 -50.178  0.00  0.00     0.018 A 
ENDBRANCH   1  10
TORSDOF 1
ENDMDL
MODEL 4
REMARK VINA RESULT:      -4.2      1.798      3.453
REMARK  1 active torsions:
REMARK  status: ('A' for Active; 'I' for Inactive)
REMARK    1  A    between atoms: C_5  and  N_1 
ROOT
ATOM      1  N   UNL d   1     -41.984-122.441 -54.087  0.00  0.00    -0.226 N 
ATOM      2  C   UNL d   1     -42.522-121.832 -54.221  0.00  0.00     0.359 A 
ATOM      3  C   UNL d   1     -41.660-122.855 -54.727  0.00  0.00     0.273 A 
ATOM      4  N   UNL d   1     -42.739-121.632 -54.992  0.00  0.00    -0.153 NA
ATOM      5  C   UNL d   1     -42.415-122.046 -55.633  0.00  0.00     0.288 A 
ATOM      6  C   UNL d   1     -41.874-122.659 -55.500  0.00  0.00     0.124 A 
ATOM      7  O   UNL d   1     -42.847-121.417 -53.591  0.00  0.00    -0.244 OA
ATOM      8  O   UNL d   1     -41.123-123.463 -54.599  0.00  0.00    -0.266 OA
ATOM      9  O   UNL d   1     -42.627-121.852 -56.403  0.00  0.00    -0.265 OA
ENDROOT
BRANCH   1  10
ATOM     10  C   UNL d   1     -41.771-122.636 -53.320  0.00  0.00     0.072 A 
ATOM     11  C   UNL d   1     -41.552-122.031 -52.786  0.00  0.00     0.029 A 
ATOM     12  C   UNL d   1     -41.338-122.226 -52.019  0.00  0.00     0.059 A 
ATOM     13 CL   UNL d   1     -41.123-121.624 -51.496  0.00  0.00    -0.082 Cl
ATOM     14  C   UNL d   1     -41.337-123.009 -51.772  0.00  0.00     0.011 A 
ATOM     15  C   UNL d   1     -41.555-123.605 -52.304  0.00  0.00     0.002 A 
ATOM     16  C   UNL d   1     -41.123-123.207 -51.001  0.00  0.00     0.001 C 
ATOM     17  C   UNL d   1     -41.772-123.413 -53.083  0.00  0.00     0.018 A 
ENDBRANCH   1  10
TORSDOF 1
ENDMDL
