MODEL 1
REMARK VINA RESULT:      72.0      0.000      0.000
REMARK  4 active torsions:
REMARK  status: ('A' for Active; 'I' for Inactive)
REMARK    1  A    between atoms: C_8  and  C_1 
REMARK    2  A    between atoms: C_14  and  C_5 
REMARK    3  A    between atoms: O_16  and  C_8 
REMARK    4  A    between atoms: C_21  and  O_16 
ROOT
ATOM      1  C   UNL d   1      58.974  49.480  51.189  0.00  0.00     0.106 A 
ATOM      2  C   UNL d   1      59.354  49.555  51.918  0.00  0.00     0.208 A 
ATOM      3  C   UNL d   1      57.699  49.516  51.850  0.00  0.00     0.061 A 
ATOM      4  C   UNL d   1      58.078  49.591  52.579  0.00  0.00     0.101 A 
ATOM      5  C   UNL d   1      58.134  49.460  51.154  0.00  0.00     0.014 A 
ATOM      6  O   UNL d   1      58.895  49.611  52.615  0.00  0.00    -0.288 OA
ATOM      7  C   UNL d   1      56.885  49.495  51.801  0.00  0.00     0.194 A 
ATOM      8  C   UNL d   1      57.647  49.646  53.263  0.00  0.00     0.002 A 
ATOM      9  C   UNL d   1      56.834  49.626  53.224  0.00  0.00     0.042 A 
ATOM     10  C   UNL d   1      56.454  49.551  52.495  0.00  0.00     0.019 A 
ATOM     11  O   UNL d   1      56.508  49.420  51.077  0.00  0.00    -0.287 OA
ATOM     12  N   UNL d   1      60.190  49.574  51.945  0.00  0.00    -0.121 N 
ATOM     13  C   UNL d   1      56.035  49.629  53.433  0.00  0.00     0.009 C 
ATOM     14  C   UNL d   1      56.797  49.703  54.061  0.00  0.00     0.009 C 
ENDROOT
BRANCH   5  15
ATOM     15  C   UNL d   1      57.756  49.385  50.430  0.00  0.00     0.000 A 
ATOM     16  C   UNL d   1      57.006  49.699  50.318  0.00  0.00     0.000 A 
ATOM     17  C   UNL d   1      56.648  49.608  49.575  0.00  0.00     0.000 A 
ATOM     18  C   UNL d   1      57.011  49.224  48.961  0.00  0.00     0.000 A 
ATOM     19  C   UNL d   1      57.759  48.910  49.067  0.00  0.00     0.000 A 
ATOM     20  C   UNL d   1      58.141  48.985  49.800  0.00  0.00     0.000 A 
ENDBRANCH   5  15
BRANCH   1  21
ATOM     21  C   UNL d   1      59.428  49.424  50.483  0.00  0.00     0.304 C 
ATOM     22  O   UNL d   1      59.115  49.657  49.791  0.00  0.00    -0.259 OA
BRANCH  21  23
ATOM     23  O   UNL d   1      60.190  49.127  50.521  0.00  0.00    -0.271 OA
BRANCH  23  24
ATOM     24  C   UNL d   1      60.440  48.842  50.002  0.00  0.00     0.126 C 
ATOM     25  C   UNL d   1      60.456  47.999  49.917  0.00  0.00     0.029 C 
ENDBRANCH  23  24
ENDBRANCH  21  23
ENDBRANCH   1  21
TORSDOF 4
ENDMDL
