MODEL 1
REMARK VINA RESULT:      -7.6      0.000      0.000
REMARK  4 active torsions:
REMARK  status: ('A' for Active; 'I' for Inactive)
REMARK    1  A    between atoms: N_2  and  S_1 
REMARK    2  A    between atoms: C_3  and  S_1 
REMARK    3  A    between atoms: C_14  and  C_4 
REMARK    4  A    between atoms: O_17  and  C_11 
ROOT
ATOM      1  S   UNL d   1     -48.350  13.557  22.957  0.00  0.00     0.274 S 
ATOM      2  O   UNL d   1     -48.544  13.746  22.184  0.00  0.00    -0.199 OA
ATOM      3  O   UNL d   1     -48.825  13.813  23.581  0.00  0.00    -0.199 OA
ENDROOT
BRANCH   1   4
ATOM      4  N   UNL d   1     -47.678  13.109  23.109  0.00  0.00    -0.213 N 
ATOM      5  C   UNL d   1     -46.936  13.447  23.047  0.00  0.00     0.157 A 
ATOM      6  N   UNL d   1     -46.241  12.982  23.206  0.00  0.00    -0.226 NA
ATOM      7  C   UNL d   1     -47.076  11.864  23.480  0.00  0.00     0.101 A 
ATOM      8  C   UNL d   1     -47.754  12.311  23.327  0.00  0.00     0.112 A 
ATOM      9  C   UNL d   1     -47.167  11.064  23.697  0.00  0.00     0.022 C 
BRANCH   5  10
ATOM     10  C   UNL d   1     -46.858  14.242  22.830  0.00  0.00     0.038 C 
ATOM     11  C   UNL d   1     -46.104  14.552  22.741  0.00  0.00     0.003 C 
ENDBRANCH   5  10
ENDBRANCH   1   4
BRANCH   1  12
ATOM     12  C   UNL d   1     -49.018  14.002  22.800  0.00  0.00     0.127 A 
ATOM     13  C   UNL d   1     -49.207  14.644  23.269  0.00  0.00     0.022 A 
ATOM     14  C   UNL d   1     -49.872  15.093  23.119  0.00  0.00     0.035 A 
ATOM     15 BR   UNL d   1     -50.049  15.736  23.599  0.00  0.00    -0.049 Br
ATOM     16  C   UNL d   1     -50.363  14.898  22.484  0.00  0.00     0.009 A 
ATOM     17  C   UNL d   1     -50.176  14.251  22.009  0.00  0.00     0.025 A 
ATOM     18  C   UNL d   1     -49.508  13.806  22.165  0.00  0.00     0.106 A 
BRANCH  18  19
ATOM     19  O   UNL d   1     -49.322  13.156  21.687  0.00  0.00    -0.327 OA
ATOM     20  C   UNL d   1     -49.853  12.894  21.113  0.00  0.00     0.181 C 
ENDBRANCH  18  19
ENDBRANCH   1  12
TORSDOF 4
ENDMDL
MODEL 2
REMARK VINA RESULT:      -7.6      1.583      3.540
REMARK  4 active torsions:
REMARK  status: ('A' for Active; 'I' for Inactive)
REMARK    1  A    between atoms: N_2  and  S_1 
REMARK    2  A    between atoms: C_3  and  S_1 
REMARK    3  A    between atoms: C_14  and  C_4 
REMARK    4  A    between atoms: O_17  and  C_11 
ROOT
ATOM      1  S   UNL d   1     -48.612  13.649  22.975  0.00  0.00     0.274 S 
ATOM      2  O   UNL d   1     -47.965  13.757  22.485  0.00  0.00    -0.199 OA
ATOM      3  O   UNL d   1     -48.578  13.108  23.596  0.00  0.00    -0.199 OA
ENDROOT
BRANCH   1   4
ATOM      4  N   UNL d   1     -49.298  14.082  22.845  0.00  0.00    -0.213 N 
ATOM      5  C   UNL d   1     -49.826  13.853  22.264  0.00  0.00     0.157 A 
ATOM      6  N   UNL d   1     -50.535  14.303  22.130  0.00  0.00    -0.226 NA
ATOM      7  C   UNL d   1     -50.145  15.190  23.171  0.00  0.00     0.101 A 
ATOM      8  C   UNL d   1     -49.455  14.756  23.305  0.00  0.00     0.112 A 
ATOM      9  C   UNL d   1     -50.289  15.864  23.641  0.00  0.00     0.022 C 
BRANCH   5  10
ATOM     10  C   UNL d   1     -49.672  13.182  21.804  0.00  0.00     0.038 C 
ATOM     11  C   UNL d   1     -50.231  12.949  21.251  0.00  0.00     0.003 C 
ENDBRANCH   5  10
ENDBRANCH   1   4
BRANCH   1  12
ATOM     12  C   UNL d   1     -47.928  13.220  23.100  0.00  0.00     0.127 A 
ATOM     13  C   UNL d   1     -47.966  12.438  23.334  0.00  0.00     0.022 A 
ATOM     14  C   UNL d   1     -47.286  12.003  23.462  0.00  0.00     0.035 A 
ATOM     15 BR   UNL d   1     -47.342  11.217  23.697  0.00  0.00    -0.049 Br
ATOM     16  C   UNL d   1     -46.548  12.356  23.353  0.00  0.00     0.009 A 
ATOM     17  C   UNL d   1     -46.505  13.145  23.116  0.00  0.00     0.025 A 
ATOM     18  C   UNL d   1     -47.190  13.574  22.991  0.00  0.00     0.106 A 
BRANCH  18  19
ATOM     19  O   UNL d   1     -47.144  14.366  22.753  0.00  0.00    -0.327 OA
ATOM     20  C   UNL d   1     -46.413  14.743  22.694  0.00  0.00     0.181 C 
ENDBRANCH  18  19
ENDBRANCH   1  12
TORSDOF 4
ENDMDL
MODEL 3
REMARK VINA RESULT:      -7.2      1.579      3.266
REMARK  4 active torsions:
REMARK  status: ('A' for Active; 'I' for Inactive)
REMARK    1  A    between atoms: N_2  and  S_1 
REMARK    2  A    between atoms: C_3  and  S_1 
REMARK    3  A    between atoms: C_14  and  C_4 
REMARK    4  A    between atoms: O_17  and  C_11 
ROOT
ATOM      1  S   UNL d   1     -48.680  13.590  22.525  0.00  0.00     0.274 S 
ATOM      2  O   UNL d   1     -48.599  13.211  23.246  0.00  0.00    -0.199 OA
ATOM      3  O   UNL d   1     -48.025  13.693  22.033  0.00  0.00    -0.199 OA
ENDROOT
BRANCH   1   4
ATOM      4  N   UNL d   1     -49.416  13.867  22.291  0.00  0.00    -0.213 N 
ATOM      5  C   UNL d   1     -49.700  14.577  22.581  0.00  0.00     0.157 A 
ATOM      6  N   UNL d   1     -50.464  14.863  22.338  0.00  0.00    -0.226 NA
ATOM      7  C   UNL d   1     -50.616  13.707  21.525  0.00  0.00     0.101 A 
ATOM      8  C   UNL d   1     -49.875  13.424  21.758  0.00  0.00     0.112 A 
ATOM      9  C   UNL d   1     -51.064  13.251  20.989  0.00  0.00     0.022 C 
BRANCH   5  10
ATOM     10  C   UNL d   1     -49.245  15.020  23.113  0.00  0.00     0.038 C 
ATOM     11  C   UNL d   1     -49.560  15.715  23.413  0.00  0.00     0.003 C 
ENDBRANCH   5  10
ENDBRANCH   1   4
BRANCH   1  12
ATOM     12  C   UNL d   1     -47.948  13.312  22.762  0.00  0.00     0.127 A 
ATOM     13  C   UNL d   1     -47.269  13.729  22.583  0.00  0.00     0.022 A 
ATOM     14  C   UNL d   1     -46.534  13.458  22.817  0.00  0.00     0.035 A 
ATOM     15 BR   UNL d   1     -45.860  13.890  22.629  0.00  0.00    -0.049 Br
ATOM     16  C   UNL d   1     -46.474  12.752  23.239  0.00  0.00     0.009 A 
ATOM     17  C   UNL d   1     -47.157  12.327  23.422  0.00  0.00     0.025 A 
ATOM     18  C   UNL d   1     -47.889  12.605  23.185  0.00  0.00     0.106 A 
BRANCH  18  19
ATOM     19  O   UNL d   1     -48.574  12.177  23.368  0.00  0.00    -0.327 OA
ATOM     20  C   UNL d   1     -48.519  11.423  23.698  0.00  0.00     0.181 C 
ENDBRANCH  18  19
ENDBRANCH   1  12
TORSDOF 4
ENDMDL
MODEL 4
REMARK VINA RESULT:      -6.7      1.842      3.426
REMARK  4 active torsions:
REMARK  status: ('A' for Active; 'I' for Inactive)
REMARK    1  A    between atoms: N_2  and  S_1 
REMARK    2  A    between atoms: C_3  and  S_1 
REMARK    3  A    between atoms: C_14  and  C_4 
REMARK    4  A    between atoms: O_17  and  C_11 
ROOT
ATOM      1  S   UNL d   1     -48.638  13.173  22.457  0.00  0.00     0.274 S 
ATOM      2  O   UNL d   1     -48.455  13.672  23.080  0.00  0.00    -0.199 OA
ATOM      3  O   UNL d   1     -48.039  12.863  21.982  0.00  0.00    -0.199 OA
ENDROOT
BRANCH   1   4
ATOM      4  N   UNL d   1     -49.422  12.981  22.306  0.00  0.00    -0.213 N 
ATOM      5  C   UNL d   1     -49.781  12.368  22.710  0.00  0.00     0.157 A 
ATOM      6  N   UNL d   1     -50.594  12.171  22.553  0.00  0.00    -0.226 NA
ATOM      7  C   UNL d   1     -50.640  13.216  21.590  0.00  0.00     0.101 A 
ATOM      8  C   UNL d   1     -49.852  13.412  21.740  0.00  0.00     0.112 A 
ATOM      9  C   UNL d   1     -51.058  13.658  21.019  0.00  0.00     0.022 C 
BRANCH   5  10
ATOM     10  C   UNL d   1     -49.356  11.937  23.275  0.00  0.00     0.038 C 
ATOM     11  C   UNL d   1     -49.746  11.353  23.698  0.00  0.00     0.003 C 
ENDBRANCH   5  10
ENDBRANCH   1   4
BRANCH   1  12
ATOM     12  C   UNL d   1     -47.859  13.366  22.612  0.00  0.00     0.127 A 
ATOM     13  C   UNL d   1     -47.293  12.782  22.683  0.00  0.00     0.022 A 
ATOM     14  C   UNL d   1     -46.512  12.967  22.837  0.00  0.00     0.035 A 
ATOM     15 BR   UNL d   1     -45.955  12.367  22.907  0.00  0.00    -0.049 Br
ATOM     16  C   UNL d   1     -46.289  13.757  22.923  0.00  0.00     0.009 A 
ATOM     17  C   UNL d   1     -46.857  14.351  22.851  0.00  0.00     0.025 A 
ATOM     18  C   UNL d   1     -47.636  14.157  22.697  0.00  0.00     0.106 A 
BRANCH  18  19
ATOM     19  O   UNL d   1     -48.205  14.755  22.625  0.00  0.00    -0.327 OA
ATOM     20  C   UNL d   1     -47.976  15.546  22.579  0.00  0.00     0.181 C 
ENDBRANCH  18  19
ENDBRANCH   1  12
TORSDOF 4
ENDMDL
MODEL 5
REMARK VINA RESULT:      -6.4      1.186      1.467
REMARK  4 active torsions:
REMARK  status: ('A' for Active; 'I' for Inactive)
REMARK    1  A    between atoms: N_2  and  S_1 
REMARK    2  A    between atoms: C_3  and  S_1 
REMARK    3  A    between atoms: C_14  and  C_4 
REMARK    4  A    between atoms: O_17  and  C_11 
ROOT
ATOM      1  S   UNL d   1     -48.292  12.900  22.821  0.00  0.00     0.274 S 
ATOM      2  O   UNL d   1     -48.851  13.131  23.373  0.00  0.00    -0.199 OA
ATOM      3  O   UNL d   1     -48.504  12.803  22.029  0.00  0.00    -0.199 OA
ENDROOT
BRANCH   1   4
ATOM      4  N   UNL d   1     -47.518  12.764  23.058  0.00  0.00    -0.213 N 
ATOM      5  C   UNL d   1     -46.985  13.383  23.095  0.00  0.00     0.157 A 
ATOM      6  N   UNL d   1     -46.183  13.241  23.341  0.00  0.00    -0.226 NA
ATOM      7  C   UNL d   1     -46.496  11.863  23.498  0.00  0.00     0.101 A 
ATOM      8  C   UNL d   1     -47.276  11.996  23.260  0.00  0.00     0.112 A 
ATOM      9  C   UNL d   1     -46.268  11.086  23.698  0.00  0.00     0.022 C 
BRANCH   5  10
ATOM     10  C   UNL d   1     -47.224  14.150  22.894  0.00  0.00     0.038 C 
ATOM     11  C   UNL d   1     -46.660  14.746  22.884  0.00  0.00     0.003 C 
ENDBRANCH   5  10
ENDBRANCH   1   4
BRANCH   1  12
ATOM     12  C   UNL d   1     -49.065  13.036  22.589  0.00  0.00     0.127 A 
ATOM     13  C   UNL d   1     -49.240  13.636  22.063  0.00  0.00     0.022 A 
ATOM     14  C   UNL d   1     -50.009  13.779  21.827  0.00  0.00     0.035 A 
ATOM     15 BR   UNL d   1     -50.169  14.386  21.297  0.00  0.00    -0.049 Br
ATOM     16  C   UNL d   1     -50.621  13.310  22.123  0.00  0.00     0.009 A 
ATOM     17  C   UNL d   1     -50.449  12.704  22.654  0.00  0.00     0.025 A 
ATOM     18  C   UNL d   1     -49.676  12.567  22.886  0.00  0.00     0.106 A 
BRANCH  18  19
ATOM     19  O   UNL d   1     -49.505  11.958  23.420  0.00  0.00    -0.327 OA
ATOM     20  C   UNL d   1     -50.104  11.460  23.691  0.00  0.00     0.181 C 
ENDBRANCH  18  19
ENDBRANCH   1  12
TORSDOF 4
ENDMDL
MODEL 6
REMARK VINA RESULT:      -6.4      1.034      2.016
REMARK  4 active torsions:
REMARK  status: ('A' for Active; 'I' for Inactive)
REMARK    1  A    between atoms: N_2  and  S_1 
REMARK    2  A    between atoms: C_3  and  S_1 
REMARK    3  A    between atoms: C_14  and  C_4 
REMARK    4  A    between atoms: O_17  and  C_11 
ROOT
ATOM      1  S   UNL d   1     -48.786  13.406  22.948  0.00  0.00     0.274 S 
ATOM      2  O   UNL d   1     -48.499  13.978  22.438  0.00  0.00    -0.199 OA
ATOM      3  O   UNL d   1     -49.340  13.604  23.526  0.00  0.00    -0.199 OA
ENDROOT
BRANCH   1   4
ATOM      4  N   UNL d   1     -48.519  12.632  22.883  0.00  0.00    -0.213 N 
ATOM      5  C   UNL d   1     -48.903  12.105  22.389  0.00  0.00     0.157 A 
ATOM      6  N   UNL d   1     -48.626  11.304  22.322  0.00  0.00    -0.226 NA
ATOM      7  C   UNL d   1     -47.593  11.604  23.252  0.00  0.00     0.101 A 
ATOM      8  C   UNL d   1     -47.858  12.384  23.321  0.00  0.00     0.112 A 
ATOM      9  C   UNL d   1     -46.928  11.370  23.698  0.00  0.00     0.022 C 
BRANCH   5  10
ATOM     10  C   UNL d   1     -49.562  12.350  21.952  0.00  0.00     0.038 C 
ATOM     11  C   UNL d   1     -49.934  11.804  21.465  0.00  0.00     0.003 C 
ENDBRANCH   5  10
ENDBRANCH   1   4
BRANCH   1  12
ATOM     12  C   UNL d   1     -49.048  14.178  23.010  0.00  0.00     0.127 A 
ATOM     13  C   UNL d   1     -49.786  14.341  23.320  0.00  0.00     0.022 A 
ATOM     14  C   UNL d   1     -50.055  15.110  23.384  0.00  0.00     0.035 A 
ATOM     15 BR   UNL d   1     -50.801  15.258  23.698  0.00  0.00    -0.049 Br
ATOM     16  C   UNL d   1     -49.576  15.734  23.133  0.00  0.00     0.009 A 
ATOM     17  C   UNL d   1     -48.830  15.573  22.820  0.00  0.00     0.025 A 
ATOM     18  C   UNL d   1     -48.568  14.801  22.758  0.00  0.00     0.106 A 
BRANCH  18  19
ATOM     19  O   UNL d   1     -47.819  14.642  22.443  0.00  0.00    -0.327 OA
ATOM     20  C   UNL d   1     -47.291  15.257  22.291  0.00  0.00     0.181 C 
ENDBRANCH  18  19
ENDBRANCH   1  12
TORSDOF 4
ENDMDL
MODEL 7
REMARK VINA RESULT:      -6.2      1.694      2.934
REMARK  4 active torsions:
REMARK  status: ('A' for Active; 'I' for Inactive)
REMARK    1  A    between atoms: N_2  and  S_1 
REMARK    2  A    between atoms: C_3  and  S_1 
REMARK    3  A    between atoms: C_14  and  C_4 
REMARK    4  A    between atoms: O_17  and  C_11 
ROOT
ATOM      1  S   UNL d   1     -48.875  13.676  22.970  0.00  0.00     0.274 S 
ATOM      2  O   UNL d   1     -49.039  13.275  22.274  0.00  0.00    -0.199 OA
ATOM      3  O   UNL d   1     -48.512  13.285  23.599  0.00  0.00    -0.199 OA
ENDROOT
BRANCH   1   4
ATOM      4  N   UNL d   1     -49.074  14.469  23.039  0.00  0.00    -0.213 N 
ATOM      5  C   UNL d   1     -48.540  15.048  22.821  0.00  0.00     0.157 A 
ATOM      6  N   UNL d   1     -48.748  15.870  22.893  0.00  0.00    -0.226 NA
ATOM      7  C   UNL d   1     -50.018  15.483  23.401  0.00  0.00     0.101 A 
ATOM      8  C   UNL d   1     -49.821  14.684  23.333  0.00  0.00     0.112 A 
ATOM      9  C   UNL d   1     -50.772  15.684  23.698  0.00  0.00     0.022 C 
BRANCH   5  10
ATOM     10  C   UNL d   1     -47.795  14.837  22.528  0.00  0.00     0.038 C 
ATOM     11  C   UNL d   1     -47.272  15.433  22.320  0.00  0.00     0.003 C 
ENDBRANCH   5  10
ENDBRANCH   1   4
BRANCH   1  12
ATOM     12  C   UNL d   1     -48.679  12.885  22.896  0.00  0.00     0.127 A 
ATOM     13  C   UNL d   1     -48.060  12.570  23.326  0.00  0.00     0.022 A 
ATOM     14  C   UNL d   1     -47.858  11.781  23.258  0.00  0.00     0.035 A 
ATOM     15 BR   UNL d   1     -47.232  11.480  23.698  0.00  0.00    -0.049 Br
ATOM     16  C   UNL d   1     -48.284  11.293  22.747  0.00  0.00     0.009 A 
ATOM     17  C   UNL d   1     -48.909  11.607  22.311  0.00  0.00     0.025 A 
ATOM     18  C   UNL d   1     -49.106  12.397  22.384  0.00  0.00     0.106 A 
BRANCH  18  19
ATOM     19  O   UNL d   1     -49.734  12.710  21.945  0.00  0.00    -0.327 OA
ATOM     20  C   UNL d   1     -50.250  12.211  21.540  0.00  0.00     0.181 C 
ENDBRANCH  18  19
ENDBRANCH   1  12
TORSDOF 4
ENDMDL
MODEL 8
REMARK VINA RESULT:      -5.3      8.218      9.714
REMARK  4 active torsions:
REMARK  status: ('A' for Active; 'I' for Inactive)
REMARK    1  A    between atoms: N_2  and  S_1 
REMARK    2  A    between atoms: C_3  and  S_1 
REMARK    3  A    between atoms: C_14  and  C_4 
REMARK    4  A    between atoms: O_17  and  C_11 
ROOT
ATOM      1  S   UNL d   1     -39.824  15.113  19.297  0.00  0.00     0.274 S 
ATOM      2  O   UNL d   1     -39.839  14.362  18.969  0.00  0.00    -0.199 OA
ATOM      3  O   UNL d   1     -40.004  15.773  18.836  0.00  0.00    -0.199 OA
ENDROOT
BRANCH   1   4
ATOM      4  N   UNL d   1     -39.628  15.206  20.089  0.00  0.00    -0.213 N 
ATOM      5  C   UNL d   1     -40.162  15.000  20.672  0.00  0.00     0.157 A 
ATOM      6  N   UNL d   1     -39.958  15.098  21.492  0.00  0.00    -0.226 NA
ATOM      7  C   UNL d   1     -38.690  15.605  21.095  0.00  0.00     0.101 A 
ATOM      8  C   UNL d   1     -38.884  15.512  20.297  0.00  0.00     0.112 A 
ATOM      9  C   UNL d   1     -37.940  15.914  21.289  0.00  0.00     0.022 C 
BRANCH   5  10
ATOM     10  C   UNL d   1     -40.904  14.695  20.467  0.00  0.00     0.038 C 
ATOM     11  C   UNL d   1     -41.421  14.484  21.068  0.00  0.00     0.003 C 
ENDBRANCH   5  10
ENDBRANCH   1   4
BRANCH   1  12
ATOM     12  C   UNL d   1     -40.018  15.014  18.508  0.00  0.00     0.127 A 
ATOM     13  C   UNL d   1     -40.565  15.506  18.152  0.00  0.00     0.022 A 
ATOM     14  C   UNL d   1     -40.764  15.414  17.365  0.00  0.00     0.035 A 
ATOM     15 BR   UNL d   1     -41.316  15.917  17.022  0.00  0.00    -0.049 Br
ATOM     16  C   UNL d   1     -40.410  14.816  16.921  0.00  0.00     0.009 A 
ATOM     17  C   UNL d   1     -39.857  14.317  17.276  0.00  0.00     0.025 A 
ATOM     18  C   UNL d   1     -39.663  14.415  18.065  0.00  0.00     0.106 A 
BRANCH  18  19
ATOM     19  O   UNL d   1     -39.108  13.914  18.420  0.00  0.00    -0.327 OA
ATOM     20  C   UNL d   1     -38.711  13.347  17.972  0.00  0.00     0.181 C 
ENDBRANCH  18  19
ENDBRANCH   1  12
TORSDOF 4
ENDMDL
MODEL 9
REMARK VINA RESULT:      -5.2      8.229      9.856
REMARK  4 active torsions:
REMARK  status: ('A' for Active; 'I' for Inactive)
REMARK    1  A    between atoms: N_2  and  S_1 
REMARK    2  A    between atoms: C_3  and  S_1 
REMARK    3  A    between atoms: C_14  and  C_4 
REMARK    4  A    between atoms: O_17  and  C_11 
ROOT
ATOM      1  S   UNL d   1     -39.891  15.122  18.982  0.00  0.00     0.274 S 
ATOM      2  O   UNL d   1     -40.172  14.613  19.559  0.00  0.00    -0.199 OA
ATOM      3  O   UNL d   1     -39.379  15.737  19.182  0.00  0.00    -0.199 OA
ENDROOT
BRANCH   1   4
ATOM      4  N   UNL d   1     -40.121  15.018  18.200  0.00  0.00    -0.213 N 
ATOM      5  C   UNL d   1     -39.788  14.423  17.749  0.00  0.00     0.157 A 
ATOM      6  N   UNL d   1     -40.028  14.316  16.939  0.00  0.00    -0.226 NA
ATOM      7  C   UNL d   1     -40.924  15.411  17.082  0.00  0.00     0.101 A 
ATOM      8  C   UNL d   1     -40.695  15.519  17.868  0.00  0.00     0.112 A 
ATOM      9  C   UNL d   1     -41.501  15.922  16.762  0.00  0.00     0.022 C 
BRANCH   5  10
ATOM     10  C   UNL d   1     -39.216  13.922  18.078  0.00  0.00     0.038 C 
ATOM     11  C   UNL d   1     -38.904  13.324  17.611  0.00  0.00     0.003 C 
ENDBRANCH   5  10
ENDBRANCH   1   4
BRANCH   1  12
ATOM     12  C   UNL d   1     -39.664  15.221  19.761  0.00  0.00     0.127 A 
ATOM     13  C   UNL d   1     -38.923  15.512  19.943  0.00  0.00     0.022 A 
ATOM     14  C   UNL d   1     -38.689  15.614  20.719  0.00  0.00     0.035 A 
ATOM     15 BR   UNL d   1     -37.940  15.907  20.886  0.00  0.00    -0.049 Br
ATOM     16  C   UNL d   1     -39.209  15.422  21.331  0.00  0.00     0.009 A 
ATOM     17  C   UNL d   1     -39.958  15.129  21.152  0.00  0.00     0.025 A 
ATOM     18  C   UNL d   1     -40.185  15.029  20.373  0.00  0.00     0.106 A 
BRANCH  18  19
ATOM     19  O   UNL d   1     -40.938  14.734  20.195  0.00  0.00    -0.327 OA
ATOM     20  C   UNL d   1     -41.477  14.576  20.798  0.00  0.00     0.181 C 
ENDBRANCH  18  19
ENDBRANCH   1  12
TORSDOF 4
ENDMDL
