MODEL 1
REMARK VINA RESULT:      -2.8      0.000      0.000
REMARK  4 active torsions:
REMARK  status: ('A' for Active; 'I' for Inactive)
REMARK    1  A    between atoms: C_7  and  N_1 
REMARK    2  A    between atoms: C_6  and  C_2 
REMARK    3  A    between atoms: C_17  and  C_6 
REMARK    4  A    between atoms: C_8  and  C_7 
ROOT
ATOM      1  N   UNL d   1      31.656  16.482 -23.931  0.00  0.00    -0.303 N 
ATOM      2  C   UNL d   1      32.388  17.576 -23.640  0.00  0.00     0.057 A 
ATOM      3  C   UNL d   1      31.697  17.320 -23.996  0.00  0.00     0.067 A 
ATOM      4  C   UNL d   1      32.783  16.910 -23.353  0.00  0.00     0.022 A 
ATOM      5  C   UNL d   1      32.311  16.238 -23.544  0.00  0.00     0.064 A 
ATOM      6  C   UNL d   1      31.135  17.815 -24.358  0.00  0.00     0.019 C 
ATOM      7  C   UNL d   1      32.507  15.453 -23.354  0.00  0.00     0.019 C 
ENDROOT
BRANCH   1   8
ATOM      8  C   UNL d   1      31.055  16.003 -24.214  0.00  0.00     0.105 C 
BRANCH   8   9
ATOM      9  C   UNL d   1      30.404  15.800 -23.720  0.00  0.00     0.118 A 
ATOM     10  O   UNL d   1      30.322  15.724 -22.914  0.00  0.00    -0.304 OA
ATOM     11  C   UNL d   1      29.541  15.511 -22.787  0.00  0.00     0.123 A 
ATOM     12  C   UNL d   1      29.147  15.453 -23.466  0.00  0.00     0.029 A 
ATOM     13  C   UNL d   1      29.683  15.634 -24.074  0.00  0.00     0.028 A 
ENDBRANCH   8   9
ENDBRANCH   1   8
BRANCH   2  14
ATOM     14  C   UNL d   1      32.635  18.332 -23.583  0.00  0.00     0.208 C 
ATOM     15  O   UNL d   1      32.774  18.769 -24.257  0.00  0.00    -0.286 OA
BRANCH  14  16
ATOM     16  C   UNL d   1      32.752  18.682 -22.848  0.00  0.00     0.110 C 
ATOM     17 CL   UNL d   1      33.120  19.439 -22.783  0.00  0.00    -0.078 Cl
ENDBRANCH  14  16
ENDBRANCH   2  14
TORSDOF 4
ENDMDL
MODEL 2
REMARK VINA RESULT:      -2.8      1.594      3.351
REMARK  4 active torsions:
REMARK  status: ('A' for Active; 'I' for Inactive)
REMARK    1  A    between atoms: C_7  and  N_1 
REMARK    2  A    between atoms: C_6  and  C_2 
REMARK    3  A    between atoms: C_17  and  C_6 
REMARK    4  A    between atoms: C_8  and  C_7 
ROOT
ATOM      1  N   UNL d   1      31.965  16.764 -23.962  0.00  0.00    -0.303 N 
ATOM      2  C   UNL d   1      30.848  16.050 -23.718  0.00  0.00     0.057 A 
ATOM      3  C   UNL d   1      31.126  16.751 -24.035  0.00  0.00     0.067 A 
ATOM      4  C   UNL d   1      31.500  15.622 -23.447  0.00  0.00     0.022 A 
ATOM      5  C   UNL d   1      32.186  16.083 -23.608  0.00  0.00     0.064 A 
ATOM      6  C   UNL d   1      30.651  17.346 -24.371  0.00  0.00     0.019 C 
ATOM      7  C   UNL d   1      32.963  15.855 -23.422  0.00  0.00     0.019 C 
ENDROOT
BRANCH   1   8
ATOM      8  C   UNL d   1      32.463  17.365 -24.209  0.00  0.00     0.105 C 
BRANCH   8   9
ATOM      9  C   UNL d   1      32.674  17.987 -23.682  0.00  0.00     0.118 A 
ATOM     10  O   UNL d   1      32.548  18.107 -22.887  0.00  0.00    -0.304 OA
ATOM     11  C   UNL d   1      32.898  18.828 -22.712  0.00  0.00     0.123 A 
ATOM     12  C   UNL d   1      33.227  19.149 -23.351  0.00  0.00     0.029 A 
ATOM     13  C   UNL d   1      33.093  18.625 -23.982  0.00  0.00     0.028 A 
ENDBRANCH   8   9
ENDBRANCH   1   8
BRANCH   2  14
ATOM     14  C   UNL d   1      30.084  15.823 -23.680  0.00  0.00     0.208 C 
ATOM     15  O   UNL d   1      29.687  15.607 -24.358  0.00  0.00    -0.286 OA
BRANCH  14  16
ATOM     16  C   UNL d   1      29.686  15.803 -22.960  0.00  0.00     0.110 C 
ATOM     17 CL   UNL d   1      28.921  15.453 -22.898  0.00  0.00    -0.078 Cl
ENDBRANCH  14  16
ENDBRANCH   2  14
TORSDOF 4
ENDMDL
MODEL 3
REMARK VINA RESULT:      -1.8      1.682      3.562
REMARK  4 active torsions:
REMARK  status: ('A' for Active; 'I' for Inactive)
REMARK    1  A    between atoms: C_7  and  N_1 
REMARK    2  A    between atoms: C_6  and  C_2 
REMARK    3  A    between atoms: C_17  and  C_6 
REMARK    4  A    between atoms: C_8  and  C_7 
ROOT
ATOM      1  N   UNL d   1      31.863  17.396 -24.268  0.00  0.00    -0.303 N 
ATOM      2  C   UNL d   1      30.682  16.778 -24.466  0.00  0.00     0.057 A 
ATOM      3  C   UNL d   1      31.398  16.720 -24.077  0.00  0.00     0.067 A 
ATOM      4  C   UNL d   1      30.688  17.481 -24.899  0.00  0.00     0.022 A 
ATOM      5  C   UNL d   1      31.433  17.851 -24.763  0.00  0.00     0.064 A 
ATOM      6  C   UNL d   1      31.622  16.093 -23.578  0.00  0.00     0.019 C 
ATOM      7  C   UNL d   1      31.668  18.575 -25.096  0.00  0.00     0.019 C 
ENDROOT
BRANCH   1   8
ATOM      8  C   UNL d   1      32.619  17.557 -23.996  0.00  0.00     0.105 C 
BRANCH   8   9
ATOM      9  C   UNL d   1      32.739  18.113 -23.376  0.00  0.00     0.118 A 
ATOM     10  O   UNL d   1      32.468  18.869 -23.249  0.00  0.00    -0.304 OA
ATOM     11  C   UNL d   1      32.792  19.107 -22.534  0.00  0.00     0.123 A 
ATOM     12  C   UNL d   1      33.241  18.540 -22.222  0.00  0.00     0.029 A 
ATOM     13  C   UNL d   1      33.219  17.896 -22.747  0.00  0.00     0.028 A 
ENDBRANCH   8   9
ENDBRANCH   1   8
BRANCH   2  14
ATOM     14  C   UNL d   1      30.085  16.250 -24.431  0.00  0.00     0.208 C 
ATOM     15  O   UNL d   1      30.069  15.617 -24.945  0.00  0.00    -0.286 OA
BRANCH  14  16
ATOM     16  C   UNL d   1      29.478  16.334 -23.882  0.00  0.00     0.110 C 
ATOM     17 CL   UNL d   1      28.799  15.835 -23.908  0.00  0.00    -0.078 Cl
ENDBRANCH  14  16
ENDBRANCH   2  14
TORSDOF 4
ENDMDL
MODEL 4
REMARK VINA RESULT:      -1.6      1.752      2.691
REMARK  4 active torsions:
REMARK  status: ('A' for Active; 'I' for Inactive)
REMARK    1  A    between atoms: C_7  and  N_1 
REMARK    2  A    between atoms: C_6  and  C_2 
REMARK    3  A    between atoms: C_17  and  C_6 
REMARK    4  A    between atoms: C_8  and  C_7 
ROOT
ATOM      1  N   UNL d   1      33.200  18.342 -23.914  0.00  0.00    -0.303 N 
ATOM      2  C   UNL d   1      33.202  19.289 -22.955  0.00  0.00     0.057 A 
ATOM      3  C   UNL d   1      33.206  18.481 -23.083  0.00  0.00     0.067 A 
ATOM      4  C   UNL d   1      33.193  19.660 -23.692  0.00  0.00     0.022 A 
ATOM      5  C   UNL d   1      33.192  19.053 -24.277  0.00  0.00     0.064 A 
ATOM      6  C   UNL d   1      33.216  17.902 -22.486  0.00  0.00     0.019 C 
ATOM      7  C   UNL d   1      33.183  19.187 -25.097  0.00  0.00     0.019 C 
ENDROOT
BRANCH   1   8
ATOM      8  C   UNL d   1      33.201  17.610 -24.282  0.00  0.00     0.105 C 
BRANCH   8   9
ATOM      9  C   UNL d   1      32.477  17.216 -24.448  0.00  0.00     0.118 A 
ATOM     10  O   UNL d   1      31.701  17.460 -24.456  0.00  0.00    -0.304 OA
ATOM     11  C   UNL d   1      31.260  16.801 -24.664  0.00  0.00     0.123 A 
ATOM     12  C   UNL d   1      31.722  16.174 -24.783  0.00  0.00     0.029 A 
ATOM     13  C   UNL d   1      32.504  16.421 -24.650  0.00  0.00     0.028 A 
ENDBRANCH   8   9
ENDBRANCH   1   8
BRANCH   2  14
ATOM     14  C   UNL d   1      33.206  19.651 -22.244  0.00  0.00     0.208 C 
ATOM     15  O   UNL d   1      33.234  19.208 -21.560  0.00  0.00    -0.286 OA
BRANCH  14  16
ATOM     16  C   UNL d   1      33.183  20.471 -22.188  0.00  0.00     0.110 C 
ATOM     17 CL   UNL d   1      32.940  20.850 -21.475  0.00  0.00    -0.078 Cl
ENDBRANCH  14  16
ENDBRANCH   2  14
TORSDOF 4
ENDMDL
MODEL 5
REMARK VINA RESULT:      -1.3      3.584      5.757
REMARK  4 active torsions:
REMARK  status: ('A' for Active; 'I' for Inactive)
REMARK    1  A    between atoms: C_7  and  N_1 
REMARK    2  A    between atoms: C_6  and  C_2 
REMARK    3  A    between atoms: C_17  and  C_6 
REMARK    4  A    between atoms: C_8  and  C_7 
ROOT
ATOM      1  N   UNL d   1      33.223  21.569 -22.003  0.00  0.00    -0.303 N 
ATOM      2  C   UNL d   1      33.188  20.280 -22.395  0.00  0.00     0.057 A 
ATOM      3  C   UNL d   1      33.202  20.770 -21.741  0.00  0.00     0.067 A 
ATOM      4  C   UNL d   1      33.200  20.761 -23.067  0.00  0.00     0.022 A 
ATOM      5  C   UNL d   1      33.221  21.560 -22.802  0.00  0.00     0.064 A 
ATOM      6  C   UNL d   1      33.197  20.511 -20.950  0.00  0.00     0.019 C 
ATOM      7  C   UNL d   1      33.238  22.224 -23.302  0.00  0.00     0.019 C 
ENDROOT
BRANCH   1   8
ATOM      8  C   UNL d   1      33.241  22.236 -21.527  0.00  0.00     0.105 C 
BRANCH   8   9
ATOM      9  C   UNL d   1      32.525  22.608 -21.288  0.00  0.00     0.118 A 
ATOM     10  O   UNL d   1      31.772  22.329 -21.158  0.00  0.00    -0.304 OA
ATOM     11  C   UNL d   1      31.327  22.981 -20.933  0.00  0.00     0.123 A 
ATOM     12  C   UNL d   1      31.766  23.635 -20.920  0.00  0.00     0.029 A 
ATOM     13  C   UNL d   1      32.536  23.415 -21.144  0.00  0.00     0.028 A 
ENDBRANCH   8   9
ENDBRANCH   1   8
BRANCH   2  14
ATOM     14  C   UNL d   1      33.168  19.483 -22.385  0.00  0.00     0.208 C 
ATOM     15  O   UNL d   1      33.219  19.082 -21.677  0.00  0.00    -0.286 OA
BRANCH  14  16
ATOM     16  C   UNL d   1      33.095  19.054 -23.084  0.00  0.00     0.110 C 
ATOM     17 CL   UNL d   1      32.766  18.277 -23.081  0.00  0.00    -0.078 Cl
ENDBRANCH  14  16
ENDBRANCH   2  14
TORSDOF 4
ENDMDL
MODEL 6
REMARK VINA RESULT:      -0.6      2.411      3.946
REMARK  4 active torsions:
REMARK  status: ('A' for Active; 'I' for Inactive)
REMARK    1  A    between atoms: C_7  and  N_1 
REMARK    2  A    between atoms: C_6  and  C_2 
REMARK    3  A    between atoms: C_17  and  C_6 
REMARK    4  A    between atoms: C_8  and  C_7 
ROOT
ATOM      1  N   UNL d   1      29.865  16.741 -23.854  0.00  0.00    -0.303 N 
ATOM      2  C   UNL d   1      28.554  16.430 -23.883  0.00  0.00     0.057 A 
ATOM      3  C   UNL d   1      29.271  16.233 -23.542  0.00  0.00     0.067 A 
ATOM      4  C   UNL d   1      28.689  17.056 -24.405  0.00  0.00     0.022 A 
ATOM      5  C   UNL d   1      29.511  17.235 -24.372  0.00  0.00     0.064 A 
ATOM      6  C   UNL d   1      29.383  15.628 -22.982  0.00  0.00     0.019 C 
ATOM      7  C   UNL d   1      29.882  17.833 -24.815  0.00  0.00     0.019 C 
ENDROOT
BRANCH   1   8
ATOM      8  C   UNL d   1      30.661  16.731 -23.661  0.00  0.00     0.105 C 
BRANCH   8   9
ATOM      9  C   UNL d   1      31.197  16.241 -24.087  0.00  0.00     0.118 A 
ATOM     10  O   UNL d   1      31.195  15.946 -24.845  0.00  0.00    -0.304 OA
ATOM     11  C   UNL d   1      31.882  15.504 -24.914  0.00  0.00     0.123 A 
ATOM     12  C   UNL d   1      32.297  15.514 -24.246  0.00  0.00     0.029 A 
ATOM     13  C   UNL d   1      31.874  15.981 -23.704  0.00  0.00     0.028 A 
ENDBRANCH   8   9
ENDBRANCH   1   8
BRANCH   2  14
ATOM     14  C   UNL d   1      27.852  16.080 -23.736  0.00  0.00     0.208 C 
ATOM     15  O   UNL d   1      27.558  15.522 -24.252  0.00  0.00    -0.286 OA
BRANCH  14  16
ATOM     16  C   UNL d   1      27.416  16.275 -23.066  0.00  0.00     0.110 C 
ATOM     17 CL   UNL d   1      26.654  15.939 -22.934  0.00  0.00    -0.078 Cl
ENDBRANCH  14  16
ENDBRANCH   2  14
TORSDOF 4
ENDMDL
